MODEL 1
REMARK VINA RESULT:     -11.4      0.000      0.000
REMARK  Name = 59174488
REMARK  8 active torsions:
REMARK  status: ('A' for Active; 'I' for Inactive)
REMARK    1  A    between atoms: N_2  and  C_12
REMARK    2  A    between atoms: N_3  and  C_24
REMARK    3  A    between atoms: C_14  and  N_19
REMARK    4  A    between atoms: C_20  and  C_22
REMARK    5  A    between atoms: C_25  and  O_30
REMARK    6  A    between atoms: O_30  and  C_31
REMARK    7  A    between atoms: C_31  and  C_32
REMARK    8  A    between atoms: C_32  and  O_33
REMARK                            x       y       z     vdW  Elec       q    Type
REMARK                         _______ _______ _______ _____ _____    ______ ____
ROOT
ATOM      1  F   UNL     1      29.763 -22.586 -16.883  0.00  0.00    -0.198 F 
ATOM      2  N   UNL     1      32.454 -22.744 -17.481  0.00  0.00    -0.285 N 
ATOM      3  N   UNL     1      33.327 -23.694 -12.937  0.00  0.00    -0.247 N 
ATOM      4  N   UNL     1      32.914 -23.224 -15.196  0.00  0.00    -0.320 NA
ATOM      5  N   UNL     1      31.108 -23.342 -13.605  0.00  0.00    -0.167 NA
ATOM      6  C   UNL     1      32.004 -22.950 -16.154  0.00  0.00    +0.226 C 
ATOM      7  C   UNL     1      32.405 -23.405 -13.963  0.00  0.00    +0.150 C 
ATOM      8  C   UNL     1      30.649 -22.857 -15.918  0.00  0.00    +0.205 C 
ATOM      9  C   UNL     1      30.254 -23.065 -14.613  0.00  0.00    +0.145 C 
ATOM     10  H   UNL     1      31.800 -23.009 -18.167  0.00  0.00    +0.155 HD
ATOM     11  H   UNL     1      32.909 -23.819 -12.054  0.00  0.00    +0.165 HD
ENDROOT
BRANCH   2  12
ATOM     12  C   UNL     1      33.653 -22.235 -18.008  0.00  0.00    +0.051 C 
ATOM     13  C   UNL     1      33.629 -21.433 -19.149  0.00  0.00    +0.029 C 
ATOM     14  C   UNL     1      34.819 -20.929 -19.672  0.00  0.00    +0.052 C 
ATOM     15  C   UNL     1      34.867 -22.530 -17.388  0.00  0.00    +0.015 C 
ATOM     16  C   UNL     1      36.033 -21.224 -19.052  0.00  0.00    +0.015 C 
ATOM     17  C   UNL     1      36.058 -22.025 -17.910  0.00  0.00    +0.003 C 
BRANCH  14  19
ATOM     18  O   UNL     1      36.411 -18.477 -20.359  0.00  0.00    -0.270 OA
ATOM     19  N   UNL     1      34.796 -20.126 -20.814  0.00  0.00    -0.280 N 
ATOM     20  C   UNL     1      35.565 -18.987 -21.084  0.00  0.00    +0.250 C 
ATOM     21  H   UNL     1      34.159 -20.393 -21.515  0.00  0.00    +0.155 HD
BRANCH  20  22
ATOM     22  C   UNL     1      35.241 -18.408 -22.420  0.00  0.00    +0.058 C 
ATOM     23  C   UNL     1      34.558 -19.120 -23.322  0.00  0.00    +0.005 C 
ENDBRANCH  20  22
ENDBRANCH  14  19
ENDBRANCH   2  12
BRANCH   3  24
ATOM     24  C   UNL     1      34.729 -23.838 -12.926  0.00  0.00    +0.058 C 
ATOM     25  C   UNL     1      37.505 -24.119 -12.903  0.00  0.00    +0.139 C 
ATOM     26  C   UNL     1      35.504 -23.194 -13.892  0.00  0.00    +0.018 C 
ATOM     27  C   UNL     1      35.343 -24.622 -11.951  0.00  0.00    +0.018 C 
ATOM     28  C   UNL     1      36.892 -23.334 -13.880  0.00  0.00    +0.038 C 
ATOM     29  C   UNL     1      36.731 -24.764 -11.938  0.00  0.00    +0.038 C 
BRANCH  25  30
ATOM     30  O   UNL     1      38.859 -24.256 -12.892  0.00  0.00    -0.473 OA
BRANCH  30  31
ATOM     31  C   UNL     1      39.380 -25.577 -13.043  0.00  0.00    +0.237 C 
BRANCH  31  32
ATOM     32  C   UNL     1      39.051 -26.081 -14.435  0.00  0.00    +0.189 C 
BRANCH  32  33
ATOM     33  O   UNL     1      38.217 -27.229 -14.327  0.00  0.00    -0.347 OA
ATOM     34  C   UNL     1      36.947 -27.007 -14.922  0.00  0.00    +0.174 C 
ENDBRANCH  32  33
ENDBRANCH  31  32
ENDBRANCH  30  31
ENDBRANCH  25  30
ENDBRANCH   3  24
TORSDOF 8
ENDMDL
MODEL 2
REMARK VINA RESULT:     -11.3      3.596      6.261
REMARK  Name = 59174488
REMARK  8 active torsions:
REMARK  status: ('A' for Active; 'I' for Inactive)
REMARK    1  A    between atoms: N_2  and  C_12
REMARK    2  A    between atoms: N_3  and  C_24
REMARK    3  A    between atoms: C_14  and  N_19
REMARK    4  A    between atoms: C_20  and  C_22
REMARK    5  A    between atoms: C_25  and  O_30
REMARK    6  A    between atoms: O_30  and  C_31
REMARK    7  A    between atoms: C_31  and  C_32
REMARK    8  A    between atoms: C_32  and  O_33
REMARK                            x       y       z     vdW  Elec       q    Type
REMARK                         _______ _______ _______ _____ _____    ______ ____
ROOT
ATOM      1  F   UNL     1      38.807 -23.466 -15.375  0.00  0.00    -0.198 F 
ATOM      2  N   UNL     1      36.506 -22.368 -16.436  0.00  0.00    -0.285 N 
ATOM      3  N   UNL     1      33.984 -24.772 -13.246  0.00  0.00    -0.247 N 
ATOM      4  N   UNL     1      35.217 -23.572 -14.836  0.00  0.00    -0.320 NA
ATOM      5  N   UNL     1      36.316 -25.001 -13.238  0.00  0.00    -0.167 NA
ATOM      6  C   UNL     1      36.430 -23.267 -15.343  0.00  0.00    +0.226 C 
ATOM      7  C   UNL     1      35.234 -24.432 -13.801  0.00  0.00    +0.150 C 
ATOM      8  C   UNL     1      37.614 -23.782 -14.858  0.00  0.00    +0.205 C 
ATOM      9  C   UNL     1      37.496 -24.652 -13.794  0.00  0.00    +0.145 C 
ATOM     10  H   UNL     1      37.336 -21.841 -16.459  0.00  0.00    +0.155 HD
ATOM     11  H   UNL     1      34.045 -25.403 -12.492  0.00  0.00    +0.165 HD
ENDROOT
BRANCH   2  12
ATOM     12  C   UNL     1      35.625 -22.084 -17.492  0.00  0.00    +0.051 C 
ATOM     13  C   UNL     1      36.022 -21.231 -18.522  0.00  0.00    +0.029 C 
ATOM     14  C   UNL     1      35.146 -20.949 -19.570  0.00  0.00    +0.052 C 
ATOM     15  C   UNL     1      34.353 -22.657 -17.512  0.00  0.00    +0.015 C 
ATOM     16  C   UNL     1      33.874 -21.522 -19.590  0.00  0.00    +0.015 C 
ATOM     17  C   UNL     1      33.477 -22.376 -18.560  0.00  0.00    +0.003 C 
BRANCH  14  19
ATOM     18  O   UNL     1      37.461 -19.043 -19.734  0.00  0.00    -0.270 OA
ATOM     19  N   UNL     1      35.543 -20.095 -20.601  0.00  0.00    -0.280 N 
ATOM     20  C   UNL     1      36.638 -19.222 -20.624  0.00  0.00    +0.250 C 
ATOM     21  H   UNL     1      34.983 -20.107 -21.410  0.00  0.00    +0.155 HD
BRANCH  20  22
ATOM     22  C   UNL     1      36.721 -18.477 -21.914  0.00  0.00    +0.058 C 
ATOM     23  C   UNL     1      35.616 -18.212 -22.618  0.00  0.00    +0.005 C 
ENDBRANCH  20  22
ENDBRANCH  14  19
ENDBRANCH   2  12
BRANCH   3  24
ATOM     24  C   UNL     1      32.664 -24.388 -13.558  0.00  0.00    +0.058 C 
ATOM     25  C   UNL     1      30.051 -23.628 -14.172  0.00  0.00    +0.139 C 
ATOM     26  C   UNL     1      31.625 -25.314 -13.454  0.00  0.00    +0.018 C 
ATOM     27  C   UNL     1      32.396 -23.084 -13.970  0.00  0.00    +0.018 C 
ATOM     28  C   UNL     1      30.318 -24.934 -13.760  0.00  0.00    +0.038 C 
ATOM     29  C   UNL     1      31.089 -22.703 -14.277  0.00  0.00    +0.038 C 
BRANCH  25  30
ATOM     30  O   UNL     1      28.776 -23.257 -14.472  0.00  0.00    -0.473 OA
BRANCH  30  31
ATOM     31  C   UNL     1      28.470 -23.035 -15.848  0.00  0.00    +0.237 C 
BRANCH  31  32
ATOM     32  C   UNL     1      27.087 -22.423 -15.955  0.00  0.00    +0.189 C 
BRANCH  32  33
ATOM     33  O   UNL     1      27.104 -21.413 -16.957  0.00  0.00    -0.347 OA
ATOM     34  C   UNL     1      25.872 -21.359 -17.662  0.00  0.00    +0.174 C 
ENDBRANCH  32  33
ENDBRANCH  31  32
ENDBRANCH  30  31
ENDBRANCH  25  30
ENDBRANCH   3  24
TORSDOF 8
ENDMDL
MODEL 3
REMARK VINA RESULT:      -9.5      2.174      8.221
REMARK  Name = 59174488
REMARK  8 active torsions:
REMARK  status: ('A' for Active; 'I' for Inactive)
REMARK    1  A    between atoms: N_2  and  C_12
REMARK    2  A    between atoms: N_3  and  C_24
REMARK    3  A    between atoms: C_14  and  N_19
REMARK    4  A    between atoms: C_20  and  C_22
REMARK    5  A    between atoms: C_25  and  O_30
REMARK    6  A    between atoms: O_30  and  C_31
REMARK    7  A    between atoms: C_31  and  C_32
REMARK    8  A    between atoms: C_32  and  O_33
REMARK                            x       y       z     vdW  Elec       q    Type
REMARK                         _______ _______ _______ _____ _____    ______ ____
ROOT
ATOM      1  F   UNL     1      32.390 -24.531 -13.035  0.00  0.00    -0.198 F 
ATOM      2  N   UNL     1      34.668 -23.405 -14.116  0.00  0.00    -0.285 N 
ATOM      3  N   UNL     1      32.184 -22.276 -17.972  0.00  0.00    -0.247 N 
ATOM      4  N   UNL     1      33.434 -22.828 -16.068  0.00  0.00    -0.320 NA
ATOM      5  N   UNL     1      31.096 -23.392 -16.222  0.00  0.00    -0.167 NA
ATOM      6  C   UNL     1      33.452 -23.395 -14.844  0.00  0.00    +0.226 C 
ATOM      7  C   UNL     1      32.241 -22.861 -16.691  0.00  0.00    +0.150 C 
ATOM      8  C   UNL     1      32.350 -23.974 -14.251  0.00  0.00    +0.205 C 
ATOM      9  C   UNL     1      31.187 -23.943 -14.993  0.00  0.00    +0.145 C 
ATOM     10  H   UNL     1      34.546 -23.383 -13.140  0.00  0.00    +0.155 HD
ATOM     11  H   UNL     1      31.293 -22.324 -18.389  0.00  0.00    +0.165 HD
ENDROOT
BRANCH   2  12
ATOM     12  C   UNL     1      36.014 -23.440 -14.518  0.00  0.00    +0.051 C 
ATOM     13  C   UNL     1      36.794 -24.564 -14.246  0.00  0.00    +0.029 C 
ATOM     14  C   UNL     1      38.130 -24.597 -14.645  0.00  0.00    +0.052 C 
ATOM     15  C   UNL     1      36.568 -22.352 -15.192  0.00  0.00    +0.015 C 
ATOM     16  C   UNL     1      38.685 -23.509 -15.319  0.00  0.00    +0.015 C 
ATOM     17  C   UNL     1      37.904 -22.385 -15.592  0.00  0.00    +0.003 C 
BRANCH  14  19
ATOM     18  O   UNL     1      41.068 -24.831 -14.072  0.00  0.00    -0.270 OA
ATOM     19  N   UNL     1      38.912 -25.722 -14.373  0.00  0.00    -0.280 N 
ATOM     20  C   UNL     1      40.287 -25.774 -14.112  0.00  0.00    +0.250 C 
ATOM     21  H   UNL     1      38.438 -26.584 -14.366  0.00  0.00    +0.155 HD
BRANCH  20  22
ATOM     22  C   UNL     1      40.749 -27.172 -13.870  0.00  0.00    +0.058 C 
ATOM     23  C   UNL     1      41.858 -27.409 -13.163  0.00  0.00    +0.005 C 
ENDBRANCH  20  22
ENDBRANCH  14  19
ENDBRANCH   2  12
BRANCH   3  24
ATOM     24  C   UNL     1      33.152 -21.637 -18.774  0.00  0.00    +0.058 C 
ATOM     25  C   UNL     1      35.067 -20.370 -20.359  0.00  0.00    +0.139 C 
ATOM     26  C   UNL     1      32.781 -20.579 -19.605  0.00  0.00    +0.018 C 
ATOM     27  C   UNL     1      34.479 -22.062 -18.737  0.00  0.00    +0.018 C 
ATOM     28  C   UNL     1      33.738 -19.945 -20.396  0.00  0.00    +0.038 C 
ATOM     29  C   UNL     1      35.438 -21.429 -19.529  0.00  0.00    +0.038 C 
BRANCH  25  30
ATOM     30  O   UNL     1      36.001 -19.752 -21.132  0.00  0.00    -0.473 OA
BRANCH  30  31
ATOM     31  C   UNL     1      35.840 -18.351 -21.350  0.00  0.00    +0.237 C 
BRANCH  31  32
ATOM     32  C   UNL     1      35.511 -18.113 -22.811  0.00  0.00    +0.189 C 
BRANCH  32  33
ATOM     33  O   UNL     1      35.147 -16.749 -22.988  0.00  0.00    -0.347 OA
ATOM     34  C   UNL     1      34.767 -16.482 -24.331  0.00  0.00    +0.174 C 
ENDBRANCH  32  33
ENDBRANCH  31  32
ENDBRANCH  30  31
ENDBRANCH  25  30
ENDBRANCH   3  24
TORSDOF 8
ENDMDL
MODEL 4
REMARK VINA RESULT:      -8.7      2.983      6.571
REMARK  Name = 59174488
REMARK  8 active torsions:
REMARK  status: ('A' for Active; 'I' for Inactive)
REMARK    1  A    between atoms: N_2  and  C_12
REMARK    2  A    between atoms: N_3  and  C_24
REMARK    3  A    between atoms: C_14  and  N_19
REMARK    4  A    between atoms: C_20  and  C_22
REMARK    5  A    between atoms: C_25  and  O_30
REMARK    6  A    between atoms: O_30  and  C_31
REMARK    7  A    between atoms: C_31  and  C_32
REMARK    8  A    between atoms: C_32  and  O_33
REMARK                            x       y       z     vdW  Elec       q    Type
REMARK                         _______ _______ _______ _____ _____    ______ ____
ROOT
ATOM      1  F   UNL     1      34.916 -25.124 -11.035  0.00  0.00    -0.198 F 
ATOM      2  N   UNL     1      33.744 -24.564 -13.471  0.00  0.00    -0.285 N 
ATOM      3  N   UNL     1      37.611 -22.139 -14.684  0.00  0.00    -0.247 N 
ATOM      4  N   UNL     1      35.684 -23.338 -14.101  0.00  0.00    -0.320 NA
ATOM      5  N   UNL     1      37.536 -23.151 -12.572  0.00  0.00    -0.167 NA
ATOM      6  C   UNL     1      35.040 -24.077 -13.174  0.00  0.00    +0.226 C 
ATOM      7  C   UNL     1      36.910 -22.914 -13.739  0.00  0.00    +0.150 C 
ATOM      8  C   UNL     1      35.572 -24.389 -11.940  0.00  0.00    +0.205 C 
ATOM      9  C   UNL     1      36.835 -23.896 -11.691  0.00  0.00    +0.145 C 
ATOM     10  H   UNL     1      33.529 -25.415 -13.026  0.00  0.00    +0.155 HD
ATOM     11  H   UNL     1      38.502 -21.852 -14.377  0.00  0.00    +0.165 HD
ENDROOT
BRANCH   2  12
ATOM     12  C   UNL     1      32.706 -24.068 -14.278  0.00  0.00    +0.051 C 
ATOM     13  C   UNL     1      33.003 -23.426 -15.480  0.00  0.00    +0.029 C 
ATOM     14  C   UNL     1      31.973 -22.933 -16.280  0.00  0.00    +0.052 C 
ATOM     15  C   UNL     1      31.379 -24.219 -13.877  0.00  0.00    +0.015 C 
ATOM     16  C   UNL     1      30.645 -23.084 -15.879  0.00  0.00    +0.015 C 
ATOM     17  C   UNL     1      30.348 -23.727 -14.677  0.00  0.00    +0.003 C 
BRANCH  14  19
ATOM     18  O   UNL     1      33.687 -23.813 -18.583  0.00  0.00    -0.270 OA
ATOM     19  N   UNL     1      32.269 -22.290 -17.483  0.00  0.00    -0.280 N 
ATOM     20  C   UNL     1      33.080 -22.749 -18.529  0.00  0.00    +0.250 C 
ATOM     21  H   UNL     1      31.860 -21.405 -17.611  0.00  0.00    +0.155 HD
BRANCH  20  22
ATOM     22  C   UNL     1      33.147 -21.764 -19.647  0.00  0.00    +0.058 C 
ATOM     23  C   UNL     1      32.710 -20.512 -19.478  0.00  0.00    +0.005 C 
ENDBRANCH  20  22
ENDBRANCH  14  19
ENDBRANCH   2  12
BRANCH   3  24
ATOM     24  C   UNL     1      37.290 -21.695 -15.983  0.00  0.00    +0.058 C 
ATOM     25  C   UNL     1      36.650 -20.814 -18.552  0.00  0.00    +0.139 C 
ATOM     26  C   UNL     1      36.458 -22.464 -16.798  0.00  0.00    +0.018 C 
ATOM     27  C   UNL     1      37.802 -20.486 -16.454  0.00  0.00    +0.018 C 
ATOM     28  C   UNL     1      36.137 -22.023 -18.082  0.00  0.00    +0.038 C 
ATOM     29  C   UNL     1      37.482 -20.045 -17.738  0.00  0.00    +0.038 C 
BRANCH  25  30
ATOM     30  O   UNL     1      36.338 -20.384 -19.805  0.00  0.00    -0.473 OA
BRANCH  30  31
ATOM     31  C   UNL     1      37.067 -19.264 -20.309  0.00  0.00    +0.237 C 
BRANCH  31  32
ATOM     32  C   UNL     1      36.222 -18.550 -21.345  0.00  0.00    +0.189 C 
BRANCH  32  33
ATOM     33  O   UNL     1      35.186 -19.423 -21.781  0.00  0.00    -0.347 OA
ATOM     34  C   UNL     1      34.755 -19.103 -23.096  0.00  0.00    +0.174 C 
ENDBRANCH  32  33
ENDBRANCH  31  32
ENDBRANCH  30  31
ENDBRANCH  25  30
ENDBRANCH   3  24
TORSDOF 8
ENDMDL
