MODEL 1
REMARK VINA RESULT:     -12.3      0.000      0.000
REMARK  Name = 25184541
REMARK  4 active torsions:
REMARK  status: ('A' for Active; 'I' for Inactive)
REMARK    1  A    between atoms: C_4  and  N_19
REMARK    2  A    between atoms: C_5  and  N_11
REMARK    3  A    between atoms: C_20  and  C_23
REMARK    4  A    between atoms: C_23  and  N_25
REMARK                            x       y       z     vdW  Elec       q    Type
REMARK                         _______ _______ _______ _____ _____    ______ ____
ROOT
ATOM      1  F   UNL     1      32.455 -21.612 -18.707  0.00  0.00    -0.200 F 
ATOM      2  F   UNL     1      32.503 -19.924 -20.834  0.00  0.00    -0.200 F 
ATOM      3  F   UNL     1      37.246 -19.799 -20.628  0.00  0.00    -0.203 F 
ATOM      4  C   UNL     1      34.826 -21.572 -18.575  0.00  0.00    +0.089 C 
ATOM      5  C   UNL     1      34.875 -19.838 -20.759  0.00  0.00    +0.110 C 
ATOM      6  C   UNL     1      33.632 -21.170 -19.173  0.00  0.00    +0.182 C 
ATOM      7  C   UNL     1      36.045 -21.108 -19.070  0.00  0.00    +0.048 C 
ATOM      8  C   UNL     1      33.657 -20.303 -20.266  0.00  0.00    +0.184 C 
ATOM      9  C   UNL     1      36.069 -20.240 -20.161  0.00  0.00    +0.157 C 
ENDROOT
BRANCH   5  11
ATOM     10  O   UNL     1      34.916 -16.358 -25.010  0.00  0.00    -0.291 OA
ATOM     11  N   UNL     1      34.900 -18.953 -21.869  0.00  0.00    -0.282 N 
ATOM     12  C   UNL     1      35.609 -17.672 -21.701  0.00  0.00    +0.104 C 
ATOM     13  C   UNL     1      35.026 -16.600 -22.620  0.00  0.00    +0.091 C 
ATOM     14  C   UNL     1      34.455 -19.306 -23.134  0.00  0.00    +0.068 C 
ATOM     15  C   UNL     1      34.828 -17.102 -24.035  0.00  0.00    +0.176 C 
ATOM     16  C   UNL     1      34.425 -18.515 -24.211  0.00  0.00    +0.054 C 
ENDBRANCH   5  11
BRANCH   4  19
ATOM     17  O   UNL     1      35.356 -23.544 -15.561  0.00  0.00    -0.434 OA
ATOM     18  O   UNL     1      36.793 -21.947 -16.285  0.00  0.00    -0.226 OA
ATOM     19  N   UNL     1      34.805 -22.459 -17.461  0.00  0.00    -0.219 N 
ATOM     20  C   UNL     1      34.015 -23.945 -15.872  0.00  0.00    +0.210 C 
ATOM     21  C   UNL     1      33.806 -23.482 -17.298  0.00  0.00    +0.147 C 
ATOM     22  C   UNL     1      35.747 -22.562 -16.442  0.00  0.00    +0.409 C 
BRANCH  20  23
ATOM     23  C   UNL     1      33.062 -23.286 -14.883  0.00  0.00    +0.134 C 
BRANCH  23  25
ATOM     24  O   UNL     1      29.200 -22.671 -16.711  0.00  0.00    -0.349 OA
ATOM     25  N   UNL     1      31.832 -24.033 -14.814  0.00  0.00    -0.312 N 
ATOM     26  N   UNL     1      30.518 -22.608 -16.275  0.00  0.00    -0.062 NA
ATOM     27  C   UNL     1      30.672 -23.674 -15.483  0.00  0.00    +0.171 C 
ATOM     28  C   UNL     1      29.497 -24.437 -15.382  0.00  0.00    +0.081 C 
ATOM     29  C   UNL     1      28.602 -23.765 -16.172  0.00  0.00    +0.215 C 
ATOM     30  H   UNL     1      31.815 -24.846 -14.257  0.00  0.00    +0.148 HD
ENDBRANCH  23  25
ENDBRANCH  20  23
ENDBRANCH   4  19
TORSDOF 4
ENDMDL
MODEL 2
REMARK VINA RESULT:     -12.2      5.555      8.069
REMARK  Name = 25184541
REMARK  4 active torsions:
REMARK  status: ('A' for Active; 'I' for Inactive)
REMARK    1  A    between atoms: C_4  and  N_19
REMARK    2  A    between atoms: C_5  and  N_11
REMARK    3  A    between atoms: C_20  and  C_23
REMARK    4  A    between atoms: C_23  and  N_25
REMARK                            x       y       z     vdW  Elec       q    Type
REMARK                         _______ _______ _______ _____ _____    ______ ____
ROOT
ATOM      1  F   UNL     1      35.290 -23.083 -16.908  0.00  0.00    -0.200 F 
ATOM      2  F   UNL     1      32.606 -22.682 -17.025  0.00  0.00    -0.200 F 
ATOM      3  F   UNL     1      32.091 -24.928 -12.871  0.00  0.00    -0.203 F 
ATOM      4  C   UNL     1      35.068 -24.210 -14.829  0.00  0.00    +0.089 C 
ATOM      5  C   UNL     1      32.312 -23.800 -14.950  0.00  0.00    +0.110 C 
ATOM      6  C   UNL     1      34.510 -23.538 -15.916  0.00  0.00    +0.182 C 
ATOM      7  C   UNL     1      34.248 -24.678 -13.802  0.00  0.00    +0.048 C 
ATOM      8  C   UNL     1      33.132 -23.332 -15.976  0.00  0.00    +0.184 C 
ATOM      9  C   UNL     1      32.870 -24.473 -13.863  0.00  0.00    +0.157 C 
ENDROOT
BRANCH   5  11
ATOM     10  O   UNL     1      26.886 -23.009 -15.280  0.00  0.00    -0.291 OA
ATOM     11  N   UNL     1      30.909 -23.594 -15.012  0.00  0.00    -0.282 N 
ATOM     12  C   UNL     1      30.070 -24.741 -15.405  0.00  0.00    +0.104 C 
ATOM     13  C   UNL     1      28.776 -24.270 -16.067  0.00  0.00    +0.091 C 
ATOM     14  C   UNL     1      30.288 -22.442 -14.555  0.00  0.00    +0.068 C 
ATOM     15  C   UNL     1      28.106 -23.155 -15.291  0.00  0.00    +0.176 C 
ATOM     16  C   UNL     1      28.979 -22.173 -14.609  0.00  0.00    +0.054 C 
ENDBRANCH   5  11
BRANCH   4  19
ATOM     17  O   UNL     1      38.704 -24.075 -14.703  0.00  0.00    -0.434 OA
ATOM     18  O   UNL     1      37.384 -22.239 -14.868  0.00  0.00    -0.226 OA
ATOM     19  N   UNL     1      36.475 -24.420 -14.764  0.00  0.00    -0.219 N 
ATOM     20  C   UNL     1      38.509 -25.464 -14.403  0.00  0.00    +0.210 C 
ATOM     21  C   UNL     1      37.068 -25.731 -14.783  0.00  0.00    +0.147 C 
ATOM     22  C   UNL     1      37.478 -23.455 -14.778  0.00  0.00    +0.409 C 
BRANCH  20  23
ATOM     23  C   UNL     1      38.791 -25.691 -12.923  0.00  0.00    +0.134 C 
BRANCH  23  25
ATOM     24  O   UNL     1      35.493 -25.392 -10.153  0.00  0.00    -0.349 OA
ATOM     25  N   UNL     1      38.277 -24.589 -12.150  0.00  0.00    -0.312 N 
ATOM     26  N   UNL     1      36.463 -25.784 -11.066  0.00  0.00    -0.062 NA
ATOM     27  C   UNL     1      37.187 -24.685 -11.298  0.00  0.00    +0.171 C 
ATOM     28  C   UNL     1      36.724 -23.579 -10.566  0.00  0.00    +0.081 C 
ATOM     29  C   UNL     1      35.659 -24.075  -9.862  0.00  0.00    +0.215 C 
ATOM     30  H   UNL     1      38.725 -23.716 -12.233  0.00  0.00    +0.148 HD
ENDBRANCH  23  25
ENDBRANCH  20  23
ENDBRANCH   4  19
TORSDOF 4
ENDMDL
MODEL 3
REMARK VINA RESULT:     -12.1      0.677      1.787
REMARK  Name = 25184541
REMARK  4 active torsions:
REMARK  status: ('A' for Active; 'I' for Inactive)
REMARK    1  A    between atoms: C_4  and  N_19
REMARK    2  A    between atoms: C_5  and  N_11
REMARK    3  A    between atoms: C_20  and  C_23
REMARK    4  A    between atoms: C_23  and  N_25
REMARK                            x       y       z     vdW  Elec       q    Type
REMARK                         _______ _______ _______ _____ _____    ______ ____
ROOT
ATOM      1  F   UNL     1      36.910 -21.731 -18.342  0.00  0.00    -0.200 F 
ATOM      2  F   UNL     1      37.072 -20.061 -20.478  0.00  0.00    -0.200 F 
ATOM      3  F   UNL     1      32.331 -19.959 -20.755  0.00  0.00    -0.203 F 
ATOM      4  C   UNL     1      34.538 -21.701 -18.451  0.00  0.00    +0.089 C 
ATOM      5  C   UNL     1      34.704 -19.988 -20.646  0.00  0.00    +0.110 C 
ATOM      6  C   UNL     1      35.785 -21.300 -18.930  0.00  0.00    +0.182 C 
ATOM      7  C   UNL     1      33.374 -21.246 -19.070  0.00  0.00    +0.048 C 
ATOM      8  C   UNL     1      35.868 -20.443 -20.028  0.00  0.00    +0.184 C 
ATOM      9  C   UNL     1      33.457 -20.390 -20.167  0.00  0.00    +0.157 C 
ENDROOT
BRANCH   5  11
ATOM     10  O   UNL     1      34.973 -16.566 -24.936  0.00  0.00    -0.291 OA
ATOM     11  N   UNL     1      34.788 -19.119 -21.765  0.00  0.00    -0.282 N 
ATOM     12  C   UNL     1      35.539 -17.863 -21.596  0.00  0.00    +0.104 C 
ATOM     13  C   UNL     1      35.017 -16.782 -22.541  0.00  0.00    +0.091 C 
ATOM     14  C   UNL     1      34.360 -19.471 -23.037  0.00  0.00    +0.068 C 
ATOM     15  C   UNL     1      34.835 -17.294 -23.954  0.00  0.00    +0.176 C 
ATOM     16  C   UNL     1      34.384 -18.694 -24.124  0.00  0.00    +0.054 C 
ENDBRANCH   5  11
BRANCH   4  19
ATOM     17  O   UNL     1      34.879 -23.629 -15.382  0.00  0.00    -0.434 OA
ATOM     18  O   UNL     1      36.337 -22.013 -16.018  0.00  0.00    -0.226 OA
ATOM     19  N   UNL     1      34.450 -22.575 -17.330  0.00  0.00    -0.219 N 
ATOM     20  C   UNL     1      33.572 -24.059 -15.786  0.00  0.00    +0.210 C 
ATOM     21  C   UNL     1      33.461 -23.615 -17.230  0.00  0.00    +0.147 C 
ATOM     22  C   UNL     1      35.317 -22.650 -16.243  0.00  0.00    +0.409 C 
BRANCH  20  23
ATOM     23  C   UNL     1      32.537 -23.407 -14.878  0.00  0.00    +0.134 C 
BRANCH  23  25
ATOM     24  O   UNL     1      28.784 -22.552 -16.832  0.00  0.00    -0.349 OA
ATOM     25  N   UNL     1      31.296 -24.136 -14.945  0.00  0.00    -0.312 N 
ATOM     26  N   UNL     1      30.078 -22.555 -16.326  0.00  0.00    -0.062 NA
ATOM     27  C   UNL     1      30.177 -23.694 -15.635  0.00  0.00    +0.171 C 
ATOM     28  C   UNL     1      28.990 -24.444 -15.669  0.00  0.00    +0.081 C 
ATOM     29  C   UNL     1      28.145 -23.683 -16.434  0.00  0.00    +0.215 C 
ATOM     30  H   UNL     1      31.240 -24.999 -14.472  0.00  0.00    +0.148 HD
ENDBRANCH  23  25
ENDBRANCH  20  23
ENDBRANCH   4  19
TORSDOF 4
ENDMDL
MODEL 4
REMARK VINA RESULT:     -11.6      3.234      9.087
REMARK  Name = 25184541
REMARK  4 active torsions:
REMARK  status: ('A' for Active; 'I' for Inactive)
REMARK    1  A    between atoms: C_4  and  N_19
REMARK    2  A    between atoms: C_5  and  N_11
REMARK    3  A    between atoms: C_20  and  C_23
REMARK    4  A    between atoms: C_23  and  N_25
REMARK                            x       y       z     vdW  Elec       q    Type
REMARK                         _______ _______ _______ _____ _____    ______ ____
ROOT
ATOM      1  F   UNL     1      37.191 -20.848 -17.851  0.00  0.00    -0.200 F 
ATOM      2  F   UNL     1      37.662 -22.177 -15.530  0.00  0.00    -0.200 F 
ATOM      3  F   UNL     1      33.400 -24.249 -15.853  0.00  0.00    -0.203 F 
ATOM      4  C   UNL     1      35.055 -21.866 -18.044  0.00  0.00    +0.089 C 
ATOM      5  C   UNL     1      35.538 -23.230 -15.659  0.00  0.00    +0.110 C 
ATOM      6  C   UNL     1      36.259 -21.680 -17.365  0.00  0.00    +0.182 C 
ATOM      7  C   UNL     1      34.092 -22.735 -17.530  0.00  0.00    +0.048 C 
ATOM      8  C   UNL     1      36.500 -22.362 -16.173  0.00  0.00    +0.184 C 
ATOM      9  C   UNL     1      34.334 -23.417 -16.338  0.00  0.00    +0.157 C 
ENDROOT
BRANCH   5  11
ATOM     10  O   UNL     1      36.524 -25.838 -10.925  0.00  0.00    -0.291 OA
ATOM     11  N   UNL     1      35.782 -23.923 -14.444  0.00  0.00    -0.282 N 
ATOM     12  C   UNL     1      35.023 -23.497 -13.255  0.00  0.00    +0.104 C 
ATOM     13  C   UNL     1      35.800 -23.798 -11.975  0.00  0.00    +0.091 C 
ATOM     14  C   UNL     1      36.550 -25.075 -14.366  0.00  0.00    +0.068 C 
ATOM     15  C   UNL     1      36.372 -25.200 -11.966  0.00  0.00    +0.176 C 
ATOM     16  C   UNL     1      36.841 -25.758 -13.255  0.00  0.00    +0.054 C 
ENDBRANCH   5  11
BRANCH   4  19
ATOM     17  O   UNL     1      33.781 -20.057 -20.935  0.00  0.00    -0.434 OA
ATOM     18  O   UNL     1      32.493 -20.678 -19.175  0.00  0.00    -0.226 OA
ATOM     19  N   UNL     1      34.805 -21.172 -19.262  0.00  0.00    -0.219 N 
ATOM     20  C   UNL     1      35.186 -19.986 -21.213  0.00  0.00    +0.210 C 
ATOM     21  C   UNL     1      35.804 -21.011 -20.285  0.00  0.00    +0.147 C 
ATOM     22  C   UNL     1      33.595 -20.646 -19.706  0.00  0.00    +0.409 C 
BRANCH  20  23
ATOM     23  C   UNL     1      35.669 -18.567 -20.945  0.00  0.00    +0.134 C 
BRANCH  23  25
ATOM     24  O   UNL     1      34.530 -14.430 -21.425  0.00  0.00    -0.349 OA
ATOM     25  N   UNL     1      35.468 -17.751 -22.116  0.00  0.00    -0.312 N 
ATOM     26  N   UNL     1      34.872 -15.697 -20.967  0.00  0.00    -0.062 NA
ATOM     27  C   UNL     1      35.095 -16.416 -22.072  0.00  0.00    +0.171 C 
ATOM     28  C   UNL     1      34.911 -15.663 -23.244  0.00  0.00    +0.081 C 
ATOM     29  C   UNL     1      34.557 -14.423 -22.783  0.00  0.00    +0.215 C 
ATOM     30  H   UNL     1      35.601 -18.167 -22.999  0.00  0.00    +0.148 HD
ENDBRANCH  23  25
ENDBRANCH  20  23
ENDBRANCH   4  19
TORSDOF 4
ENDMDL
MODEL 5
REMARK VINA RESULT:     -11.5      2.377      3.253
REMARK  Name = 25184541
REMARK  4 active torsions:
REMARK  status: ('A' for Active; 'I' for Inactive)
REMARK    1  A    between atoms: C_4  and  N_19
REMARK    2  A    between atoms: C_5  and  N_11
REMARK    3  A    between atoms: C_20  and  C_23
REMARK    4  A    between atoms: C_23  and  N_25
REMARK                            x       y       z     vdW  Elec       q    Type
REMARK                         _______ _______ _______ _____ _____    ______ ____
ROOT
ATOM      1  F   UNL     1      32.915 -21.851 -18.655  0.00  0.00    -0.200 F 
ATOM      2  F   UNL     1      32.749 -20.152 -20.768  0.00  0.00    -0.200 F 
ATOM      3  F   UNL     1      37.447 -19.474 -20.591  0.00  0.00    -0.203 F 
ATOM      4  C   UNL     1      35.266 -21.535 -18.539  0.00  0.00    +0.089 C 
ATOM      5  C   UNL     1      35.095 -19.789 -20.707  0.00  0.00    +0.110 C 
ATOM      6  C   UNL     1      34.029 -21.270 -19.125  0.00  0.00    +0.182 C 
ATOM      7  C   UNL     1      36.418 -20.927 -19.037  0.00  0.00    +0.048 C 
ATOM      8  C   UNL     1      33.944 -20.397 -20.210  0.00  0.00    +0.184 C 
ATOM      9  C   UNL     1      36.333 -20.054 -20.120  0.00  0.00    +0.157 C 
ENDROOT
BRANCH   5  11
ATOM     10  O   UNL     1      34.702 -16.292 -24.926  0.00  0.00    -0.291 OA
ATOM     11  N   UNL     1      35.009 -18.898 -21.809  0.00  0.00    -0.282 N 
ATOM     12  C   UNL     1      35.616 -17.565 -21.654  0.00  0.00    +0.104 C 
ATOM     13  C   UNL     1      34.914 -16.539 -22.543  0.00  0.00    +0.091 C 
ATOM     14  C   UNL     1      34.550 -19.279 -23.061  0.00  0.00    +0.068 C 
ATOM     15  C   UNL     1      34.709 -17.046 -23.955  0.00  0.00    +0.176 C 
ATOM     16  C   UNL     1      34.417 -18.487 -24.130  0.00  0.00    +0.054 C 
ENDBRANCH   5  11
BRANCH   4  19
ATOM     17  O   UNL     1      36.136 -23.600 -15.669  0.00  0.00    -0.434 OA
ATOM     18  O   UNL     1      37.590 -22.190 -16.688  0.00  0.00    -0.226 OA
ATOM     19  N   UNL     1      35.356 -22.427 -17.432  0.00  0.00    -0.219 N 
ATOM     20  C   UNL     1      34.720 -23.822 -15.698  0.00  0.00    +0.210 C 
ATOM     21  C   UNL     1      34.289 -23.316 -17.059  0.00  0.00    +0.147 C 
ATOM     22  C   UNL     1      36.464 -22.664 -16.623  0.00  0.00    +0.409 C 
BRANCH  20  23
ATOM     23  C   UNL     1      34.079 -23.060 -14.545  0.00  0.00    +0.134 C 
BRANCH  23  25
ATOM     24  O   UNL     1      34.888 -25.124 -10.841  0.00  0.00    -0.349 OA
ATOM     25  N   UNL     1      35.051 -22.833 -13.506  0.00  0.00    -0.312 N 
ATOM     26  N   UNL     1      34.405 -24.675 -12.064  0.00  0.00    -0.062 NA
ATOM     27  C   UNL     1      35.162 -23.616 -12.367  0.00  0.00    +0.171 C 
ATOM     28  C   UNL     1      36.128 -23.352 -11.383  0.00  0.00    +0.081 C 
ATOM     29  C   UNL     1      35.914 -24.328 -10.445  0.00  0.00    +0.215 C 
ATOM     30  H   UNL     1      35.672 -22.076 -13.611  0.00  0.00    +0.148 HD
ENDBRANCH  23  25
ENDBRANCH  20  23
ENDBRANCH   4  19
TORSDOF 4
ENDMDL
MODEL 6
REMARK VINA RESULT:     -11.4      8.728     13.808
REMARK  Name = 25184541
REMARK  4 active torsions:
REMARK  status: ('A' for Active; 'I' for Inactive)
REMARK    1  A    between atoms: C_4  and  N_19
REMARK    2  A    between atoms: C_5  and  N_11
REMARK    3  A    between atoms: C_20  and  C_23
REMARK    4  A    between atoms: C_23  and  N_25
REMARK                            x       y       z     vdW  Elec       q    Type
REMARK                         _______ _______ _______ _____ _____    ______ ____
ROOT
ATOM      1  F   UNL     1      30.863 -10.841 -20.527  0.00  0.00    -0.200 F 
ATOM      2  F   UNL     1      31.567 -13.308 -21.418  0.00  0.00    -0.200 F 
ATOM      3  F   UNL     1      34.646 -11.334 -24.449  0.00  0.00    -0.203 F 
ATOM      4  C   UNL     1      32.394  -9.821 -22.030  0.00  0.00    +0.089 C 
ATOM      5  C   UNL     1      33.115 -12.355 -22.946  0.00  0.00    +0.110 C 
ATOM      6  C   UNL     1      31.790 -10.956 -21.489  0.00  0.00    +0.182 C 
ATOM      7  C   UNL     1      33.358  -9.953 -23.029  0.00  0.00    +0.048 C 
ATOM      8  C   UNL     1      32.152 -12.223 -21.947  0.00  0.00    +0.184 C 
ATOM      9  C   UNL     1      33.718 -11.219 -23.487  0.00  0.00    +0.157 C 
ENDROOT
BRANCH   5  11
ATOM     10  O   UNL     1      34.615 -17.319 -24.758  0.00  0.00    -0.291 OA
ATOM     11  N   UNL     1      33.480 -13.644 -23.415  0.00  0.00    -0.282 N 
ATOM     12  C   UNL     1      34.146 -14.550 -22.463  0.00  0.00    +0.104 C 
ATOM     13  C   UNL     1      35.047 -15.545 -23.194  0.00  0.00    +0.091 C 
ATOM     14  C   UNL     1      33.086 -14.146 -24.646  0.00  0.00    +0.068 C 
ATOM     15  C   UNL     1      34.357 -16.177 -24.385  0.00  0.00    +0.176 C 
ATOM     16  C   UNL     1      33.417 -15.335 -25.159  0.00  0.00    +0.054 C 
ENDBRANCH   5  11
BRANCH   4  19
ATOM     17  O   UNL     1      31.743  -6.707 -20.258  0.00  0.00    -0.434 OA
ATOM     18  O   UNL     1      32.794  -8.487 -19.325  0.00  0.00    -0.226 OA
ATOM     19  N   UNL     1      32.028  -8.526 -21.563  0.00  0.00    -0.219 N 
ATOM     20  C   UNL     1      31.366  -6.308 -21.583  0.00  0.00    +0.210 C 
ATOM     21  C   UNL     1      31.241  -7.610 -22.346  0.00  0.00    +0.147 C 
ATOM     22  C   UNL     1      32.258  -7.983 -20.303  0.00  0.00    +0.409 C 
BRANCH  20  23
ATOM     23  C   UNL     1      32.442  -5.386 -22.143  0.00  0.00    +0.134 C 
BRANCH  23  25
ATOM     24  O   UNL     1      35.117  -6.097 -25.456  0.00  0.00    -0.349 OA
ATOM     25  N   UNL     1      32.273  -5.244 -23.567  0.00  0.00    -0.312 N 
ATOM     26  N   UNL     1      34.499  -5.961 -24.219  0.00  0.00    -0.062 NA
ATOM     27  C   UNL     1      33.266  -5.526 -24.494  0.00  0.00    +0.171 C 
ATOM     28  C   UNL     1      33.051  -5.370 -25.874  0.00  0.00    +0.081 C 
ATOM     29  C   UNL     1      34.244  -5.742 -26.434  0.00  0.00    +0.215 C 
ATOM     30  H   UNL     1      31.402  -4.927 -23.901  0.00  0.00    +0.148 HD
ENDBRANCH  23  25
ENDBRANCH  20  23
ENDBRANCH   4  19
TORSDOF 4
ENDMDL
MODEL 7
REMARK VINA RESULT:     -11.4      9.564     14.189
REMARK  Name = 25184541
REMARK  4 active torsions:
REMARK  status: ('A' for Active; 'I' for Inactive)
REMARK    1  A    between atoms: C_4  and  N_19
REMARK    2  A    between atoms: C_5  and  N_11
REMARK    3  A    between atoms: C_20  and  C_23
REMARK    4  A    between atoms: C_23  and  N_25
REMARK                            x       y       z     vdW  Elec       q    Type
REMARK                         _______ _______ _______ _____ _____    ______ ____
ROOT
ATOM      1  F   UNL     1      33.834  -8.905 -23.429  0.00  0.00    -0.200 F 
ATOM      2  F   UNL     1      34.539 -11.320 -24.452  0.00  0.00    -0.200 F 
ATOM      3  F   UNL     1      31.638 -13.471 -21.365  0.00  0.00    -0.203 F 
ATOM      4  C   UNL     1      32.374  -9.947 -21.873  0.00  0.00    +0.089 C 
ATOM      5  C   UNL     1      33.099 -12.428 -22.922  0.00  0.00    +0.110 C 
ATOM      6  C   UNL     1      33.294 -10.021 -22.919  0.00  0.00    +0.182 C 
ATOM      7  C   UNL     1      31.817 -11.115 -21.351  0.00  0.00    +0.048 C 
ATOM      8  C   UNL     1      33.655 -11.262 -23.444  0.00  0.00    +0.184 C 
ATOM      9  C   UNL     1      32.180 -12.355 -21.875  0.00  0.00    +0.157 C 
ENDROOT
BRANCH   5  11
ATOM     10  O   UNL     1      34.619 -17.292 -24.975  0.00  0.00    -0.291 OA
ATOM     11  N   UNL     1      33.470 -13.692 -23.453  0.00  0.00    -0.282 N 
ATOM     12  C   UNL     1      34.133 -14.643 -22.545  0.00  0.00    +0.104 C 
ATOM     13  C   UNL     1      35.040 -15.598 -23.321  0.00  0.00    +0.091 C 
ATOM     14  C   UNL     1      33.082 -14.132 -24.710  0.00  0.00    +0.068 C 
ATOM     15  C   UNL     1      34.357 -16.171 -24.545  0.00  0.00    +0.176 C 
ATOM     16  C   UNL     1      33.418 -15.293 -25.280  0.00  0.00    +0.054 C 
ENDBRANCH   5  11
BRANCH   4  19
ATOM     17  O   UNL     1      31.706  -6.941 -19.932  0.00  0.00    -0.434 OA
ATOM     18  O   UNL     1      32.763  -8.765 -19.097  0.00  0.00    -0.226 OA
ATOM     19  N   UNL     1      32.002  -8.682 -21.336  0.00  0.00    -0.219 N 
ATOM     20  C   UNL     1      31.331  -6.470 -21.233  0.00  0.00    +0.210 C 
ATOM     21  C   UNL     1      31.213  -7.727 -22.068  0.00  0.00    +0.147 C 
ATOM     22  C   UNL     1      32.227  -8.210 -20.046  0.00  0.00    +0.409 C 
BRANCH  20  23
ATOM     23  C   UNL     1      32.403  -5.513 -21.738  0.00  0.00    +0.134 C 
BRANCH  23  25
ATOM     24  O   UNL     1      29.777  -2.863 -23.910  0.00  0.00    -0.349 OA
ATOM     25  N   UNL     1      31.996  -4.151 -21.502  0.00  0.00    -0.312 N 
ATOM     26  N   UNL     1      30.549  -3.917 -23.437  0.00  0.00    -0.062 NA
ATOM     27  C   UNL     1      31.128  -3.451 -22.326  0.00  0.00    +0.171 C 
ATOM     28  C   UNL     1      30.763  -2.122 -22.052  0.00  0.00    +0.081 C 
ATOM     29  C   UNL     1      29.912  -1.799 -23.076  0.00  0.00    +0.215 C 
ATOM     30  H   UNL     1      32.357  -3.690 -20.710  0.00  0.00    +0.148 HD
ENDBRANCH  23  25
ENDBRANCH  20  23
ENDBRANCH   4  19
TORSDOF 4
ENDMDL
MODEL 8
REMARK VINA RESULT:     -11.4      5.518      8.008
REMARK  Name = 25184541
REMARK  4 active torsions:
REMARK  status: ('A' for Active; 'I' for Inactive)
REMARK    1  A    between atoms: C_4  and  N_19
REMARK    2  A    between atoms: C_5  and  N_11
REMARK    3  A    between atoms: C_20  and  C_23
REMARK    4  A    between atoms: C_23  and  N_25
REMARK                            x       y       z     vdW  Elec       q    Type
REMARK                         _______ _______ _______ _____ _____    ______ ____
ROOT
ATOM      1  F   UNL     1      34.587 -25.031 -12.759  0.00  0.00    -0.200 F 
ATOM      2  F   UNL     1      31.915 -24.598 -12.982  0.00  0.00    -0.200 F 
ATOM      3  F   UNL     1      32.560 -22.886 -17.365  0.00  0.00    -0.203 F 
ATOM      4  C   UNL     1      34.945 -24.182 -14.947  0.00  0.00    +0.089 C 
ATOM      5  C   UNL     1      32.201 -23.735 -15.176  0.00  0.00    +0.110 C 
ATOM      6  C   UNL     1      34.095 -24.504 -13.889  0.00  0.00    +0.182 C 
ATOM      7  C   UNL     1      34.423 -23.636 -16.120  0.00  0.00    +0.048 C 
ATOM      8  C   UNL     1      32.723 -24.281 -14.004  0.00  0.00    +0.184 C 
ATOM      9  C   UNL     1      33.051 -23.412 -16.233  0.00  0.00    +0.157 C 
ENDROOT
BRANCH   5  11
ATOM     10  O   UNL     1      26.793 -22.840 -15.535  0.00  0.00    -0.291 OA
ATOM     11  N   UNL     1      30.805 -23.505 -15.291  0.00  0.00    -0.282 N 
ATOM     12  C   UNL     1      30.310 -22.154 -14.972  0.00  0.00    +0.104 C 
ATOM     13  C   UNL     1      28.862 -22.204 -14.487  0.00  0.00    +0.091 C 
ATOM     14  C   UNL     1      29.927 -24.420 -15.854  0.00  0.00    +0.068 C 
ATOM     15  C   UNL     1      27.989 -23.070 -15.371  0.00  0.00    +0.176 C 
ATOM     16  C   UNL     1      28.603 -24.278 -15.968  0.00  0.00    +0.054 C 
ENDBRANCH   5  11
BRANCH   4  19
ATOM     17  O   UNL     1      38.576 -24.091 -14.700  0.00  0.00    -0.434 OA
ATOM     18  O   UNL     1      37.286 -22.240 -14.920  0.00  0.00    -0.226 OA
ATOM     19  N   UNL     1      36.346 -24.409 -14.834  0.00  0.00    -0.219 N 
ATOM     20  C   UNL     1      38.354 -25.475 -14.398  0.00  0.00    +0.210 C 
ATOM     21  C   UNL     1      36.923 -25.727 -14.824  0.00  0.00    +0.147 C 
ATOM     22  C   UNL     1      37.361 -23.456 -14.820  0.00  0.00    +0.409 C 
BRANCH  20  23
ATOM     23  C   UNL     1      38.582 -25.696 -12.908  0.00  0.00    +0.134 C 
BRANCH  23  25
ATOM     24  O   UNL     1      35.548 -25.316  -9.861  0.00  0.00    -0.349 OA
ATOM     25  N   UNL     1      38.100 -24.562 -12.163  0.00  0.00    -0.312 N 
ATOM     26  N   UNL     1      36.444 -25.739 -10.835  0.00  0.00    -0.062 NA
ATOM     27  C   UNL     1      37.099 -24.635 -11.206  0.00  0.00    +0.171 C 
ATOM     28  C   UNL     1      36.663 -23.497 -10.507  0.00  0.00    +0.081 C 
ATOM     29  C   UNL     1      35.688 -23.978  -9.674  0.00  0.00    +0.215 C 
ATOM     30  H   UNL     1      38.504 -23.682 -12.346  0.00  0.00    +0.148 HD
ENDBRANCH  23  25
ENDBRANCH  20  23
ENDBRANCH   4  19
TORSDOF 4
ENDMDL
MODEL 9
REMARK VINA RESULT:     -11.3      2.418      4.095
REMARK  Name = 25184541
REMARK  4 active torsions:
REMARK  status: ('A' for Active; 'I' for Inactive)
REMARK    1  A    between atoms: C_4  and  N_19
REMARK    2  A    between atoms: C_5  and  N_11
REMARK    3  A    between atoms: C_20  and  C_23
REMARK    4  A    between atoms: C_23  and  N_25
REMARK                            x       y       z     vdW  Elec       q    Type
REMARK                         _______ _______ _______ _____ _____    ______ ____
ROOT
ATOM      1  F   UNL     1      36.924 -21.671 -18.199  0.00  0.00    -0.200 F 
ATOM      2  F   UNL     1      37.113 -19.954 -20.296  0.00  0.00    -0.200 F 
ATOM      3  F   UNL     1      32.390 -20.050 -20.798  0.00  0.00    -0.203 F 
ATOM      4  C   UNL     1      34.560 -21.741 -18.422  0.00  0.00    +0.089 C 
ATOM      5  C   UNL     1      34.754 -19.980 -20.576  0.00  0.00    +0.110 C 
ATOM      6  C   UNL     1      35.810 -21.277 -18.833  0.00  0.00    +0.182 C 
ATOM      7  C   UNL     1      33.408 -21.324 -19.087  0.00  0.00    +0.048 C 
ATOM      8  C   UNL     1      35.906 -20.396 -19.910  0.00  0.00    +0.184 C 
ATOM      9  C   UNL     1      33.505 -20.444 -20.164  0.00  0.00    +0.157 C 
ENDROOT
BRANCH   5  11
ATOM     10  O   UNL     1      35.076 -16.466 -24.786  0.00  0.00    -0.291 OA
ATOM     11  N   UNL     1      34.853 -19.086 -21.674  0.00  0.00    -0.282 N 
ATOM     12  C   UNL     1      35.544 -17.804 -21.447  0.00  0.00    +0.104 C 
ATOM     13  C   UNL     1      35.021 -16.726 -22.396  0.00  0.00    +0.091 C 
ATOM     14  C   UNL     1      34.497 -19.430 -22.970  0.00  0.00    +0.068 C 
ATOM     15  C   UNL     1      34.923 -17.217 -23.825  0.00  0.00    +0.176 C 
ATOM     16  C   UNL     1      34.538 -18.631 -24.040  0.00  0.00    +0.054 C 
ENDBRANCH   5  11
BRANCH   4  19
ATOM     17  O   UNL     1      34.079 -24.480 -16.071  0.00  0.00    -0.434 OA
ATOM     18  O   UNL     1      33.645 -24.640 -18.292  0.00  0.00    -0.226 OA
ATOM     19  N   UNL     1      34.458 -22.640 -17.322  0.00  0.00    -0.219 N 
ATOM     20  C   UNL     1      34.759 -23.552 -15.216  0.00  0.00    +0.210 C 
ATOM     21  C   UNL     1      34.692 -22.236 -15.961  0.00  0.00    +0.147 C 
ATOM     22  C   UNL     1      34.036 -23.966 -17.348  0.00  0.00    +0.409 C 
BRANCH  20  23
ATOM     23  C   UNL     1      36.184 -24.042 -14.993  0.00  0.00    +0.134 C 
BRANCH  23  25
ATOM     24  O   UNL     1      35.329 -24.924 -10.855  0.00  0.00    -0.349 OA
ATOM     25  N   UNL     1      36.704 -23.500 -13.764  0.00  0.00    -0.312 N 
ATOM     26  N   UNL     1      35.392 -24.861 -12.241  0.00  0.00    -0.062 NA
ATOM     27  C   UNL     1      36.300 -23.917 -12.504  0.00  0.00    +0.171 C 
ATOM     28  C   UNL     1      36.838 -23.354 -11.335  0.00  0.00    +0.081 C 
ATOM     29  C   UNL     1      36.195 -24.022 -10.326  0.00  0.00    +0.215 C 
ATOM     30  H   UNL     1      37.384 -22.790 -13.822  0.00  0.00    +0.148 HD
ENDBRANCH  23  25
ENDBRANCH  20  23
ENDBRANCH   4  19
TORSDOF 4
ENDMDL
