MODEL 1
REMARK VINA RESULT:     -11.6      0.000      0.000
REMARK  Name = 97226
REMARK  3 active torsions:
REMARK  status: ('A' for Active; 'I' for Inactive)
REMARK    1  A    between atoms: C_6  and  O_24
REMARK    2  A    between atoms: C_6  and  C_28
REMARK    3  A    between atoms: C_22  and  O_26
REMARK                            x       y       z     vdW  Elec       q    Type
REMARK                         _______ _______ _______ _____ _____    ______ ____
ROOT
ATOM      1  O   UNL     1      35.797 -25.480 -13.570  0.00  0.00    -0.442 OA
ATOM      2  O   UNL     1      32.651 -24.051 -16.014  0.00  0.00    -0.270 OA
ATOM      3  O   UNL     1      38.023 -25.743 -13.443  0.00  0.00    -0.247 OA
ATOM      4  N   UNL     1      34.113 -22.715 -17.207  0.00  0.00    -0.249 N 
ATOM      5  N   UNL     1      36.389 -20.603 -19.025  0.00  0.00    -0.405 NA
ATOM      6  C   UNL     1      37.237 -23.703 -14.468  0.00  0.00    +0.196 C 
ATOM      7  C   UNL     1      36.128 -23.390 -15.435  0.00  0.00    +0.017 C 
ATOM      8  C   UNL     1      35.380 -22.179 -17.372  0.00  0.00    +0.084 C 
ATOM      9  C   UNL     1      34.904 -23.913 -15.244  0.00  0.00    +0.074 C 
ATOM     10  C   UNL     1      33.191 -22.230 -18.254  0.00  0.00    +0.128 C 
ATOM     11  C   UNL     1      36.380 -22.473 -16.537  0.00  0.00    +0.016 C 
ATOM     12  C   UNL     1      34.073 -21.334 -19.061  0.00  0.00    +0.029 C 
ATOM     13  C   UNL     1      35.358 -21.307 -18.538  0.00  0.00    +0.142 C 
ATOM     14  C   UNL     1      33.773 -23.579 -16.182  0.00  0.00    +0.252 C 
ATOM     15  C   UNL     1      34.624 -24.823 -14.098  0.00  0.00    +0.239 C 
ATOM     16  C   UNL     1      37.064 -25.062 -13.802  0.00  0.00    +0.346 C 
ATOM     17  C   UNL     1      33.804 -20.580 -20.179  0.00  0.00    +0.002 C 
ATOM     18  C   UNL     1      34.847 -19.821 -20.733  0.00  0.00    +0.029 C 
ATOM     19  C   UNL     1      36.132 -19.862 -20.121  0.00  0.00    +0.114 C 
ATOM     20  C   UNL     1      34.636 -19.031 -21.874  0.00  0.00    +0.038 C 
ATOM     21  C   UNL     1      37.150 -19.101 -20.689  0.00  0.00    +0.088 C 
ATOM     22  C   UNL     1      35.677 -18.282 -22.417  0.00  0.00    +0.130 C 
ATOM     23  C   UNL     1      36.932 -18.317 -21.825  0.00  0.00    +0.018 C 
ENDROOT
BRANCH   6  24
ATOM     24  O   UNL     1      38.476 -23.806 -15.174  0.00  0.00    -0.373 OA
ATOM     25  H   UNL     1      39.198 -23.489 -14.608  0.00  0.00    +0.211 HD
ENDBRANCH   6  24
BRANCH  22  26
ATOM     26  O   UNL     1      35.465 -17.519 -23.523  0.00  0.00    -0.506 OA
ATOM     27  H   UNL     1      35.966 -17.672 -24.300  0.00  0.00    +0.292 HD
ENDBRANCH  22  26
BRANCH   6  28
ATOM     28  C   UNL     1      37.368 -22.626 -13.390  0.00  0.00    +0.042 C 
ATOM     29  C   UNL     1      37.187 -23.210 -12.004  0.00  0.00    +0.003 C 
ENDBRANCH   6  28
TORSDOF 3
ENDMDL
MODEL 2
REMARK VINA RESULT:      -9.7      2.240      4.345
REMARK  Name = 97226
REMARK  3 active torsions:
REMARK  status: ('A' for Active; 'I' for Inactive)
REMARK    1  A    between atoms: C_6  and  O_24
REMARK    2  A    between atoms: C_6  and  C_28
REMARK    3  A    between atoms: C_22  and  O_26
REMARK                            x       y       z     vdW  Elec       q    Type
REMARK                         _______ _______ _______ _____ _____    ______ ____
ROOT
ATOM      1  O   UNL     1      31.978 -24.889 -12.498  0.00  0.00    -0.442 OA
ATOM      2  O   UNL     1      35.829 -24.346 -14.169  0.00  0.00    -0.270 OA
ATOM      3  O   UNL     1      29.879 -24.092 -12.474  0.00  0.00    -0.247 OA
ATOM      4  N   UNL     1      34.949 -23.156 -15.945  0.00  0.00    -0.249 N 
ATOM      5  N   UNL     1      33.564 -21.348 -18.730  0.00  0.00    -0.405 NA
ATOM      6  C   UNL     1      31.004 -24.098 -14.612  0.00  0.00    +0.196 C 
ATOM      7  C   UNL     1      32.402 -23.757 -15.048  0.00  0.00    +0.017 C 
ATOM      8  C   UNL     1      33.848 -22.701 -16.651  0.00  0.00    +0.084 C 
ATOM      9  C   UNL     1      33.455 -24.224 -14.352  0.00  0.00    +0.074 C 
ATOM     10  C   UNL     1      36.208 -22.727 -16.590  0.00  0.00    +0.128 C 
ATOM     11  C   UNL     1      32.602 -22.972 -16.257  0.00  0.00    +0.016 C 
ATOM     12  C   UNL     1      35.711 -21.960 -17.771  0.00  0.00    +0.029 C 
ATOM     13  C   UNL     1      34.324 -21.948 -17.803  0.00  0.00    +0.142 C 
ATOM     14  C   UNL     1      34.862 -23.923 -14.797  0.00  0.00    +0.252 C 
ATOM     15  C   UNL     1      33.264 -25.061 -13.133  0.00  0.00    +0.239 C 
ATOM     16  C   UNL     1      30.903 -24.339 -13.110  0.00  0.00    +0.346 C 
ATOM     17  C   UNL     1      36.395 -21.306 -18.768  0.00  0.00    +0.002 C 
ATOM     18  C   UNL     1      35.652 -20.659 -19.768  0.00  0.00    +0.029 C 
ATOM     19  C   UNL     1      34.230 -20.705 -19.711  0.00  0.00    +0.114 C 
ATOM     20  C   UNL     1      36.292 -19.974 -20.814  0.00  0.00    +0.038 C 
ATOM     21  C   UNL     1      33.515 -20.056 -20.714  0.00  0.00    +0.088 C 
ATOM     22  C   UNL     1      35.546 -19.335 -21.801  0.00  0.00    +0.130 C 
ATOM     23  C   UNL     1      34.159 -19.376 -21.750  0.00  0.00    +0.018 C 
ENDROOT
BRANCH   6  24
ATOM     24  O   UNL     1      30.139 -22.986 -14.855  0.00  0.00    -0.373 OA
ATOM     25  H   UNL     1      29.348 -23.065 -14.298  0.00  0.00    +0.211 HD
ENDBRANCH   6  24
BRANCH  22  26
ATOM     26  O   UNL     1      36.173 -18.672 -22.809  0.00  0.00    -0.506 OA
ATOM     27  H   UNL     1      36.565 -19.152 -23.512  0.00  0.00    +0.292 HD
ENDBRANCH  22  26
BRANCH   6  28
ATOM     28  C   UNL     1      30.461 -25.321 -15.355  0.00  0.00    +0.042 C 
ATOM     29  C   UNL     1      29.074 -25.059 -15.905  0.00  0.00    +0.003 C 
ENDBRANCH   6  28
TORSDOF 3
ENDMDL
MODEL 3
REMARK VINA RESULT:      -8.9     12.096     17.974
REMARK  Name = 97226
REMARK  3 active torsions:
REMARK  status: ('A' for Active; 'I' for Inactive)
REMARK    1  A    between atoms: C_6  and  O_24
REMARK    2  A    between atoms: C_6  and  C_28
REMARK    3  A    between atoms: C_22  and  O_26
REMARK                            x       y       z     vdW  Elec       q    Type
REMARK                         _______ _______ _______ _____ _____    ______ ____
ROOT
ATOM      1  O   UNL     1      33.767  -2.706 -25.918  0.00  0.00    -0.442 OA
ATOM      2  O   UNL     1      31.422  -3.978 -22.632  0.00  0.00    -0.270 OA
ATOM      3  O   UNL     1      35.486  -3.269 -27.249  0.00  0.00    -0.247 OA
ATOM      4  N   UNL     1      32.035  -6.180 -22.978  0.00  0.00    -0.249 N 
ATOM      5  N   UNL     1      32.956  -9.610 -23.556  0.00  0.00    -0.405 NA
ATOM      6  C   UNL     1      33.997  -5.056 -26.600  0.00  0.00    +0.196 C 
ATOM      7  C   UNL     1      33.322  -5.425 -25.308  0.00  0.00    +0.017 C 
ATOM      8  C   UNL     1      32.666  -7.138 -23.754  0.00  0.00    +0.084 C 
ATOM      9  C   UNL     1      32.704  -4.477 -24.580  0.00  0.00    +0.074 C 
ATOM     10  C   UNL     1      31.413  -6.790 -21.785  0.00  0.00    +0.128 C 
ATOM     11  C   UNL     1      33.295  -6.818 -24.888  0.00  0.00    +0.016 C 
ATOM     12  C   UNL     1      31.756  -8.234 -21.953  0.00  0.00    +0.029 C 
ATOM     13  C   UNL     1      32.491  -8.433 -23.113  0.00  0.00    +0.142 C 
ATOM     14  C   UNL     1      31.991  -4.837 -23.302  0.00  0.00    +0.252 C 
ATOM     15  C   UNL     1      32.692  -3.053 -25.018  0.00  0.00    +0.239 C 
ATOM     16  C   UNL     1      34.494  -3.616 -26.609  0.00  0.00    +0.346 C 
ATOM     17  C   UNL     1      31.461  -9.324 -21.169  0.00  0.00    +0.002 C 
ATOM     18  C   UNL     1      31.921 -10.584 -21.584  0.00  0.00    +0.029 C 
ATOM     19  C   UNL     1      32.670 -10.682 -22.791  0.00  0.00    +0.114 C 
ATOM     20  C   UNL     1      31.653 -11.735 -20.826  0.00  0.00    +0.038 C 
ATOM     21  C   UNL     1      33.116 -11.942 -23.181  0.00  0.00    +0.088 C 
ATOM     22  C   UNL     1      32.114 -12.980 -21.246  0.00  0.00    +0.130 C 
ATOM     23  C   UNL     1      32.845 -13.083 -22.422  0.00  0.00    +0.018 C 
ENDROOT
BRANCH   6  24
ATOM     24  O   UNL     1      35.179  -5.844 -26.767  0.00  0.00    -0.373 OA
ATOM     25  H   UNL     1      35.857  -5.316 -27.219  0.00  0.00    +0.211 HD
ENDBRANCH   6  24
BRANCH  22  26
ATOM     26  O   UNL     1      31.851 -14.091 -20.506  0.00  0.00    -0.506 OA
ATOM     27  H   UNL     1      31.284 -14.755 -20.844  0.00  0.00    +0.292 HD
ENDBRANCH  22  26
BRANCH   6  28
ATOM     28  C   UNL     1      33.078  -5.279 -27.803  0.00  0.00    +0.042 C 
ATOM     29  C   UNL     1      33.677  -6.273 -28.776  0.00  0.00    +0.003 C 
ENDBRANCH   6  28
TORSDOF 3
ENDMDL
