MODEL 1
REMARK VINA RESULT:     -11.9      0.000      0.000
REMARK  Name = 11610553
REMARK  5 active torsions:
REMARK  status: ('A' for Active; 'I' for Inactive)
REMARK    1  A    between atoms: C_1  and  C_9
REMARK    2  A    between atoms: C_4  and  O_19
REMARK    3  A    between atoms: C_10  and  C_14
REMARK    4  A    between atoms: O_19  and  C_20
REMARK    5  A    between atoms: C_20  and  C_22
REMARK                            x       y       z     vdW  Elec       q    Type
REMARK                         _______ _______ _______ _____ _____    ______ ____
ROOT
ATOM      1  C   UNL     1      34.583 -22.917 -16.027  0.00  0.00    +0.015 C 
ATOM      2  C   UNL     1      35.870 -22.410 -16.211  0.00  0.00    +0.004 C 
ATOM      3  C   UNL     1      33.682 -22.935 -17.091  0.00  0.00    +0.004 C 
ATOM      4  C   UNL     1      35.350 -21.940 -18.515  0.00  0.00    +0.139 C 
ATOM      5  C   UNL     1      36.254 -21.920 -17.459  0.00  0.00    +0.037 C 
ATOM      6  C   UNL     1      34.065 -22.445 -18.339  0.00  0.00    +0.037 C 
ENDROOT
BRANCH   1   9
ATOM      7  N   UNL     1      33.020 -23.046 -14.135  0.00  0.00    -0.236 N 
ATOM      8  N   UNL     1      32.816 -23.620 -12.937  0.00  0.00    -0.180 NA
ATOM      9  C   UNL     1      34.186 -23.424 -14.736  0.00  0.00    +0.067 C 
ATOM     10  C   UNL     1      34.786 -24.306 -13.870  0.00  0.00    +0.036 C 
ATOM     11  C   UNL     1      33.898 -24.388 -12.780  0.00  0.00    +0.119 C 
ATOM     12  H   UNL     1      32.387 -22.413 -14.543  0.00  0.00    +0.174 HD
BRANCH  10  14
ATOM     13  N   UNL     1      38.493 -26.232 -14.537  0.00  0.00    -0.242 NA
ATOM     14  C   UNL     1      36.040 -24.957 -14.096  0.00  0.00    +0.006 C 
ATOM     15  C   UNL     1      37.228 -24.353 -13.692  0.00  0.00    +0.021 C 
ATOM     16  C   UNL     1      36.083 -26.201 -14.721  0.00  0.00    +0.021 C 
ATOM     17  C   UNL     1      38.416 -25.024 -13.933  0.00  0.00    +0.099 C 
ATOM     18  C   UNL     1      37.322 -26.789 -14.917  0.00  0.00    +0.099 C 
ENDBRANCH  10  14
ENDBRANCH   1   9
BRANCH   4  19
ATOM     19  O   UNL     1      35.727 -21.459 -19.741  0.00  0.00    -0.468 OA
BRANCH  19  20
ATOM     20  C   UNL     1      36.273 -20.147 -19.774  0.00  0.00    +0.264 C 
BRANCH  20  22
ATOM     21  N   UNL     1      35.755 -18.079 -20.920  0.00  0.00    -0.406 NA
ATOM     22  C   UNL     1      35.771 -19.430 -20.982  0.00  0.00    +0.152 C 
ATOM     23  C   UNL     1      34.858 -18.055 -23.157  0.00  0.00    +0.026 C 
ATOM     24  C   UNL     1      35.306 -17.398 -21.991  0.00  0.00    +0.113 C 
ATOM     25  C   UNL     1      35.353 -20.159 -22.077  0.00  0.00    +0.031 C 
ATOM     26  C   UNL     1      34.891 -19.455 -23.179  0.00  0.00    +0.005 C 
ATOM     27  C   UNL     1      34.396 -17.312 -24.257  0.00  0.00    +0.002 C 
ATOM     28  C   UNL     1      35.273 -16.006 -21.971  0.00  0.00    +0.085 C 
ATOM     29  C   UNL     1      34.374 -15.921 -24.209  0.00  0.00    -0.004 C 
ATOM     30  C   UNL     1      34.813 -15.268 -23.064  0.00  0.00    -0.019 C 
ENDBRANCH  20  22
ENDBRANCH  19  20
ENDBRANCH   4  19
TORSDOF 5
ENDMDL
MODEL 2
REMARK VINA RESULT:     -11.7      2.255      3.494
REMARK  Name = 11610553
REMARK  5 active torsions:
REMARK  status: ('A' for Active; 'I' for Inactive)
REMARK    1  A    between atoms: C_1  and  C_9
REMARK    2  A    between atoms: C_4  and  O_19
REMARK    3  A    between atoms: C_10  and  C_14
REMARK    4  A    between atoms: O_19  and  C_20
REMARK    5  A    between atoms: C_20  and  C_22
REMARK                            x       y       z     vdW  Elec       q    Type
REMARK                         _______ _______ _______ _____ _____    ______ ____
ROOT
ATOM      1  C   UNL     1      34.821 -23.873 -13.262  0.00  0.00    +0.015 C 
ATOM      2  C   UNL     1      33.497 -24.218 -13.530  0.00  0.00    +0.004 C 
ATOM      3  C   UNL     1      35.565 -23.171 -14.210  0.00  0.00    +0.004 C 
ATOM      4  C   UNL     1      33.664 -23.163 -15.688  0.00  0.00    +0.139 C 
ATOM      5  C   UNL     1      32.917 -23.862 -14.748  0.00  0.00    +0.037 C 
ATOM      6  C   UNL     1      34.986 -22.815 -15.427  0.00  0.00    +0.037 C 
ENDROOT
BRANCH   1   9
ATOM      7  N   UNL     1      34.874 -23.884 -10.805  0.00  0.00    -0.236 N 
ATOM      8  N   UNL     1      35.570 -24.316  -9.740  0.00  0.00    -0.180 NA
ATOM      9  C   UNL     1      35.422 -24.242 -12.003  0.00  0.00    +0.067 C 
ATOM     10  C   UNL     1      36.555 -24.957 -11.699  0.00  0.00    +0.036 C 
ATOM     11  C   UNL     1      36.595 -24.970 -10.292  0.00  0.00    +0.119 C 
ATOM     12  H   UNL     1      34.046 -23.359 -10.729  0.00  0.00    +0.174 HD
BRANCH  10  14
ATOM     13  N   UNL     1      39.195 -26.656 -14.536  0.00  0.00    -0.242 NA
ATOM     14  C   UNL     1      37.448 -25.531 -12.659  0.00  0.00    +0.006 C 
ATOM     15  C   UNL     1      38.765 -25.088 -12.745  0.00  0.00    +0.021 C 
ATOM     16  C   UNL     1      37.007 -26.538 -13.514  0.00  0.00    +0.021 C 
ATOM     17  C   UNL     1      39.590 -25.676 -13.691  0.00  0.00    +0.099 C 
ATOM     18  C   UNL     1      37.910 -27.061 -14.425  0.00  0.00    +0.099 C 
ENDBRANCH  10  14
ENDBRANCH   1   9
BRANCH   4  19
ATOM     19  O   UNL     1      33.094 -22.813 -16.884  0.00  0.00    -0.468 OA
BRANCH  19  20
ATOM     20  C   UNL     1      33.781 -23.212 -18.063  0.00  0.00    +0.264 C 
BRANCH  20  22
ATOM     21  N   UNL     1      35.337 -21.642 -19.046  0.00  0.00    -0.406 NA
ATOM     22  C   UNL     1      34.044 -22.015 -18.913  0.00  0.00    +0.152 C 
ATOM     23  C   UNL     1      34.599 -19.829 -20.453  0.00  0.00    +0.026 C 
ATOM     24  C   UNL     1      35.614 -20.564 -19.805  0.00  0.00    +0.113 C 
ATOM     25  C   UNL     1      32.985 -21.359 -19.507  0.00  0.00    +0.031 C 
ATOM     26  C   UNL     1      33.273 -20.250 -20.288  0.00  0.00    +0.005 C 
ATOM     27  C   UNL     1      34.924 -18.709 -21.237  0.00  0.00    +0.002 C 
ATOM     28  C   UNL     1      36.932 -20.146 -19.970  0.00  0.00    +0.085 C 
ATOM     29  C   UNL     1      36.250 -18.313 -21.384  0.00  0.00    -0.004 C 
ATOM     30  C   UNL     1      37.255 -19.032 -20.750  0.00  0.00    -0.019 C 
ENDBRANCH  20  22
ENDBRANCH  19  20
ENDBRANCH   4  19
TORSDOF 5
ENDMDL
MODEL 3
REMARK VINA RESULT:     -11.5      1.678      2.617
REMARK  Name = 11610553
REMARK  5 active torsions:
REMARK  status: ('A' for Active; 'I' for Inactive)
REMARK    1  A    between atoms: C_1  and  C_9
REMARK    2  A    between atoms: C_4  and  O_19
REMARK    3  A    between atoms: C_10  and  C_14
REMARK    4  A    between atoms: O_19  and  C_20
REMARK    5  A    between atoms: C_20  and  C_22
REMARK                            x       y       z     vdW  Elec       q    Type
REMARK                         _______ _______ _______ _____ _____    ______ ____
ROOT
ATOM      1  C   UNL     1      33.460 -22.162 -17.977  0.00  0.00    +0.015 C 
ATOM      2  C   UNL     1      34.806 -22.422 -18.231  0.00  0.00    +0.004 C 
ATOM      3  C   UNL     1      32.754 -21.279 -18.794  0.00  0.00    +0.004 C 
ATOM      4  C   UNL     1      34.737 -20.918 -20.110  0.00  0.00    +0.139 C 
ATOM      5  C   UNL     1      35.447 -21.797 -19.302  0.00  0.00    +0.037 C 
ATOM      6  C   UNL     1      33.394 -20.654 -19.863  0.00  0.00    +0.037 C 
ENDROOT
BRANCH   1   9
ATOM      7  N   UNL     1      31.440 -22.932 -16.809  0.00  0.00    -0.236 N 
ATOM      8  N   UNL     1      31.002 -23.561 -15.705  0.00  0.00    -0.180 NA
ATOM      9  C   UNL     1      32.797 -22.808 -16.870  0.00  0.00    +0.067 C 
ATOM     10  C   UNL     1      33.280 -23.397 -15.726  0.00  0.00    +0.036 C 
ATOM     11  C   UNL     1      32.130 -23.843 -15.048  0.00  0.00    +0.119 C 
ATOM     12  H   UNL     1      30.838 -22.593 -17.509  0.00  0.00    +0.174 HD
BRANCH  10  14
ATOM     13  N   UNL     1      37.370 -23.690 -14.684  0.00  0.00    -0.242 NA
ATOM     14  C   UNL     1      34.664 -23.496 -15.373  0.00  0.00    +0.006 C 
ATOM     15  C   UNL     1      35.218 -24.730 -15.045  0.00  0.00    +0.021 C 
ATOM     16  C   UNL     1      35.468 -22.359 -15.357  0.00  0.00    +0.021 C 
ATOM     17  C   UNL     1      36.562 -24.774 -14.711  0.00  0.00    +0.099 C 
ATOM     18  C   UNL     1      36.801 -22.508 -15.008  0.00  0.00    +0.099 C 
ENDBRANCH  10  14
ENDBRANCH   1   9
BRANCH   4  19
ATOM     19  O   UNL     1      35.366 -20.304 -21.162  0.00  0.00    -0.468 OA
BRANCH  19  20
ATOM     20  C   UNL     1      36.221 -19.213 -20.849  0.00  0.00    +0.264 C 
BRANCH  20  22
ATOM     21  N   UNL     1      35.306 -16.985 -20.605  0.00  0.00    -0.406 NA
ATOM     22  C   UNL     1      35.677 -17.965 -21.460  0.00  0.00    +0.152 C 
ATOM     23  C   UNL     1      34.668 -15.656 -22.510  0.00  0.00    +0.026 C 
ATOM     24  C   UNL     1      34.808 -15.845 -21.119  0.00  0.00    +0.113 C 
ATOM     25  C   UNL     1      35.576 -17.872 -22.833  0.00  0.00    +0.031 C 
ATOM     26  C   UNL     1      35.063 -16.696 -23.361  0.00  0.00    +0.005 C 
ATOM     27  C   UNL     1      34.144 -14.453 -23.013  0.00  0.00    +0.002 C 
ATOM     28  C   UNL     1      34.416 -14.810 -20.275  0.00  0.00    +0.085 C 
ATOM     29  C   UNL     1      33.759 -13.434 -22.146  0.00  0.00    -0.004 C 
ATOM     30  C   UNL     1      33.895 -13.614 -20.775  0.00  0.00    -0.019 C 
ENDBRANCH  20  22
ENDBRANCH  19  20
ENDBRANCH   4  19
TORSDOF 5
ENDMDL
MODEL 4
REMARK VINA RESULT:     -11.4      0.939      1.926
REMARK  Name = 11610553
REMARK  5 active torsions:
REMARK  status: ('A' for Active; 'I' for Inactive)
REMARK    1  A    between atoms: C_1  and  C_9
REMARK    2  A    between atoms: C_4  and  O_19
REMARK    3  A    between atoms: C_10  and  C_14
REMARK    4  A    between atoms: O_19  and  C_20
REMARK    5  A    between atoms: C_20  and  C_22
REMARK                            x       y       z     vdW  Elec       q    Type
REMARK                         _______ _______ _______ _____ _____    ______ ____
ROOT
ATOM      1  C   UNL     1      35.171 -22.914 -15.522  0.00  0.00    +0.015 C 
ATOM      2  C   UNL     1      34.322 -22.957 -16.627  0.00  0.00    +0.004 C 
ATOM      3  C   UNL     1      36.429 -22.322 -15.631  0.00  0.00    +0.004 C 
ATOM      4  C   UNL     1      35.987 -21.819 -17.944  0.00  0.00    +0.139 C 
ATOM      5  C   UNL     1      34.731 -22.407 -17.842  0.00  0.00    +0.037 C 
ATOM      6  C   UNL     1      36.839 -21.773 -16.845  0.00  0.00    +0.037 C 
ENDROOT
BRANCH   1   9
ATOM      7  N   UNL     1      33.611 -23.074 -13.630  0.00  0.00    -0.236 N 
ATOM      8  N   UNL     1      33.376 -23.716 -12.472  0.00  0.00    -0.180 NA
ATOM      9  C   UNL     1      34.748 -23.482 -14.265  0.00  0.00    +0.067 C 
ATOM     10  C   UNL     1      35.294 -24.459 -13.467  0.00  0.00    +0.036 C 
ATOM     11  C   UNL     1      34.407 -24.559 -12.378  0.00  0.00    +0.119 C 
ATOM     12  H   UNL     1      33.018 -22.376 -13.987  0.00  0.00    +0.174 HD
BRANCH  10  14
ATOM     13  N   UNL     1      38.869 -26.562 -14.302  0.00  0.00    -0.242 NA
ATOM     14  C   UNL     1      36.504 -25.171 -13.749  0.00  0.00    +0.006 C 
ATOM     15  C   UNL     1      36.484 -26.282 -14.588  0.00  0.00    +0.021 C 
ATOM     16  C   UNL     1      37.709 -24.758 -13.188  0.00  0.00    +0.021 C 
ATOM     17  C   UNL     1      37.681 -26.936 -14.830  0.00  0.00    +0.099 C 
ATOM     18  C   UNL     1      38.851 -25.481 -13.492  0.00  0.00    +0.099 C 
ENDBRANCH  10  14
ENDBRANCH   1   9
BRANCH   4  19
ATOM     19  O   UNL     1      36.389 -21.280 -19.137  0.00  0.00    -0.468 OA
BRANCH  19  20
ATOM     20  C   UNL     1      35.473 -21.366 -20.221  0.00  0.00    +0.264 C 
BRANCH  20  22
ATOM     21  N   UNL     1      34.789 -20.058 -22.138  0.00  0.00    -0.406 NA
ATOM     22  C   UNL     1      35.461 -20.073 -20.965  0.00  0.00    +0.152 C 
ATOM     23  C   UNL     1      35.402 -17.740 -22.382  0.00  0.00    +0.026 C 
ATOM     24  C   UNL     1      34.758 -18.909 -22.840  0.00  0.00    +0.113 C 
ATOM     25  C   UNL     1      36.121 -18.982 -20.437  0.00  0.00    +0.031 C 
ATOM     26  C   UNL     1      36.088 -17.800 -21.162  0.00  0.00    +0.005 C 
ATOM     27  C   UNL     1      35.349 -16.558 -23.140  0.00  0.00    +0.002 C 
ATOM     28  C   UNL     1      34.076 -18.848 -24.052  0.00  0.00    +0.085 C 
ATOM     29  C   UNL     1      34.661 -16.526 -24.349  0.00  0.00    -0.004 C 
ATOM     30  C   UNL     1      34.024 -17.673 -24.805  0.00  0.00    -0.019 C 
ENDBRANCH  20  22
ENDBRANCH  19  20
ENDBRANCH   4  19
TORSDOF 5
ENDMDL
MODEL 5
REMARK VINA RESULT:     -11.1      2.423      4.330
REMARK  Name = 11610553
REMARK  5 active torsions:
REMARK  status: ('A' for Active; 'I' for Inactive)
REMARK    1  A    between atoms: C_1  and  C_9
REMARK    2  A    between atoms: C_4  and  O_19
REMARK    3  A    between atoms: C_10  and  C_14
REMARK    4  A    between atoms: O_19  and  C_20
REMARK    5  A    between atoms: C_20  and  C_22
REMARK                            x       y       z     vdW  Elec       q    Type
REMARK                         _______ _______ _______ _____ _____    ______ ____
ROOT
ATOM      1  C   UNL     1      36.938 -24.193 -14.908  0.00  0.00    +0.015 C 
ATOM      2  C   UNL     1      35.708 -24.850 -14.875  0.00  0.00    +0.004 C 
ATOM      3  C   UNL     1      37.052 -22.958 -15.546  0.00  0.00    +0.004 C 
ATOM      4  C   UNL     1      34.714 -23.040 -16.114  0.00  0.00    +0.139 C 
ATOM      5  C   UNL     1      34.592 -24.271 -15.480  0.00  0.00    +0.037 C 
ATOM      6  C   UNL     1      35.937 -22.379 -16.151  0.00  0.00    +0.037 C 
ENDROOT
BRANCH   1   9
ATOM      7  N   UNL     1      39.125 -25.308 -15.009  0.00  0.00    -0.236 N 
ATOM      8  N   UNL     1      40.113 -25.824 -14.258  0.00  0.00    -0.180 NA
ATOM      9  C   UNL     1      38.091 -24.792 -14.283  0.00  0.00    +0.067 C 
ATOM     10  C   UNL     1      38.427 -24.984 -12.964  0.00  0.00    +0.036 C 
ATOM     11  C   UNL     1      39.681 -25.623 -13.010  0.00  0.00    +0.119 C 
ATOM     12  H   UNL     1      39.145 -25.302 -15.993  0.00  0.00    +0.174 HD
BRANCH  10  14
ATOM     13  N   UNL     1      36.056 -23.827  -9.656  0.00  0.00    -0.242 NA
ATOM     14  C   UNL     1      37.624 -24.593 -11.845  0.00  0.00    +0.006 C 
ATOM     15  C   UNL     1      36.691 -25.475 -11.308  0.00  0.00    +0.021 C 
ATOM     16  C   UNL     1      37.771 -23.327 -11.284  0.00  0.00    +0.021 C 
ATOM     17  C   UNL     1      35.939 -25.049 -10.225  0.00  0.00    +0.099 C 
ATOM     18  C   UNL     1      36.971 -22.996 -10.203  0.00  0.00    +0.099 C 
ENDBRANCH  10  14
ENDBRANCH   1   9
BRANCH   4  19
ATOM     19  O   UNL     1      33.618 -22.471 -16.708  0.00  0.00    -0.468 OA
BRANCH  19  20
ATOM     20  C   UNL     1      33.349 -22.849 -18.052  0.00  0.00    +0.264 C 
BRANCH  20  22
ATOM     21  N   UNL     1      35.065 -21.483 -19.076  0.00  0.00    -0.406 NA
ATOM     22  C   UNL     1      33.741 -21.738 -18.968  0.00  0.00    +0.152 C 
ATOM     23  C   UNL     1      34.529 -19.715 -20.623  0.00  0.00    +0.026 C 
ATOM     24  C   UNL     1      35.457 -20.486 -19.891  0.00  0.00    +0.113 C 
ATOM     25  C   UNL     1      32.761 -21.038 -19.642  0.00  0.00    +0.031 C 
ATOM     26  C   UNL     1      33.167 -20.012 -20.482  0.00  0.00    +0.005 C 
ATOM     27  C   UNL     1      34.973 -18.681 -21.465  0.00  0.00    +0.002 C 
ATOM     28  C   UNL     1      36.810 -20.190 -20.033  0.00  0.00    +0.085 C 
ATOM     29  C   UNL     1      36.332 -18.407 -21.588  0.00  0.00    -0.004 C 
ATOM     30  C   UNL     1      37.251 -19.162 -20.870  0.00  0.00    -0.019 C 
ENDBRANCH  20  22
ENDBRANCH  19  20
ENDBRANCH   4  19
TORSDOF 5
ENDMDL
MODEL 6
REMARK VINA RESULT:     -11.0      1.729      3.466
REMARK  Name = 11610553
REMARK  5 active torsions:
REMARK  status: ('A' for Active; 'I' for Inactive)
REMARK    1  A    between atoms: C_1  and  C_9
REMARK    2  A    between atoms: C_4  and  O_19
REMARK    3  A    between atoms: C_10  and  C_14
REMARK    4  A    between atoms: O_19  and  C_20
REMARK    5  A    between atoms: C_20  and  C_22
REMARK                            x       y       z     vdW  Elec       q    Type
REMARK                         _______ _______ _______ _____ _____    ______ ____
ROOT
ATOM      1  C   UNL     1      34.834 -23.074 -15.956  0.00  0.00    +0.015 C 
ATOM      2  C   UNL     1      33.775 -23.191 -16.856  0.00  0.00    +0.004 C 
ATOM      3  C   UNL     1      35.991 -22.387 -16.325  0.00  0.00    +0.004 C 
ATOM      4  C   UNL     1      35.029 -21.938 -18.486  0.00  0.00    +0.139 C 
ATOM      5  C   UNL     1      33.873 -22.621 -18.125  0.00  0.00    +0.037 C 
ATOM      6  C   UNL     1      36.089 -21.817 -17.593  0.00  0.00    +0.037 C 
ENDROOT
BRANCH   1   9
ATOM      7  N   UNL     1      35.835 -24.002 -13.912  0.00  0.00    -0.236 N 
ATOM      8  N   UNL     1      35.548 -24.539 -12.714  0.00  0.00    -0.180 NA
ATOM      9  C   UNL     1      34.733 -23.664 -14.644  0.00  0.00    +0.067 C 
ATOM     10  C   UNL     1      33.650 -24.005 -13.869  0.00  0.00    +0.036 C 
ATOM     11  C   UNL     1      34.212 -24.538 -12.694  0.00  0.00    +0.119 C 
ATOM     12  H   UNL     1      36.755 -23.864 -14.233  0.00  0.00    +0.174 HD
BRANCH  10  14
ATOM     13  N   UNL     1      29.602 -23.475 -14.979  0.00  0.00    -0.242 NA
ATOM     14  C   UNL     1      32.281 -23.825 -14.245  0.00  0.00    +0.006 C 
ATOM     15  C   UNL     1      31.511 -24.918 -14.635  0.00  0.00    +0.021 C 
ATOM     16  C   UNL     1      31.707 -22.557 -14.223  0.00  0.00    +0.021 C 
ATOM     17  C   UNL     1      30.191 -24.693 -14.989  0.00  0.00    +0.099 C 
ATOM     18  C   UNL     1      30.378 -22.436 -14.596  0.00  0.00    +0.099 C 
ENDBRANCH  10  14
ENDBRANCH   1   9
BRANCH   4  19
ATOM     19  O   UNL     1      35.125 -21.378 -19.733  0.00  0.00    -0.468 OA
BRANCH  19  20
ATOM     20  C   UNL     1      35.969 -20.241 -19.861  0.00  0.00    +0.264 C 
BRANCH  20  22
ATOM     21  N   UNL     1      35.569 -18.104 -20.925  0.00  0.00    -0.406 NA
ATOM     22  C   UNL     1      35.556 -19.450 -21.057  0.00  0.00    +0.152 C 
ATOM     23  C   UNL     1      34.808 -17.940 -23.205  0.00  0.00    +0.026 C 
ATOM     24  C   UNL     1      35.201 -17.356 -21.982  0.00  0.00    +0.113 C 
ATOM     25  C   UNL     1      35.188 -20.110 -22.212  0.00  0.00    +0.031 C 
ATOM     26  C   UNL     1      34.809 -19.337 -23.300  0.00  0.00    +0.005 C 
ATOM     27  C   UNL     1      34.430 -17.129 -24.289  0.00  0.00    +0.002 C 
ATOM     28  C   UNL     1      35.200 -15.967 -21.890  0.00  0.00    +0.085 C 
ATOM     29  C   UNL     1      34.438 -15.742 -24.169  0.00  0.00    -0.004 C 
ATOM     30  C   UNL     1      34.824 -15.161 -22.967  0.00  0.00    -0.019 C 
ENDBRANCH  20  22
ENDBRANCH  19  20
ENDBRANCH   4  19
TORSDOF 5
ENDMDL
MODEL 7
REMARK VINA RESULT:     -10.7      4.663     12.155
REMARK  Name = 11610553
REMARK  5 active torsions:
REMARK  status: ('A' for Active; 'I' for Inactive)
REMARK    1  A    between atoms: C_1  and  C_9
REMARK    2  A    between atoms: C_4  and  O_19
REMARK    3  A    between atoms: C_10  and  C_14
REMARK    4  A    between atoms: O_19  and  C_20
REMARK    5  A    between atoms: C_20  and  C_22
REMARK                            x       y       z     vdW  Elec       q    Type
REMARK                         _______ _______ _______ _____ _____    ______ ____
ROOT
ATOM      1  C   UNL     1      32.985 -12.939 -22.303  0.00  0.00    +0.015 C 
ATOM      2  C   UNL     1      33.131 -13.533 -23.557  0.00  0.00    +0.004 C 
ATOM      3  C   UNL     1      33.722 -13.412 -21.217  0.00  0.00    +0.004 C 
ATOM      4  C   UNL     1      34.743 -15.067 -22.637  0.00  0.00    +0.139 C 
ATOM      5  C   UNL     1      34.013 -14.601 -23.724  0.00  0.00    +0.037 C 
ATOM      6  C   UNL     1      34.604 -14.479 -21.384  0.00  0.00    +0.037 C 
ENDROOT
BRANCH   1   9
ATOM      7  N   UNL     1      30.799 -12.011 -21.672  0.00  0.00    -0.236 N 
ATOM      8  N   UNL     1      30.095 -10.871 -21.575  0.00  0.00    -0.180 NA
ATOM      9  C   UNL     1      32.073 -11.836 -22.130  0.00  0.00    +0.067 C 
ATOM     10  C   UNL     1      32.211 -10.485 -22.347  0.00  0.00    +0.036 C 
ATOM     11  C   UNL     1      30.962  -9.943 -21.988  0.00  0.00    +0.119 C 
ATOM     12  H   UNL     1      30.431 -12.892 -21.435  0.00  0.00    +0.174 HD
BRANCH  10  14
ATOM     13  N   UNL     1      35.713  -8.599 -23.786  0.00  0.00    -0.242 NA
ATOM     14  C   UNL     1      33.396  -9.847 -22.833  0.00  0.00    +0.006 C 
ATOM     15  C   UNL     1      34.346 -10.577 -23.543  0.00  0.00    +0.021 C 
ATOM     16  C   UNL     1      33.608  -8.490 -22.602  0.00  0.00    +0.021 C 
ATOM     17  C   UNL     1      35.476  -9.914 -23.993  0.00  0.00    +0.099 C 
ATOM     18  C   UNL     1      34.772  -7.920 -23.094  0.00  0.00    +0.099 C 
ENDBRANCH  10  14
ENDBRANCH   1   9
BRANCH   4  19
ATOM     19  O   UNL     1      35.610 -16.116 -22.801  0.00  0.00    -0.468 OA
BRANCH  19  20
ATOM     20  C   UNL     1      35.035 -17.381 -23.100  0.00  0.00    +0.264 C 
BRANCH  20  22
ATOM     21  N   UNL     1      34.389 -19.116 -21.541  0.00  0.00    -0.406 NA
ATOM     22  C   UNL     1      35.396 -18.355 -22.028  0.00  0.00    +0.152 C 
ATOM     23  C   UNL     1      35.982 -20.156 -20.062  0.00  0.00    +0.026 C 
ATOM     24  C   UNL     1      34.675 -20.005 -20.571  0.00  0.00    +0.113 C 
ATOM     25  C   UNL     1      36.703 -18.431 -21.594  0.00  0.00    +0.031 C 
ATOM     26  C   UNL     1      36.995 -19.348 -20.595  0.00  0.00    +0.005 C 
ATOM     27  C   UNL     1      36.246 -21.094 -19.049  0.00  0.00    +0.002 C 
ATOM     28  C   UNL     1      33.670 -20.809 -20.041  0.00  0.00    +0.085 C 
ATOM     29  C   UNL     1      35.221 -21.885 -18.538  0.00  0.00    -0.004 C 
ATOM     30  C   UNL     1      33.932 -21.742 -19.034  0.00  0.00    -0.019 C 
ENDBRANCH  20  22
ENDBRANCH  19  20
ENDBRANCH   4  19
TORSDOF 5
ENDMDL
MODEL 8
REMARK VINA RESULT:     -10.6      1.607      3.524
REMARK  Name = 11610553
REMARK  5 active torsions:
REMARK  status: ('A' for Active; 'I' for Inactive)
REMARK    1  A    between atoms: C_1  and  C_9
REMARK    2  A    between atoms: C_4  and  O_19
REMARK    3  A    between atoms: C_10  and  C_14
REMARK    4  A    between atoms: O_19  and  C_20
REMARK    5  A    between atoms: C_20  and  C_22
REMARK                            x       y       z     vdW  Elec       q    Type
REMARK                         _______ _______ _______ _____ _____    ______ ____
ROOT
ATOM      1  C   UNL     1      36.102 -22.555 -16.503  0.00  0.00    +0.015 C 
ATOM      2  C   UNL     1      35.265 -22.651 -17.614  0.00  0.00    +0.004 C 
ATOM      3  C   UNL     1      37.073 -21.556 -16.445  0.00  0.00    +0.004 C 
ATOM      4  C   UNL     1      36.369 -20.753 -18.603  0.00  0.00    +0.139 C 
ATOM      5  C   UNL     1      35.399 -21.746 -18.668  0.00  0.00    +0.037 C 
ATOM      6  C   UNL     1      37.208 -20.652 -17.497  0.00  0.00    +0.037 C 
ENDROOT
BRANCH   1   9
ATOM      7  N   UNL     1      37.032 -24.161 -14.892  0.00  0.00    -0.236 N 
ATOM      8  N   UNL     1      36.713 -24.990 -13.883  0.00  0.00    -0.180 NA
ATOM      9  C   UNL     1      35.964 -23.491 -15.414  0.00  0.00    +0.067 C 
ATOM     10  C   UNL     1      34.870 -23.911 -14.696  0.00  0.00    +0.036 C 
ATOM     11  C   UNL     1      35.391 -24.833 -13.768  0.00  0.00    +0.119 C 
ATOM     12  H   UNL     1      37.951 -24.047 -15.223  0.00  0.00    +0.174 HD
BRANCH  10  14
ATOM     13  N   UNL     1      30.899 -22.590 -15.316  0.00  0.00    -0.242 NA
ATOM     14  C   UNL     1      33.526 -23.463 -14.906  0.00  0.00    +0.006 C 
ATOM     15  C   UNL     1      32.987 -23.439 -16.189  0.00  0.00    +0.021 C 
ATOM     16  C   UNL     1      32.747 -23.050 -13.828  0.00  0.00    +0.021 C 
ATOM     17  C   UNL     1      31.682 -22.998 -16.340  0.00  0.00    +0.099 C 
ATOM     18  C   UNL     1      31.453 -22.626 -14.084  0.00  0.00    +0.099 C 
ENDBRANCH  10  14
ENDBRANCH   1   9
BRANCH   4  19
ATOM     19  O   UNL     1      36.501 -19.864 -19.638  0.00  0.00    -0.468 OA
BRANCH  19  20
ATOM     20  C   UNL     1      35.617 -20.027 -20.739  0.00  0.00    +0.264 C 
BRANCH  20  22
ATOM     21  N   UNL     1      35.138 -17.660 -20.572  0.00  0.00    -0.406 NA
ATOM     22  C   UNL     1      35.392 -18.705 -21.393  0.00  0.00    +0.152 C 
ATOM     23  C   UNL     1      34.965 -16.257 -22.523  0.00  0.00    +0.026 C 
ATOM     24  C   UNL     1      34.927 -16.451 -21.127  0.00  0.00    +0.113 C 
ATOM     25  C   UNL     1      35.448 -18.612 -22.769  0.00  0.00    +0.031 C 
ATOM     26  C   UNL     1      35.231 -17.366 -23.337  0.00  0.00    +0.005 C 
ATOM     27  C   UNL     1      34.741 -14.981 -23.068  0.00  0.00    +0.002 C 
ATOM     28  C   UNL     1      34.664 -15.349 -20.319  0.00  0.00    +0.085 C 
ATOM     29  C   UNL     1      34.479 -13.896 -22.237  0.00  0.00    -0.004 C 
ATOM     30  C   UNL     1      34.440 -14.080 -20.861  0.00  0.00    -0.019 C 
ENDBRANCH  20  22
ENDBRANCH  19  20
ENDBRANCH   4  19
TORSDOF 5
ENDMDL
MODEL 9
REMARK VINA RESULT:     -10.6      9.556     15.848
REMARK  Name = 11610553
REMARK  5 active torsions:
REMARK  status: ('A' for Active; 'I' for Inactive)
REMARK    1  A    between atoms: C_1  and  C_9
REMARK    2  A    between atoms: C_4  and  O_19
REMARK    3  A    between atoms: C_10  and  C_14
REMARK    4  A    between atoms: O_19  and  C_20
REMARK    5  A    between atoms: C_20  and  C_22
REMARK                            x       y       z     vdW  Elec       q    Type
REMARK                         _______ _______ _______ _____ _____    ______ ____
ROOT
ATOM      1  C   UNL     1      31.409  -6.891 -21.749  0.00  0.00    +0.015 C 
ATOM      2  C   UNL     1      31.175  -8.023 -22.530  0.00  0.00    +0.004 C 
ATOM      3  C   UNL     1      31.874  -7.029 -20.442  0.00  0.00    +0.004 C 
ATOM      4  C   UNL     1      31.868  -9.423 -20.698  0.00  0.00    +0.139 C 
ATOM      5  C   UNL     1      31.406  -9.293 -22.002  0.00  0.00    +0.037 C 
ATOM      6  C   UNL     1      32.104  -8.299 -19.914  0.00  0.00    +0.037 C 
ENDROOT
BRANCH   1   9
ATOM      7  N   UNL     1      30.175  -4.768 -21.831  0.00  0.00    -0.236 N 
ATOM      8  N   UNL     1      30.102  -3.581 -22.458  0.00  0.00    -0.180 NA
ATOM      9  C   UNL     1      31.170  -5.577 -22.295  0.00  0.00    +0.067 C 
ATOM     10  C   UNL     1      31.792  -4.870 -23.297  0.00  0.00    +0.036 C 
ATOM     11  C   UNL     1      31.092  -3.650 -23.352  0.00  0.00    +0.119 C 
ATOM     12  H   UNL     1      29.567  -5.029 -21.103  0.00  0.00    +0.174 HD
BRANCH  10  14
ATOM     13  N   UNL     1      35.073  -6.258 -25.579  0.00  0.00    -0.242 NA
ATOM     14  C   UNL     1      32.902  -5.341 -24.069  0.00  0.00    +0.006 C 
ATOM     15  C   UNL     1      32.883  -5.241 -25.458  0.00  0.00    +0.021 C 
ATOM     16  C   UNL     1      34.010  -5.900 -23.438  0.00  0.00    +0.021 C 
ATOM     17  C   UNL     1      33.982  -5.709 -26.160  0.00  0.00    +0.099 C 
ATOM     18  C   UNL     1      35.058  -6.340 -24.230  0.00  0.00    +0.099 C 
ENDBRANCH  10  14
ENDBRANCH   1   9
BRANCH   4  19
ATOM     19  O   UNL     1      32.095 -10.671 -20.179  0.00  0.00    -0.468 OA
BRANCH  19  20
ATOM     20  C   UNL     1      31.365 -11.747 -20.755  0.00  0.00    +0.264 C 
BRANCH  20  22
ATOM     21  N   UNL     1      32.300 -13.094 -22.535  0.00  0.00    -0.406 NA
ATOM     22  C   UNL     1      32.316 -12.801 -21.215  0.00  0.00    +0.152 C 
ATOM     23  C   UNL     1      34.027 -14.724 -22.125  0.00  0.00    +0.026 C 
ATOM     24  C   UNL     1      33.143 -14.042 -22.987  0.00  0.00    +0.113 C 
ATOM     25  C   UNL     1      33.144 -13.414 -20.296  0.00  0.00    +0.031 C 
ATOM     26  C   UNL     1      34.011 -14.390 -20.764  0.00  0.00    +0.005 C 
ATOM     27  C   UNL     1      34.894 -15.708 -22.631  0.00  0.00    +0.002 C 
ATOM     28  C   UNL     1      33.161 -14.374 -24.339  0.00  0.00    +0.085 C 
ATOM     29  C   UNL     1      34.890 -16.020 -23.987  0.00  0.00    -0.004 C 
ATOM     30  C   UNL     1      34.022 -15.353 -24.842  0.00  0.00    -0.019 C 
ENDBRANCH  20  22
ENDBRANCH  19  20
ENDBRANCH   4  19
TORSDOF 5
ENDMDL
