MODEL 1
REMARK VINA RESULT:     -10.9      0.000      0.000
REMARK  Name = 4615
REMARK  7 active torsions:
REMARK  status: ('A' for Active; 'I' for Inactive)
REMARK    1  A    between atoms: N_1  and  C_9
REMARK    2  A    between atoms: N_2  and  C_22
REMARK    3  A    between atoms: C_9  and  C_10
REMARK    4  A    between atoms: C_9  and  C_16
REMARK    5  A    between atoms: C_22  and  C_23
REMARK    6  A    between atoms: C_23  and  C_24
REMARK    7  A    between atoms: C_24  and  N_26
REMARK                            x       y       z     vdW  Elec       q    Type
REMARK                         _______ _______ _______ _____ _____    ______ ____
ROOT
ATOM      1  N   UNL     1      34.784 -23.220 -15.935  0.00  0.00    +0.390 N 
ATOM      2  N   UNL     1      34.820 -21.696 -18.392  0.00  0.00    +0.384 N 
ATOM      3  C   UNL     1      33.542 -22.871 -16.633  0.00  0.00    -0.100 C 
ATOM      4  C   UNL     1      35.816 -22.206 -16.189  0.00  0.00    -0.100 C 
ATOM      5  C   UNL     1      33.787 -22.708 -18.137  0.00  0.00    -0.101 C 
ATOM      6  C   UNL     1      36.063 -22.046 -17.693  0.00  0.00    -0.101 C 
ATOM      7  H   UNL     1      35.116 -24.114 -16.297  0.00  0.00    -0.079 HD
ATOM      8  H   UNL     1      34.490 -20.801 -18.032  0.00  0.00    -0.080 HD
ENDROOT
BRANCH   1   9
ATOM      9  C   UNL     1      34.549 -23.373 -14.501  0.00  0.00    -0.012 C 
BRANCH   9  10
ATOM     10  C   UNL     1      33.094 -23.683 -14.183  0.00  0.00    -0.038 C 
ATOM     11  C   UNL     1      32.754 -24.964 -13.794  0.00  0.00    -0.006 C 
ATOM     12  C   UNL     1      32.156 -22.676 -14.293  0.00  0.00    -0.006 C 
ATOM     13  C   UNL     1      31.420 -25.249 -13.502  0.00  0.00    -0.000 C 
ATOM     14  C   UNL     1      30.823 -22.961 -14.001  0.00  0.00    -0.000 C 
ATOM     15  C   UNL     1      30.455 -24.247 -13.606  0.00  0.00    -0.000 C 
ENDBRANCH   9  10
BRANCH   9  16
ATOM     16  C   UNL     1      35.496 -24.377 -13.862  0.00  0.00    -0.038 C 
ATOM     17  C   UNL     1      35.995 -25.408 -14.632  0.00  0.00    -0.006 C 
ATOM     18  C   UNL     1      35.826 -24.229 -12.530  0.00  0.00    -0.006 C 
ATOM     19  C   UNL     1      36.863 -26.329 -14.046  0.00  0.00    -0.000 C 
ATOM     20  C   UNL     1      36.695 -25.151 -11.944  0.00  0.00    -0.000 C 
ATOM     21  C   UNL     1      37.213 -26.200 -12.702  0.00  0.00    -0.000 C 
ENDBRANCH   9  16
ENDBRANCH   1   9
BRANCH   2  22
ATOM     22  C   UNL     1      35.057 -21.545 -19.826  0.00  0.00    -0.076 C 
BRANCH  22  23
ATOM     23  C   UNL     1      34.529 -20.209 -20.356  0.00  0.00    +0.002 C 
BRANCH  23  24
ATOM     24  C   UNL     1      35.616 -19.201 -20.721  0.00  0.00    +0.108 C 
BRANCH  24  26
ATOM     25  O   UNL     1      35.150 -19.907 -23.618  0.00  0.00    -0.247 OA
ATOM     26  N   UNL     1      35.237 -18.354 -21.818  0.00  0.00    -0.280 N 
ATOM     27  N   UNL     1      34.675 -17.608 -23.890  0.00  0.00    -0.305 N 
ATOM     28  C   UNL     1      34.999 -16.970 -21.742  0.00  0.00    +0.079 A 
ATOM     29  C   UNL     1      35.037 -18.778 -23.165  0.00  0.00    +0.328 A 
ATOM     30  C   UNL     1      34.656 -16.521 -23.015  0.00  0.00    +0.076 A 
ATOM     31  C   UNL     1      35.062 -16.110 -20.666  0.00  0.00    +0.019 C 
ATOM     32  C   UNL     1      34.361 -15.202 -23.279  0.00  0.00    +0.019 C 
ATOM     33  C   UNL     1      34.766 -14.764 -20.907  0.00  0.00    +0.002 C 
ATOM     34  C   UNL     1      34.419 -14.316 -22.200  0.00  0.00    +0.002 C 
ATOM     35  H   UNL     1      34.471 -17.571 -24.853  0.00  0.00    +0.170 HD
ENDBRANCH  24  26
ENDBRANCH  23  24
ENDBRANCH  22  23
ENDBRANCH   2  22
TORSDOF 7
ENDMDL
MODEL 2
REMARK VINA RESULT:     -10.9      7.130     15.300
REMARK  Name = 4615
REMARK  7 active torsions:
REMARK  status: ('A' for Active; 'I' for Inactive)
REMARK    1  A    between atoms: N_1  and  C_9
REMARK    2  A    between atoms: N_2  and  C_22
REMARK    3  A    between atoms: C_9  and  C_10
REMARK    4  A    between atoms: C_9  and  C_16
REMARK    5  A    between atoms: C_22  and  C_23
REMARK    6  A    between atoms: C_23  and  C_24
REMARK    7  A    between atoms: C_24  and  N_26
REMARK                            x       y       z     vdW  Elec       q    Type
REMARK                         _______ _______ _______ _____ _____    ______ ____
ROOT
ATOM      1  N   UNL     1      33.085  -8.751 -23.389  0.00  0.00    +0.390 N 
ATOM      2  N   UNL     1      33.058 -11.571 -22.754  0.00  0.00    +0.384 N 
ATOM      3  C   UNL     1      34.261  -9.596 -23.626  0.00  0.00    -0.100 C 
ATOM      4  C   UNL     1      32.298  -9.272 -22.264  0.00  0.00    -0.100 C 
ATOM      5  C   UNL     1      33.846 -11.050 -23.878  0.00  0.00    -0.101 C 
ATOM      6  C   UNL     1      31.882 -10.724 -22.518  0.00  0.00    -0.101 C 
ATOM      7  H   UNL     1      32.501  -8.770 -24.226  0.00  0.00    -0.079 HD
ATOM      8  H   UNL     1      33.640 -11.554 -21.917  0.00  0.00    -0.080 HD
ENDROOT
BRANCH   1   9
ATOM      9  C   UNL     1      33.481  -7.365 -23.148  0.00  0.00    -0.012 C 
BRANCH   9  10
ATOM     10  C   UNL     1      34.027  -6.693 -24.399  0.00  0.00    -0.038 C 
ATOM     11  C   UNL     1      33.221  -6.606 -25.516  0.00  0.00    -0.006 C 
ATOM     12  C   UNL     1      35.313  -6.190 -24.381  0.00  0.00    -0.006 C 
ATOM     13  C   UNL     1      33.721  -5.990 -26.663  0.00  0.00    -0.000 C 
ATOM     14  C   UNL     1      35.813  -5.573 -25.527  0.00  0.00    -0.000 C 
ATOM     15  C   UNL     1      35.017  -5.473 -26.668  0.00  0.00    -0.000 C 
ENDBRANCH   9  10
BRANCH   9  16
ATOM     16  C   UNL     1      32.372  -6.548 -22.502  0.00  0.00    -0.038 C 
ATOM     17  C   UNL     1      32.686  -5.712 -21.450  0.00  0.00    -0.006 C 
ATOM     18  C   UNL     1      31.086  -6.668 -22.988  0.00  0.00    -0.006 C 
ATOM     19  C   UNL     1      31.669  -4.963 -20.857  0.00  0.00    -0.000 C 
ATOM     20  C   UNL     1      30.069  -5.918 -22.395  0.00  0.00    -0.000 C 
ATOM     21  C   UNL     1      30.361  -5.066 -21.331  0.00  0.00    -0.000 C 
ENDBRANCH   9  16
ENDBRANCH   1   9
BRANCH   2  22
ATOM     22  C   UNL     1      32.659 -12.956 -22.997  0.00  0.00    -0.076 C 
BRANCH  22  23
ATOM     23  C   UNL     1      33.459 -13.941 -22.140  0.00  0.00    +0.002 C 
BRANCH  23  24
ATOM     24  C   UNL     1      34.751 -14.436 -22.787  0.00  0.00    +0.108 C 
BRANCH  24  26
ATOM     25  O   UNL     1      33.821 -15.358 -25.505  0.00  0.00    -0.247 OA
ATOM     26  N   UNL     1      34.630 -15.770 -23.306  0.00  0.00    -0.280 N 
ATOM     27  N   UNL     1      34.226 -17.536 -24.680  0.00  0.00    -0.305 N 
ATOM     28  C   UNL     1      34.940 -16.952 -22.611  0.00  0.00    +0.079 A 
ATOM     29  C   UNL     1      34.178 -16.115 -24.614  0.00  0.00    +0.328 A 
ATOM     30  C   UNL     1      34.688 -18.029 -23.459  0.00  0.00    +0.076 A 
ATOM     31  C   UNL     1      35.411 -17.139 -21.328  0.00  0.00    +0.019 C 
ATOM     32  C   UNL     1      34.892 -19.335 -23.074  0.00  0.00    +0.019 C 
ATOM     33  C   UNL     1      35.626 -18.457 -20.914  0.00  0.00    +0.002 C 
ATOM     34  C   UNL     1      35.369 -19.543 -21.777  0.00  0.00    +0.002 C 
ATOM     35  H   UNL     1      33.973 -18.082 -25.459  0.00  0.00    +0.170 HD
ENDBRANCH  24  26
ENDBRANCH  23  24
ENDBRANCH  22  23
ENDBRANCH   2  22
TORSDOF 7
ENDMDL
MODEL 3
REMARK VINA RESULT:     -10.8      7.868     15.636
REMARK  Name = 4615
REMARK  7 active torsions:
REMARK  status: ('A' for Active; 'I' for Inactive)
REMARK    1  A    between atoms: N_1  and  C_9
REMARK    2  A    between atoms: N_2  and  C_22
REMARK    3  A    between atoms: C_9  and  C_10
REMARK    4  A    between atoms: C_9  and  C_16
REMARK    5  A    between atoms: C_22  and  C_23
REMARK    6  A    between atoms: C_23  and  C_24
REMARK    7  A    between atoms: C_24  and  N_26
REMARK                            x       y       z     vdW  Elec       q    Type
REMARK                         _______ _______ _______ _____ _____    ______ ____
ROOT
ATOM      1  N   UNL     1      32.433  -8.080 -22.660  0.00  0.00    +0.390 N 
ATOM      2  N   UNL     1      32.501 -10.926 -22.159  0.00  0.00    +0.384 N 
ATOM      3  C   UNL     1      33.198  -8.987 -23.523  0.00  0.00    -0.100 C 
ATOM      4  C   UNL     1      32.355  -8.616 -21.296  0.00  0.00    -0.100 C 
ATOM      5  C   UNL     1      32.581 -10.390 -23.523  0.00  0.00    -0.101 C 
ATOM      6  C   UNL     1      31.736 -10.018 -21.295  0.00  0.00    -0.101 C 
ATOM      7  H   UNL     1      31.486  -8.006 -23.031  0.00  0.00    -0.079 HD
ATOM      8  H   UNL     1      33.448 -11.002 -21.787  0.00  0.00    -0.080 HD
ENDROOT
BRANCH   1   9
ATOM      9  C   UNL     1      33.023  -6.743 -22.660  0.00  0.00    -0.012 C 
BRANCH   9  10
ATOM     10  C   UNL     1      33.687  -6.402 -23.986  0.00  0.00    -0.038 C 
ATOM     11  C   UNL     1      32.897  -6.253 -25.109  0.00  0.00    -0.006 C 
ATOM     12  C   UNL     1      35.058  -6.254 -24.028  0.00  0.00    -0.006 C 
ATOM     13  C   UNL     1      33.505  -5.941 -26.325  0.00  0.00    -0.000 C 
ATOM     14  C   UNL     1      35.666  -5.942 -25.244  0.00  0.00    -0.000 C 
ATOM     15  C   UNL     1      34.890  -5.785 -26.392  0.00  0.00    -0.000 C 
ENDBRANCH   9  10
BRANCH   9  16
ATOM     16  C   UNL     1      32.032  -5.671 -22.230  0.00  0.00    -0.038 C 
ATOM     17  C   UNL     1      32.448  -4.356 -22.188  0.00  0.00    -0.006 C 
ATOM     18  C   UNL     1      30.748  -6.047 -21.893  0.00  0.00    -0.006 C 
ATOM     19  C   UNL     1      31.541  -3.374 -21.793  0.00  0.00    -0.000 C 
ATOM     20  C   UNL     1      29.839  -5.063 -21.499  0.00  0.00    -0.000 C 
ATOM     21  C   UNL     1      30.236  -3.727 -21.449  0.00  0.00    -0.000 C 
ENDBRANCH   9  16
ENDBRANCH   1   9
BRANCH   2  22
ATOM     22  C   UNL     1      31.909 -12.262 -22.159  0.00  0.00    -0.076 C 
BRANCH  22  23
ATOM     23  C   UNL     1      32.817 -13.291 -21.481  0.00  0.00    +0.002 C 
BRANCH  23  24
ATOM     24  C   UNL     1      34.169 -13.489 -22.164  0.00  0.00    +0.108 C 
BRANCH  24  26
ATOM     25  O   UNL     1      33.217 -13.816 -25.008  0.00  0.00    -0.247 OA
ATOM     26  N   UNL     1      34.195 -14.651 -23.007  0.00  0.00    -0.280 N 
ATOM     27  N   UNL     1      33.948 -16.052 -24.781  0.00  0.00    -0.305 N 
ATOM     28  C   UNL     1      34.695 -15.915 -22.647  0.00  0.00    +0.079 A 
ATOM     29  C   UNL     1      33.720 -14.715 -24.350  0.00  0.00    +0.328 A 
ATOM     30  C   UNL     1      34.539 -16.768 -23.738  0.00  0.00    +0.076 A 
ATOM     31  C   UNL     1      35.257 -16.352 -21.465  0.00  0.00    +0.019 C 
ATOM     32  C   UNL     1      34.933 -18.086 -23.708  0.00  0.00    +0.019 C 
ATOM     33  C   UNL     1      35.666 -17.688 -21.409  0.00  0.00    +0.002 C 
ATOM     34  C   UNL     1      35.505 -18.546 -22.518  0.00  0.00    +0.002 C 
ATOM     35  H   UNL     1      33.726 -16.414 -25.669  0.00  0.00    +0.170 HD
ENDBRANCH  24  26
ENDBRANCH  23  24
ENDBRANCH  22  23
ENDBRANCH   2  22
TORSDOF 7
ENDMDL
MODEL 4
REMARK VINA RESULT:     -10.6      1.130      3.621
REMARK  Name = 4615
REMARK  7 active torsions:
REMARK  status: ('A' for Active; 'I' for Inactive)
REMARK    1  A    between atoms: N_1  and  C_9
REMARK    2  A    between atoms: N_2  and  C_22
REMARK    3  A    between atoms: C_9  and  C_10
REMARK    4  A    between atoms: C_9  and  C_16
REMARK    5  A    between atoms: C_22  and  C_23
REMARK    6  A    between atoms: C_23  and  C_24
REMARK    7  A    between atoms: C_24  and  N_26
REMARK                            x       y       z     vdW  Elec       q    Type
REMARK                         _______ _______ _______ _____ _____    ______ ____
ROOT
ATOM      1  N   UNL     1      34.664 -22.436 -16.996  0.00  0.00    +0.390 N 
ATOM      2  N   UNL     1      36.058 -21.343 -19.280  0.00  0.00    +0.384 N 
ATOM      3  C   UNL     1      36.130 -22.396 -17.046  0.00  0.00    -0.100 C 
ATOM      4  C   UNL     1      34.108 -22.542 -18.351  0.00  0.00    -0.100 C 
ATOM      5  C   UNL     1      36.614 -21.239 -17.926  0.00  0.00    -0.101 C 
ATOM      6  C   UNL     1      34.591 -21.384 -19.230  0.00  0.00    -0.101 C 
ATOM      7  H   UNL     1      34.332 -21.566 -16.579  0.00  0.00    -0.079 HD
ATOM      8  H   UNL     1      36.389 -22.212 -19.699  0.00  0.00    -0.080 HD
ENDROOT
BRANCH   1   9
ATOM      9  C   UNL     1      34.203 -23.541 -16.158  0.00  0.00    -0.012 C 
BRANCH   9  10
ATOM     10  C   UNL     1      35.206 -23.903 -15.073  0.00  0.00    -0.038 C 
ATOM     11  C   UNL     1      35.585 -25.222 -14.927  0.00  0.00    -0.006 C 
ATOM     12  C   UNL     1      35.707 -22.902 -14.264  0.00  0.00    -0.006 C 
ATOM     13  C   UNL     1      36.504 -25.555 -13.932  0.00  0.00    -0.000 C 
ATOM     14  C   UNL     1      36.626 -23.234 -13.270  0.00  0.00    -0.000 C 
ATOM     15  C   UNL     1      37.025 -24.560 -13.104  0.00  0.00    -0.000 C 
ENDBRANCH   9  10
BRANCH   9  16
ATOM     16  C   UNL     1      32.814 -23.296 -15.587  0.00  0.00    -0.038 C 
ATOM     17  C   UNL     1      32.640 -23.328 -14.218  0.00  0.00    -0.006 C 
ATOM     18  C   UNL     1      31.769 -23.052 -16.455  0.00  0.00    -0.006 C 
ATOM     19  C   UNL     1      31.367 -23.104 -13.694  0.00  0.00    -0.000 C 
ATOM     20  C   UNL     1      30.495 -22.828 -15.930  0.00  0.00    -0.000 C 
ATOM     21  C   UNL     1      30.295 -22.854 -14.551  0.00  0.00    -0.000 C 
ENDBRANCH   9  16
ENDBRANCH   1   9
BRANCH   2  22
ATOM     22  C   UNL     1      36.517 -20.237 -20.117  0.00  0.00    -0.076 C 
BRANCH  22  23
ATOM     23  C   UNL     1      35.351 -19.407 -20.660  0.00  0.00    +0.002 C 
BRANCH  23  24
ATOM     24  C   UNL     1      35.748 -18.030 -21.190  0.00  0.00    +0.108 C 
BRANCH  24  26
ATOM     25  O   UNL     1      35.017 -19.888 -23.452  0.00  0.00    -0.247 OA
ATOM     26  N   UNL     1      35.140 -17.731 -22.457  0.00  0.00    -0.280 N 
ATOM     27  N   UNL     1      34.245 -17.935 -24.537  0.00  0.00    -0.305 N 
ATOM     28  C   UNL     1      34.753 -16.455 -22.900  0.00  0.00    +0.079 A 
ATOM     29  C   UNL     1      34.828 -18.681 -23.474  0.00  0.00    +0.328 A 
ATOM     30  C   UNL     1      34.206 -16.588 -24.174  0.00  0.00    +0.076 A 
ATOM     31  C   UNL     1      34.845 -15.226 -22.279  0.00  0.00    +0.019 C 
ATOM     32  C   UNL     1      33.728 -15.513 -24.889  0.00  0.00    +0.019 C 
ATOM     33  C   UNL     1      34.366 -14.118 -22.985  0.00  0.00    +0.002 C 
ATOM     34  C   UNL     1      33.814 -14.260 -24.276  0.00  0.00    +0.002 C 
ATOM     35  H   UNL     1      33.922 -18.308 -25.389  0.00  0.00    +0.170 HD
ENDBRANCH  24  26
ENDBRANCH  23  24
ENDBRANCH  22  23
ENDBRANCH   2  22
TORSDOF 7
ENDMDL
MODEL 5
REMARK VINA RESULT:     -10.4      1.890      4.273
REMARK  Name = 4615
REMARK  7 active torsions:
REMARK  status: ('A' for Active; 'I' for Inactive)
REMARK    1  A    between atoms: N_1  and  C_9
REMARK    2  A    between atoms: N_2  and  C_22
REMARK    3  A    between atoms: C_9  and  C_10
REMARK    4  A    between atoms: C_9  and  C_16
REMARK    5  A    between atoms: C_22  and  C_23
REMARK    6  A    between atoms: C_23  and  C_24
REMARK    7  A    between atoms: C_24  and  N_26
REMARK                            x       y       z     vdW  Elec       q    Type
REMARK                         _______ _______ _______ _____ _____    ______ ____
ROOT
ATOM      1  N   UNL     1      34.263 -21.902 -17.880  0.00  0.00    +0.390 N 
ATOM      2  N   UNL     1      34.353 -20.748 -20.529  0.00  0.00    +0.384 N 
ATOM      3  C   UNL     1      35.449 -22.043 -18.732  0.00  0.00    -0.100 C 
ATOM      4  C   UNL     1      33.052 -21.786 -18.703  0.00  0.00    -0.100 C 
ATOM      5  C   UNL     1      35.564 -20.866 -19.707  0.00  0.00    -0.101 C 
ATOM      6  C   UNL     1      33.166 -20.608 -19.676  0.00  0.00    -0.101 C 
ATOM      7  H   UNL     1      34.361 -21.048 -17.331  0.00  0.00    -0.079 HD
ATOM      8  H   UNL     1      34.254 -21.601 -21.080  0.00  0.00    -0.080 HD
ENDROOT
BRANCH   1   9
ATOM      9  C   UNL     1      34.154 -23.025 -16.952  0.00  0.00    -0.012 C 
BRANCH   9  10
ATOM     10  C   UNL     1      35.408 -23.203 -16.108  0.00  0.00    -0.038 C 
ATOM     11  C   UNL     1      35.553 -24.356 -15.363  0.00  0.00    -0.006 C 
ATOM     12  C   UNL     1      36.362 -22.206 -16.110  0.00  0.00    -0.006 C 
ATOM     13  C   UNL     1      36.701 -24.520 -14.589  0.00  0.00    -0.000 C 
ATOM     14  C   UNL     1      37.510 -22.369 -15.336  0.00  0.00    -0.000 C 
ATOM     15  C   UNL     1      37.680 -23.526 -14.576  0.00  0.00    -0.000 C 
ENDBRANCH   9  10
BRANCH   9  16
ATOM     16  C   UNL     1      32.899 -22.950 -16.094  0.00  0.00    -0.038 C 
ATOM     17  C   UNL     1      31.667 -23.058 -16.705  0.00  0.00    -0.006 C 
ATOM     18  C   UNL     1      33.031 -22.775 -14.732  0.00  0.00    -0.006 C 
ATOM     19  C   UNL     1      30.516 -22.988 -15.920  0.00  0.00    -0.000 C 
ATOM     20  C   UNL     1      31.880 -22.705 -13.946  0.00  0.00    -0.000 C 
ATOM     21  C   UNL     1      30.623 -22.812 -14.540  0.00  0.00    -0.000 C 
ENDBRANCH   9  16
ENDBRANCH   1   9
BRANCH   2  22
ATOM     22  C   UNL     1      34.461 -19.624 -21.456  0.00  0.00    -0.076 C 
BRANCH  22  23
ATOM     23  C   UNL     1      35.251 -18.459 -20.853  0.00  0.00    +0.002 C 
BRANCH  23  24
ATOM     24  C   UNL     1      35.791 -17.464 -21.878  0.00  0.00    +0.108 C 
BRANCH  24  26
ATOM     25  O   UNL     1      35.066 -15.567 -19.645  0.00  0.00    -0.247 OA
ATOM     26  N   UNL     1      35.025 -16.250 -21.924  0.00  0.00    -0.280 N 
ATOM     27  N   UNL     1      33.954 -14.335 -21.328  0.00  0.00    -0.305 N 
ATOM     28  C   UNL     1      34.442 -15.691 -23.075  0.00  0.00    +0.079 A 
ATOM     29  C   UNL     1      34.730 -15.410 -20.810  0.00  0.00    +0.328 A 
ATOM     30  C   UNL     1      33.788 -14.519 -22.702  0.00  0.00    +0.076 A 
ATOM     31  C   UNL     1      34.448 -16.128 -24.383  0.00  0.00    +0.019 C 
ATOM     32  C   UNL     1      33.112 -13.730 -23.605  0.00  0.00    +0.019 C 
ATOM     33  C   UNL     1      33.768 -15.344 -25.321  0.00  0.00    +0.002 C 
ATOM     34  C   UNL     1      33.107 -14.158 -24.936  0.00  0.00    +0.002 C 
ATOM     35  H   UNL     1      33.593 -13.584 -20.804  0.00  0.00    +0.170 HD
ENDBRANCH  24  26
ENDBRANCH  23  24
ENDBRANCH  22  23
ENDBRANCH   2  22
TORSDOF 7
ENDMDL
MODEL 6
REMARK VINA RESULT:     -10.4      7.453     15.494
REMARK  Name = 4615
REMARK  7 active torsions:
REMARK  status: ('A' for Active; 'I' for Inactive)
REMARK    1  A    between atoms: N_1  and  C_9
REMARK    2  A    between atoms: N_2  and  C_22
REMARK    3  A    between atoms: C_9  and  C_10
REMARK    4  A    between atoms: C_9  and  C_16
REMARK    5  A    between atoms: C_22  and  C_23
REMARK    6  A    between atoms: C_23  and  C_24
REMARK    7  A    between atoms: C_24  and  N_26
REMARK                            x       y       z     vdW  Elec       q    Type
REMARK                         _______ _______ _______ _____ _____    ______ ____
ROOT
ATOM      1  N   UNL     1      32.621  -8.283 -23.353  0.00  0.00    +0.390 N 
ATOM      2  N   UNL     1      32.319 -11.104 -22.796  0.00  0.00    +0.384 N 
ATOM      3  C   UNL     1      31.487  -8.788 -22.570  0.00  0.00    -0.100 C 
ATOM      4  C   UNL     1      33.080  -9.302 -24.306  0.00  0.00    -0.100 C 
ATOM      5  C   UNL     1      31.859 -10.086 -21.845  0.00  0.00    -0.101 C 
ATOM      6  C   UNL     1      33.454 -10.598 -23.579  0.00  0.00    -0.101 C 
ATOM      7  H   UNL     1      33.387  -8.075 -22.711  0.00  0.00    -0.079 HD
ATOM      8  H   UNL     1      31.554 -11.314 -23.438  0.00  0.00    -0.080 HD
ENDROOT
BRANCH   1   9
ATOM      9  C   UNL     1      32.265  -7.047 -24.045  0.00  0.00    -0.012 C 
BRANCH   9  10
ATOM     10  C   UNL     1      31.738  -5.982 -23.096  0.00  0.00    -0.038 C 
ATOM     11  C   UNL     1      30.785  -5.093 -23.552  0.00  0.00    -0.006 C 
ATOM     12  C   UNL     1      32.229  -5.934 -21.806  0.00  0.00    -0.006 C 
ATOM     13  C   UNL     1      30.302  -4.116 -22.682  0.00  0.00    -0.000 C 
ATOM     14  C   UNL     1      31.745  -4.957 -20.936  0.00  0.00    -0.000 C 
ATOM     15  C   UNL     1      30.782  -4.049 -21.374  0.00  0.00    -0.000 C 
ENDBRANCH   9  10
BRANCH   9  16
ATOM     16  C   UNL     1      33.399  -6.521 -24.914  0.00  0.00    -0.038 C 
ATOM     17  C   UNL     1      33.154  -6.270 -26.249  0.00  0.00    -0.006 C 
ATOM     18  C   UNL     1      34.637  -6.314 -24.342  0.00  0.00    -0.006 C 
ATOM     19  C   UNL     1      34.193  -5.789 -27.046  0.00  0.00    -0.000 C 
ATOM     20  C   UNL     1      35.676  -5.832 -25.139  0.00  0.00    -0.000 C 
ATOM     21  C   UNL     1      35.454  -5.569 -26.491  0.00  0.00    -0.000 C 
ENDBRANCH   9  16
ENDBRANCH   1   9
BRANCH   2  22
ATOM     22  C   UNL     1      32.677 -12.339 -22.103  0.00  0.00    -0.076 C 
BRANCH  22  23
ATOM     23  C   UNL     1      32.847 -13.512 -23.073  0.00  0.00    +0.002 C 
BRANCH  23  24
ATOM     24  C   UNL     1      34.276 -14.040 -23.181  0.00  0.00    +0.108 C 
BRANCH  24  26
ATOM     25  O   UNL     1      33.449 -15.283 -25.803  0.00  0.00    -0.247 OA
ATOM     26  N   UNL     1      34.326 -15.414 -23.595  0.00  0.00    -0.280 N 
ATOM     27  N   UNL     1      34.142 -17.320 -24.822  0.00  0.00    -0.305 N 
ATOM     28  C   UNL     1      34.793 -16.489 -22.818  0.00  0.00    +0.079 A 
ATOM     29  C   UNL     1      33.911 -15.916 -24.864  0.00  0.00    +0.328 A 
ATOM     30  C   UNL     1      34.676 -17.652 -23.577  0.00  0.00    +0.076 A 
ATOM     31  C   UNL     1      35.296 -16.512 -21.534  0.00  0.00    +0.019 C 
ATOM     32  C   UNL     1      35.052 -18.887 -23.098  0.00  0.00    +0.019 C 
ATOM     33  C   UNL     1      35.685 -17.755 -21.025  0.00  0.00    +0.002 C 
ATOM     34  C   UNL     1      35.564 -18.929 -21.798  0.00  0.00    +0.002 C 
ATOM     35  H   UNL     1      33.955 -17.953 -25.552  0.00  0.00    +0.170 HD
ENDBRANCH  24  26
ENDBRANCH  23  24
ENDBRANCH  22  23
ENDBRANCH   2  22
TORSDOF 7
ENDMDL
MODEL 7
REMARK VINA RESULT:     -10.3      1.286      2.131
REMARK  Name = 4615
REMARK  7 active torsions:
REMARK  status: ('A' for Active; 'I' for Inactive)
REMARK    1  A    between atoms: N_1  and  C_9
REMARK    2  A    between atoms: N_2  and  C_22
REMARK    3  A    between atoms: C_9  and  C_10
REMARK    4  A    between atoms: C_9  and  C_16
REMARK    5  A    between atoms: C_22  and  C_23
REMARK    6  A    between atoms: C_23  and  C_24
REMARK    7  A    between atoms: C_24  and  N_26
REMARK                            x       y       z     vdW  Elec       q    Type
REMARK                         _______ _______ _______ _____ _____    ______ ____
ROOT
ATOM      1  N   UNL     1      34.942 -23.262 -15.618  0.00  0.00    +0.390 N 
ATOM      2  N   UNL     1      35.184 -21.826 -18.116  0.00  0.00    +0.384 N 
ATOM      3  C   UNL     1      33.767 -22.974 -16.448  0.00  0.00    -0.100 C 
ATOM      4  C   UNL     1      35.968 -22.229 -15.808  0.00  0.00    -0.100 C 
ATOM      5  C   UNL     1      34.157 -22.858 -17.925  0.00  0.00    -0.101 C 
ATOM      6  C   UNL     1      36.360 -22.115 -17.285  0.00  0.00    -0.101 C 
ATOM      7  H   UNL     1      35.331 -24.159 -15.911  0.00  0.00    -0.079 HD
ATOM      8  H   UNL     1      34.797 -20.929 -17.824  0.00  0.00    -0.080 HD
ENDROOT
BRANCH   1   9
ATOM      9  C   UNL     1      34.569 -23.371 -14.210  0.00  0.00    -0.012 C 
BRANCH   9  10
ATOM     10  C   UNL     1      33.098 -23.710 -14.024  0.00  0.00    -0.038 C 
ATOM     11  C   UNL     1      32.159 -22.708 -14.166  0.00  0.00    -0.006 C 
ATOM     12  C   UNL     1      32.744 -25.009 -13.718  0.00  0.00    -0.006 C 
ATOM     13  C   UNL     1      30.810 -23.018 -13.996  0.00  0.00    -0.000 C 
ATOM     14  C   UNL     1      31.395 -25.319 -13.548  0.00  0.00    -0.000 C 
ATOM     15  C   UNL     1      30.428 -24.324 -13.687  0.00  0.00    -0.000 C 
ENDBRANCH   9  10
BRANCH   9  16
ATOM     16  C   UNL     1      35.472 -24.326 -13.442  0.00  0.00    -0.038 C 
ATOM     17  C   UNL     1      35.599 -24.171 -12.077  0.00  0.00    -0.006 C 
ATOM     18  C   UNL     1      36.138 -25.316 -14.135  0.00  0.00    -0.006 C 
ATOM     19  C   UNL     1      36.427 -25.046 -11.373  0.00  0.00    -0.000 C 
ATOM     20  C   UNL     1      36.966 -26.192 -13.431  0.00  0.00    -0.000 C 
ATOM     21  C   UNL     1      37.110 -26.057 -12.051  0.00  0.00    -0.000 C 
ENDBRANCH   9  16
ENDBRANCH   1   9
BRANCH   2  22
ATOM     22  C   UNL     1      35.558 -21.719 -19.524  0.00  0.00    -0.076 C 
BRANCH  22  23
ATOM     23  C   UNL     1      34.699 -20.693 -20.268  0.00  0.00    +0.002 C 
BRANCH  23  24
ATOM     24  C   UNL     1      35.142 -20.421 -21.704  0.00  0.00    +0.108 C 
BRANCH  24  26
ATOM     25  O   UNL     1      36.803 -18.419 -20.175  0.00  0.00    -0.247 OA
ATOM     26  N   UNL     1      35.352 -19.024 -21.961  0.00  0.00    -0.280 N 
ATOM     27  N   UNL     1      36.071 -16.872 -21.806  0.00  0.00    -0.305 N 
ATOM     28  C   UNL     1      34.797 -18.292 -23.026  0.00  0.00    +0.079 A 
ATOM     29  C   UNL     1      36.161 -18.147 -21.179  0.00  0.00    +0.328 A 
ATOM     30  C   UNL     1      35.241 -16.976 -22.923  0.00  0.00    +0.076 A 
ATOM     31  C   UNL     1      33.956 -18.692 -24.043  0.00  0.00    +0.019 C 
ATOM     32  C   UNL     1      34.874 -16.000 -23.822  0.00  0.00    +0.019 C 
ATOM     33  C   UNL     1      33.567 -17.719 -24.969  0.00  0.00    +0.002 C 
ATOM     34  C   UNL     1      34.022 -16.388 -24.860  0.00  0.00    +0.002 C 
ATOM     35  H   UNL     1      36.521 -16.051 -21.501  0.00  0.00    +0.170 HD
ENDBRANCH  24  26
ENDBRANCH  23  24
ENDBRANCH  22  23
ENDBRANCH   2  22
TORSDOF 7
ENDMDL
MODEL 8
REMARK VINA RESULT:     -10.2      7.821     15.892
REMARK  Name = 4615
REMARK  7 active torsions:
REMARK  status: ('A' for Active; 'I' for Inactive)
REMARK    1  A    between atoms: N_1  and  C_9
REMARK    2  A    between atoms: N_2  and  C_22
REMARK    3  A    between atoms: C_9  and  C_10
REMARK    4  A    between atoms: C_9  and  C_16
REMARK    5  A    between atoms: C_22  and  C_23
REMARK    6  A    between atoms: C_23  and  C_24
REMARK    7  A    between atoms: C_24  and  N_26
REMARK                            x       y       z     vdW  Elec       q    Type
REMARK                         _______ _______ _______ _____ _____    ______ ____
ROOT
ATOM      1  N   UNL     1      32.284  -7.736 -22.466  0.00  0.00    +0.390 N 
ATOM      2  N   UNL     1      32.478 -10.602 -22.133  0.00  0.00    +0.384 N 
ATOM      3  C   UNL     1      32.775  -8.598 -23.548  0.00  0.00    -0.100 C 
ATOM      4  C   UNL     1      32.587  -8.333 -21.160  0.00  0.00    -0.100 C 
ATOM      5  C   UNL     1      32.177 -10.005 -23.440  0.00  0.00    -0.101 C 
ATOM      6  C   UNL     1      31.987  -9.739 -21.051  0.00  0.00    -0.101 C 
ATOM      7  H   UNL     1      31.271  -7.654 -22.555  0.00  0.00    -0.079 HD
ATOM      8  H   UNL     1      33.490 -10.686 -22.043  0.00  0.00    -0.080 HD
ENDROOT
BRANCH   1   9
ATOM      9  C   UNL     1      32.856  -6.396 -22.570  0.00  0.00    -0.012 C 
BRANCH   9  10
ATOM     10  C   UNL     1      33.475  -6.134 -23.935  0.00  0.00    -0.038 C 
ATOM     11  C   UNL     1      34.850  -6.134 -24.056  0.00  0.00    -0.006 C 
ATOM     12  C   UNL     1      32.644  -5.902 -25.012  0.00  0.00    -0.006 C 
ATOM     13  C   UNL     1      35.418  -5.893 -25.307  0.00  0.00    -0.000 C 
ATOM     14  C   UNL     1      33.211  -5.661 -26.263  0.00  0.00    -0.000 C 
ATOM     15  C   UNL     1      34.597  -5.657 -26.411  0.00  0.00    -0.000 C 
ENDBRANCH   9  10
BRANCH   9  16
ATOM     16  C   UNL     1      31.865  -5.310 -22.179  0.00  0.00    -0.038 C 
ATOM     17  C   UNL     1      30.615  -5.680 -21.727  0.00  0.00    -0.006 C 
ATOM     18  C   UNL     1      32.245  -3.988 -22.290  0.00  0.00    -0.006 C 
ATOM     19  C   UNL     1      29.705  -4.685 -21.369  0.00  0.00    -0.000 C 
ATOM     20  C   UNL     1      31.335  -2.992 -21.931  0.00  0.00    -0.000 C 
ATOM     21  C   UNL     1      30.066  -3.341 -21.470  0.00  0.00    -0.000 C 
ENDBRANCH   9  16
ENDBRANCH   1   9
BRANCH   2  22
ATOM     22  C   UNL     1      31.904 -11.941 -22.029  0.00  0.00    -0.076 C 
BRANCH  22  23
ATOM     23  C   UNL     1      32.561 -12.923 -23.002  0.00  0.00    +0.002 C 
BRANCH  23  24
ATOM     24  C   UNL     1      34.067 -13.090 -22.811  0.00  0.00    +0.108 C 
BRANCH  24  26
ATOM     25  O   UNL     1      34.370 -13.383 -19.823  0.00  0.00    -0.247 OA
ATOM     26  N   UNL     1      34.399 -14.254 -22.037  0.00  0.00    -0.280 N 
ATOM     27  N   UNL     1      34.859 -15.646 -20.299  0.00  0.00    -0.305 N 
ATOM     28  C   UNL     1      34.656 -15.536 -22.552  0.00  0.00    +0.079 A 
ATOM     29  C   UNL     1      34.521 -14.300 -20.616  0.00  0.00    +0.328 A 
ATOM     30  C   UNL     1      34.938 -16.382 -21.482  0.00  0.00    +0.076 A 
ATOM     31  C   UNL     1      34.659 -15.993 -23.854  0.00  0.00    +0.019 C 
ATOM     32  C   UNL     1      35.234 -17.716 -21.653  0.00  0.00    +0.019 C 
ATOM     33  C   UNL     1      34.958 -17.345 -24.054  0.00  0.00    +0.002 C 
ATOM     34  C   UNL     1      35.242 -18.197 -22.965  0.00  0.00    +0.002 C 
ATOM     35  H   UNL     1      35.013 -15.999 -19.393  0.00  0.00    +0.170 HD
ENDBRANCH  24  26
ENDBRANCH  23  24
ENDBRANCH  22  23
ENDBRANCH   2  22
TORSDOF 7
ENDMDL
MODEL 9
REMARK VINA RESULT:     -10.1      1.488      3.789
REMARK  Name = 4615
REMARK  7 active torsions:
REMARK  status: ('A' for Active; 'I' for Inactive)
REMARK    1  A    between atoms: N_1  and  C_9
REMARK    2  A    between atoms: N_2  and  C_22
REMARK    3  A    between atoms: C_9  and  C_10
REMARK    4  A    between atoms: C_9  and  C_16
REMARK    5  A    between atoms: C_22  and  C_23
REMARK    6  A    between atoms: C_23  and  C_24
REMARK    7  A    between atoms: C_24  and  N_26
REMARK                            x       y       z     vdW  Elec       q    Type
REMARK                         _______ _______ _______ _____ _____    ______ ____
ROOT
ATOM      1  N   UNL     1      34.637 -23.189 -15.680  0.00  0.00    +0.390 N 
ATOM      2  N   UNL     1      35.916 -22.209 -18.080  0.00  0.00    +0.384 N 
ATOM      3  C   UNL     1      36.091 -22.995 -15.744  0.00  0.00    -0.100 C 
ATOM      4  C   UNL     1      34.104 -23.504 -17.011  0.00  0.00    -0.100 C 
ATOM      5  C   UNL     1      36.451 -21.896 -16.749  0.00  0.00    -0.101 C 
ATOM      6  C   UNL     1      34.462 -22.403 -18.015  0.00  0.00    -0.101 C 
ATOM      7  H   UNL     1      34.211 -22.319 -15.360  0.00  0.00    -0.079 HD
ATOM      8  H   UNL     1      36.343 -23.078 -18.402  0.00  0.00    -0.080 HD
ENDROOT
BRANCH   1   9
ATOM      9  C   UNL     1      34.295 -24.238 -14.722  0.00  0.00    -0.012 C 
BRANCH   9  10
ATOM     10  C   UNL     1      35.308 -24.342 -13.591  0.00  0.00    -0.038 C 
ATOM     11  C   UNL     1      36.300 -25.299 -13.669  0.00  0.00    -0.006 C 
ATOM     12  C   UNL     1      35.204 -23.479 -12.519  0.00  0.00    -0.006 C 
ATOM     13  C   UNL     1      37.227 -25.395 -12.632  0.00  0.00    -0.000 C 
ATOM     14  C   UNL     1      36.131 -23.575 -11.482  0.00  0.00    -0.000 C 
ATOM     15  C   UNL     1      37.143 -24.533 -11.539  0.00  0.00    -0.000 C 
ENDBRANCH   9  10
BRANCH   9  16
ATOM     16  C   UNL     1      32.872 -24.105 -14.199  0.00  0.00    -0.038 C 
ATOM     17  C   UNL     1      32.311 -25.165 -13.517  0.00  0.00    -0.006 C 
ATOM     18  C   UNL     1      32.186 -22.930 -14.425  0.00  0.00    -0.006 C 
ATOM     19  C   UNL     1      31.007 -25.044 -13.038  0.00  0.00    -0.000 C 
ATOM     20  C   UNL     1      30.880 -22.809 -13.946  0.00  0.00    -0.000 C 
ATOM     21  C   UNL     1      30.292 -23.866 -13.252  0.00  0.00    -0.000 C 
ENDBRANCH   9  16
ENDBRANCH   1   9
BRANCH   2  22
ATOM     22  C   UNL     1      36.256 -21.158 -19.037  0.00  0.00    -0.076 C 
BRANCH  22  23
ATOM     23  C   UNL     1      35.036 -20.695 -19.837  0.00  0.00    +0.002 C 
BRANCH  23  24
ATOM     24  C   UNL     1      35.269 -20.595 -21.343  0.00  0.00    +0.108 C 
BRANCH  24  26
ATOM     25  O   UNL     1      37.041 -18.447 -20.180  0.00  0.00    -0.247 OA
ATOM     26  N   UNL     1      35.471 -19.241 -21.781  0.00  0.00    -0.280 N 
ATOM     27  N   UNL     1      36.212 -17.098 -21.934  0.00  0.00    -0.305 N 
ATOM     28  C   UNL     1      34.850 -18.636 -22.887  0.00  0.00    +0.079 A 
ATOM     29  C   UNL     1      36.335 -18.289 -21.165  0.00  0.00    +0.328 A 
ATOM     30  C   UNL     1      35.309 -17.323 -22.974  0.00  0.00    +0.076 A 
ATOM     31  C   UNL     1      33.941 -19.143 -23.792  0.00  0.00    +0.019 C 
ATOM     32  C   UNL     1      34.888 -16.457 -23.958  0.00  0.00    +0.019 C 
ATOM     33  C   UNL     1      33.498 -18.283 -24.801  0.00  0.00    +0.002 C 
ATOM     34  C   UNL     1      33.967 -16.954 -24.884  0.00  0.00    +0.002 C 
ATOM     35  H   UNL     1      36.686 -16.252 -21.761  0.00  0.00    +0.170 HD
ENDBRANCH  24  26
ENDBRANCH  23  24
ENDBRANCH  22  23
ENDBRANCH   2  22
TORSDOF 7
ENDMDL
