MODEL 1
REMARK VINA RESULT:     -10.9      0.000      0.000
REMARK  Name = 46937158
REMARK  3 active torsions:
REMARK  status: ('A' for Active; 'I' for Inactive)
REMARK    1  A    between atoms: N_2  and  C_19
REMARK    2  A    between atoms: C_7  and  C_13
REMARK    3  A    between atoms: C_19  and  C_21
REMARK                            x       y       z     vdW  Elec       q    Type
REMARK                         _______ _______ _______ _____ _____    ______ ____
ROOT
ATOM      1  N   UNL     1      32.583 -23.692 -15.061  0.00  0.00    -0.260 N 
ATOM      2  N   UNL     1      34.369 -22.267 -17.973  0.00  0.00    -0.302 N 
ATOM      3  N   UNL     1      35.145 -23.351 -16.055  0.00  0.00    -0.387 NA
ATOM      4  N   UNL     1      31.668 -22.676 -16.823  0.00  0.00    -0.224 NA
ATOM      5  C   UNL     1      32.790 -23.062 -16.261  0.00  0.00    +0.180 C 
ATOM      6  C   UNL     1      34.137 -22.891 -16.770  0.00  0.00    +0.212 C 
ATOM      7  C   UNL     1      34.899 -23.980 -14.834  0.00  0.00    +0.133 C 
ATOM      8  C   UNL     1      33.657 -24.164 -14.333  0.00  0.00    +0.156 C 
ATOM      9  C   UNL     1      31.235 -23.712 -14.842  0.00  0.00    +0.088 C 
ATOM     10  C   UNL     1      30.693 -23.080 -15.941  0.00  0.00    +0.117 C 
ATOM     11  H   UNL     1      33.602 -21.933 -18.492  0.00  0.00    +0.150 HD
ENDROOT
BRANCH   7  13
ATOM     12  F   UNL     1      36.003 -26.547 -15.268  0.00  0.00    -0.204 F 
ATOM     13  C   UNL     1      36.072 -24.485 -14.085  0.00  0.00    +0.055 C 
ATOM     14  C   UNL     1      36.572 -25.760 -14.343  0.00  0.00    +0.142 C 
ATOM     15  C   UNL     1      36.676 -23.680 -13.121  0.00  0.00    +0.005 C 
ATOM     16  C   UNL     1      37.679 -26.231 -13.636  0.00  0.00    +0.030 C 
ATOM     17  C   UNL     1      37.782 -24.150 -12.413  0.00  0.00    +0.000 C 
ATOM     18  C   UNL     1      38.284 -25.426 -12.671  0.00  0.00    +0.002 C 
ENDBRANCH   7  13
BRANCH   2  19
ATOM     19  C   UNL     1      35.686 -22.088 -18.493  0.00  0.00    +0.118 C 
BRANCH  19  21
ATOM     20  N   UNL     1      36.985 -19.052 -20.340  0.00  0.00    -0.243 NA
ATOM     21  C   UNL     1      35.732 -20.901 -19.415  0.00  0.00    +0.017 C 
ATOM     22  C   UNL     1      34.626 -20.543 -20.176  0.00  0.00    +0.001 C 
ATOM     23  C   UNL     1      36.877 -20.131 -19.532  0.00  0.00    +0.096 C 
ATOM     24  C   UNL     1      34.697 -19.440 -21.019  0.00  0.00    +0.020 C 
ATOM     25  C   UNL     1      35.888 -18.733 -21.065  0.00  0.00    +0.099 C 
ENDBRANCH  19  21
ENDBRANCH   2  19
TORSDOF 3
ENDMDL
MODEL 2
REMARK VINA RESULT:     -10.7      1.678      4.621
REMARK  Name = 46937158
REMARK  3 active torsions:
REMARK  status: ('A' for Active; 'I' for Inactive)
REMARK    1  A    between atoms: N_2  and  C_19
REMARK    2  A    between atoms: C_7  and  C_13
REMARK    3  A    between atoms: C_19  and  C_21
REMARK                            x       y       z     vdW  Elec       q    Type
REMARK                         _______ _______ _______ _____ _____    ______ ____
ROOT
ATOM      1  N   UNL     1      34.973 -23.503 -14.244  0.00  0.00    -0.260 N 
ATOM      2  N   UNL     1      35.344 -22.330 -17.734  0.00  0.00    -0.302 N 
ATOM      3  N   UNL     1      33.466 -22.979 -16.507  0.00  0.00    -0.387 NA
ATOM      4  N   UNL     1      36.870 -22.924 -15.263  0.00  0.00    -0.224 NA
ATOM      5  C   UNL     1      35.570 -23.056 -15.393  0.00  0.00    +0.180 C 
ATOM      6  C   UNL     1      34.768 -22.784 -16.571  0.00  0.00    +0.212 C 
ATOM      7  C   UNL     1      32.892 -23.442 -15.323  0.00  0.00    +0.133 C 
ATOM      8  C   UNL     1      33.607 -23.699 -14.204  0.00  0.00    +0.156 C 
ATOM      9  C   UNL     1      35.959 -23.666 -13.312  0.00  0.00    +0.088 C 
ATOM     10  C   UNL     1      37.119 -23.304 -13.965  0.00  0.00    +0.117 C 
ATOM     11  H   UNL     1      36.319 -22.190 -17.760  0.00  0.00    +0.150 HD
ENDROOT
BRANCH   7  13
ATOM     12  F   UNL     1      31.626 -25.527 -13.893  0.00  0.00    -0.204 F 
ATOM     13  C   UNL     1      31.424 -23.629 -15.312  0.00  0.00    +0.055 C 
ATOM     14  C   UNL     1      30.856 -24.677 -14.587  0.00  0.00    +0.142 C 
ATOM     15  C   UNL     1      30.608 -22.753 -16.027  0.00  0.00    +0.005 C 
ATOM     16  C   UNL     1      29.471 -24.848 -14.579  0.00  0.00    +0.030 C 
ATOM     17  C   UNL     1      29.224 -22.925 -16.019  0.00  0.00    +0.000 C 
ATOM     18  C   UNL     1      28.655 -23.972 -15.294  0.00  0.00    +0.002 C 
ENDBRANCH   7  13
BRANCH   2  19
ATOM     19  C   UNL     1      34.575 -22.056 -18.905  0.00  0.00    +0.118 C 
BRANCH  19  21
ATOM     20  N   UNL     1      37.024 -19.417 -20.069  0.00  0.00    -0.243 NA
ATOM     21  C   UNL     1      35.145 -20.879 -19.646  0.00  0.00    +0.017 C 
ATOM     22  C   UNL     1      34.377 -20.169 -20.563  0.00  0.00    +0.001 C 
ATOM     23  C   UNL     1      36.451 -20.467 -19.438  0.00  0.00    +0.096 C 
ATOM     24  C   UNL     1      34.931 -19.084 -21.232  0.00  0.00    +0.020 C 
ATOM     25  C   UNL     1      36.246 -18.751 -20.953  0.00  0.00    +0.099 C 
ENDBRANCH  19  21
ENDBRANCH   2  19
TORSDOF 3
ENDMDL
MODEL 3
REMARK VINA RESULT:     -10.1      1.719      2.200
REMARK  Name = 46937158
REMARK  3 active torsions:
REMARK  status: ('A' for Active; 'I' for Inactive)
REMARK    1  A    between atoms: N_2  and  C_19
REMARK    2  A    between atoms: C_7  and  C_13
REMARK    3  A    between atoms: C_19  and  C_21
REMARK                            x       y       z     vdW  Elec       q    Type
REMARK                         _______ _______ _______ _____ _____    ______ ____
ROOT
ATOM      1  N   UNL     1      32.403 -24.226 -13.763  0.00  0.00    -0.260 N 
ATOM      2  N   UNL     1      33.456 -22.857 -17.036  0.00  0.00    -0.302 N 
ATOM      3  N   UNL     1      34.675 -23.822 -15.293  0.00  0.00    -0.387 NA
ATOM      4  N   UNL     1      31.085 -23.328 -15.322  0.00  0.00    -0.224 NA
ATOM      5  C   UNL     1      32.318 -23.641 -15.000  0.00  0.00    +0.180 C 
ATOM      6  C   UNL     1      33.517 -23.437 -15.791  0.00  0.00    +0.212 C 
ATOM      7  C   UNL     1      34.725 -24.407 -14.028  0.00  0.00    +0.133 C 
ATOM      8  C   UNL     1      33.629 -24.620 -13.266  0.00  0.00    +0.156 C 
ATOM      9  C   UNL     1      31.135 -24.293 -13.260  0.00  0.00    +0.088 C 
ATOM     10  C   UNL     1      30.341 -23.733 -14.238  0.00  0.00    +0.117 C 
ATOM     11  H   UNL     1      32.581 -22.578 -17.390  0.00  0.00    +0.150 HD
ENDROOT
BRANCH   7  13
ATOM     12  F   UNL     1      36.119 -23.004 -12.008  0.00  0.00    -0.204 F 
ATOM     13  C   UNL     1      36.055 -24.829 -13.531  0.00  0.00    +0.055 C 
ATOM     14  C   UNL     1      36.694 -24.096 -12.531  0.00  0.00    +0.142 C 
ATOM     15  C   UNL     1      36.666 -25.963 -14.064  0.00  0.00    +0.005 C 
ATOM     16  C   UNL     1      37.946 -24.498 -12.065  0.00  0.00    +0.030 C 
ATOM     17  C   UNL     1      37.918 -26.365 -13.599  0.00  0.00    +0.000 C 
ATOM     18  C   UNL     1      38.558 -25.632 -12.598  0.00  0.00    +0.002 C 
ENDBRANCH   7  13
BRANCH   2  19
ATOM     19  C   UNL     1      34.622 -22.647 -17.832  0.00  0.00    +0.118 C 
BRANCH  19  21
ATOM     20  N   UNL     1      32.736 -20.372 -20.197  0.00  0.00    -0.243 NA
ATOM     21  C   UNL     1      34.348 -21.636 -18.911  0.00  0.00    +0.017 C 
ATOM     22  C   UNL     1      35.389 -21.036 -19.612  0.00  0.00    +0.001 C 
ATOM     23  C   UNL     1      33.052 -21.273 -19.238  0.00  0.00    +0.096 C 
ATOM     24  C   UNL     1      35.105 -20.105 -20.605  0.00  0.00    +0.020 C 
ATOM     25  C   UNL     1      33.775 -19.810 -20.857  0.00  0.00    +0.099 C 
ENDBRANCH  19  21
ENDBRANCH   2  19
TORSDOF 3
ENDMDL
MODEL 4
REMARK VINA RESULT:     -10.1      2.250      6.247
REMARK  Name = 46937158
REMARK  3 active torsions:
REMARK  status: ('A' for Active; 'I' for Inactive)
REMARK    1  A    between atoms: N_2  and  C_19
REMARK    2  A    between atoms: C_7  and  C_13
REMARK    3  A    between atoms: C_19  and  C_21
REMARK                            x       y       z     vdW  Elec       q    Type
REMARK                         _______ _______ _______ _____ _____    ______ ____
ROOT
ATOM      1  N   UNL     1      31.818 -24.119 -15.041  0.00  0.00    -0.260 N 
ATOM      2  N   UNL     1      34.777 -23.818 -12.839  0.00  0.00    -0.302 N 
ATOM      3  N   UNL     1      34.418 -23.166 -15.053  0.00  0.00    -0.387 NA
ATOM      4  N   UNL     1      31.986 -24.810 -12.928  0.00  0.00    -0.224 NA
ATOM      5  C   UNL     1      32.608 -24.229 -13.926  0.00  0.00    +0.180 C 
ATOM      6  C   UNL     1      33.968 -23.724 -13.946  0.00  0.00    +0.212 C 
ATOM      7  C   UNL     1      33.589 -23.077 -16.171  0.00  0.00    +0.133 C 
ATOM      8  C   UNL     1      32.315 -23.530 -16.187  0.00  0.00    +0.156 C 
ATOM      9  C   UNL     1      30.605 -24.667 -14.733  0.00  0.00    +0.088 C 
ATOM     10  C   UNL     1      30.734 -25.087 -13.426  0.00  0.00    +0.117 C 
ATOM     11  H   UNL     1      34.420 -24.237 -12.022  0.00  0.00    +0.150 HD
ENDROOT
BRANCH   7  13
ATOM     12  F   UNL     1      36.360 -22.641 -16.525  0.00  0.00    -0.204 F 
ATOM     13  C   UNL     1      34.150 -22.429 -17.378  0.00  0.00    +0.055 C 
ATOM     14  C   UNL     1      35.527 -22.241 -17.497  0.00  0.00    +0.142 C 
ATOM     15  C   UNL     1      33.298 -22.008 -18.398  0.00  0.00    +0.005 C 
ATOM     16  C   UNL     1      36.051 -21.631 -18.637  0.00  0.00    +0.030 C 
ATOM     17  C   UNL     1      33.821 -21.398 -19.537  0.00  0.00    +0.000 C 
ATOM     18  C   UNL     1      35.199 -21.209 -19.657  0.00  0.00    +0.002 C 
ENDBRANCH   7  13
BRANCH   2  19
ATOM     19  C   UNL     1      36.118 -23.328 -12.835  0.00  0.00    +0.118 C 
BRANCH  19  21
ATOM     20  N   UNL     1      37.768 -26.723 -13.104  0.00  0.00    -0.243 NA
ATOM     21  C   UNL     1      37.075 -24.411 -13.250  0.00  0.00    +0.017 C 
ATOM     22  C   UNL     1      38.122 -24.144 -14.125  0.00  0.00    +0.001 C 
ATOM     23  C   UNL     1      36.942 -25.704 -12.772  0.00  0.00    +0.096 C 
ATOM     24  C   UNL     1      38.992 -25.165 -14.490  0.00  0.00    +0.020 C 
ATOM     25  C   UNL     1      38.775 -26.425 -13.957  0.00  0.00    +0.099 C 
ENDBRANCH  19  21
ENDBRANCH   2  19
TORSDOF 3
ENDMDL
MODEL 5
REMARK VINA RESULT:     -10.0     11.296     15.534
REMARK  Name = 46937158
REMARK  3 active torsions:
REMARK  status: ('A' for Active; 'I' for Inactive)
REMARK    1  A    between atoms: N_2  and  C_19
REMARK    2  A    between atoms: C_7  and  C_13
REMARK    3  A    between atoms: C_19  and  C_21
REMARK                            x       y       z     vdW  Elec       q    Type
REMARK                         _______ _______ _______ _____ _____    ______ ____
ROOT
ATOM      1  N   UNL     1      32.082  -9.250 -20.589  0.00  0.00    -0.260 N 
ATOM      2  N   UNL     1      32.605 -12.197 -22.764  0.00  0.00    -0.302 N 
ATOM      3  N   UNL     1      33.064  -9.930 -23.086  0.00  0.00    -0.387 NA
ATOM      4  N   UNL     1      31.571 -11.368 -20.113  0.00  0.00    -0.224 NA
ATOM      5  C   UNL     1      32.076 -10.554 -21.011  0.00  0.00    +0.180 C 
ATOM      6  C   UNL     1      32.595 -10.896 -22.321  0.00  0.00    +0.212 C 
ATOM      7  C   UNL     1      33.048  -8.613 -22.627  0.00  0.00    +0.133 C 
ATOM      8  C   UNL     1      32.579  -8.258 -21.410  0.00  0.00    +0.156 C 
ATOM      9  C   UNL     1      31.545  -9.229 -19.332  0.00  0.00    +0.088 C 
ATOM     10  C   UNL     1      31.238 -10.546 -19.062  0.00  0.00    +0.117 C 
ATOM     11  H   UNL     1      32.251 -12.904 -22.176  0.00  0.00    +0.150 HD
ENDROOT
BRANCH   7  13
ATOM     12  F   UNL     1      31.534  -7.423 -24.698  0.00  0.00    -0.204 F 
ATOM     13  C   UNL     1      33.600  -7.577 -23.529  0.00  0.00    +0.055 C 
ATOM     14  C   UNL     1      32.805  -7.025 -24.533  0.00  0.00    +0.142 C 
ATOM     15  C   UNL     1      34.919  -7.152 -23.371  0.00  0.00    +0.005 C 
ATOM     16  C   UNL     1      33.329  -6.048 -25.380  0.00  0.00    +0.030 C 
ATOM     17  C   UNL     1      35.443  -6.175 -24.218  0.00  0.00    +0.000 C 
ATOM     18  C   UNL     1      34.648  -5.623 -25.222  0.00  0.00    +0.002 C 
ENDBRANCH   7  13
BRANCH   2  19
ATOM     19  C   UNL     1      33.111 -12.557 -24.050  0.00  0.00    +0.118 C 
BRANCH  19  21
ATOM     20  N   UNL     1      33.926 -16.093 -25.123  0.00  0.00    -0.243 NA
ATOM     21  C   UNL     1      33.666 -13.954 -24.025  0.00  0.00    +0.017 C 
ATOM     22  C   UNL     1      34.406 -14.412 -22.940  0.00  0.00    +0.001 C 
ATOM     23  C   UNL     1      33.457 -14.825 -25.082  0.00  0.00    +0.096 C 
ATOM     24  C   UNL     1      34.906 -15.710 -22.945  0.00  0.00    +0.020 C 
ATOM     25  C   UNL     1      34.641 -16.503 -24.049  0.00  0.00    +0.099 C 
ENDBRANCH  19  21
ENDBRANCH   2  19
TORSDOF 3
ENDMDL
MODEL 6
REMARK VINA RESULT:      -9.9     11.274     15.593
REMARK  Name = 46937158
REMARK  3 active torsions:
REMARK  status: ('A' for Active; 'I' for Inactive)
REMARK    1  A    between atoms: N_2  and  C_19
REMARK    2  A    between atoms: C_7  and  C_13
REMARK    3  A    between atoms: C_19  and  C_21
REMARK                            x       y       z     vdW  Elec       q    Type
REMARK                         _______ _______ _______ _____ _____    ______ ____
ROOT
ATOM      1  N   UNL     1      32.126  -9.146 -20.666  0.00  0.00    -0.260 N 
ATOM      2  N   UNL     1      32.637 -12.119 -22.808  0.00  0.00    -0.302 N 
ATOM      3  N   UNL     1      33.030  -9.848 -23.187  0.00  0.00    -0.387 NA
ATOM      4  N   UNL     1      31.685 -11.266 -20.134  0.00  0.00    -0.224 NA
ATOM      5  C   UNL     1      32.136 -10.457 -21.065  0.00  0.00    +0.180 C 
ATOM      6  C   UNL     1      32.613 -10.811 -22.388  0.00  0.00    +0.212 C 
ATOM      7  C   UNL     1      32.999  -8.524 -22.751  0.00  0.00    +0.133 C 
ATOM      8  C   UNL     1      32.568  -8.157 -21.523  0.00  0.00    +0.156 C 
ATOM      9  C   UNL     1      31.638  -9.114 -19.390  0.00  0.00    +0.088 C 
ATOM     10  C   UNL     1      31.372 -10.433 -19.086  0.00  0.00    +0.117 C 
ATOM     11  H   UNL     1      32.323 -12.823 -22.195  0.00  0.00    +0.150 HD
ENDROOT
BRANCH   7  13
ATOM     12  F   UNL     1      35.625  -7.483 -22.641  0.00  0.00    -0.204 F 
ATOM     13  C   UNL     1      33.491  -7.491 -23.691  0.00  0.00    +0.055 C 
ATOM     14  C   UNL     1      34.798  -7.016 -23.588  0.00  0.00    +0.142 C 
ATOM     15  C   UNL     1      32.644  -6.996 -24.682  0.00  0.00    +0.005 C 
ATOM     16  C   UNL     1      35.258  -6.044 -24.477  0.00  0.00    +0.030 C 
ATOM     17  C   UNL     1      33.103  -6.023 -25.570  0.00  0.00    +0.000 C 
ATOM     18  C   UNL     1      34.411  -5.548 -25.468  0.00  0.00    +0.002 C 
ENDBRANCH   7  13
BRANCH   2  19
ATOM     19  C   UNL     1      33.102 -12.491 -24.106  0.00  0.00    +0.118 C 
BRANCH  19  21
ATOM     20  N   UNL     1      33.863 -16.039 -25.181  0.00  0.00    -0.243 NA
ATOM     21  C   UNL     1      33.648 -13.892 -24.089  0.00  0.00    +0.017 C 
ATOM     22  C   UNL     1      34.415 -14.349 -23.023  0.00  0.00    +0.001 C 
ATOM     23  C   UNL     1      33.403 -14.767 -25.134  0.00  0.00    +0.096 C 
ATOM     24  C   UNL     1      34.906 -15.650 -23.034  0.00  0.00    +0.020 C 
ATOM     25  C   UNL     1      34.604 -16.448 -24.125  0.00  0.00    +0.099 C 
ENDBRANCH  19  21
ENDBRANCH   2  19
TORSDOF 3
ENDMDL
MODEL 7
REMARK VINA RESULT:      -9.8      1.724      5.263
REMARK  Name = 46937158
REMARK  3 active torsions:
REMARK  status: ('A' for Active; 'I' for Inactive)
REMARK    1  A    between atoms: N_2  and  C_19
REMARK    2  A    between atoms: C_7  and  C_13
REMARK    3  A    between atoms: C_19  and  C_21
REMARK                            x       y       z     vdW  Elec       q    Type
REMARK                         _______ _______ _______ _____ _____    ______ ____
ROOT
ATOM      1  N   UNL     1      36.294 -22.167 -17.184  0.00  0.00    -0.260 N 
ATOM      2  N   UNL     1      32.876 -23.353 -16.406  0.00  0.00    -0.302 N 
ATOM      3  N   UNL     1      34.872 -23.469 -15.198  0.00  0.00    -0.387 NA
ATOM      4  N   UNL     1      34.486 -21.971 -18.475  0.00  0.00    -0.224 NA
ATOM      5  C   UNL     1      34.955 -22.415 -17.332  0.00  0.00    +0.180 C 
ATOM      6  C   UNL     1      34.221 -23.098 -16.282  0.00  0.00    +0.212 C 
ATOM      7  C   UNL     1      36.237 -23.207 -15.084  0.00  0.00    +0.133 C 
ATOM      8  C   UNL     1      36.951 -22.567 -16.037  0.00  0.00    +0.156 C 
ATOM      9  C   UNL     1      36.712 -21.516 -18.311  0.00  0.00    +0.088 C 
ATOM     10  C   UNL     1      35.580 -21.409 -19.092  0.00  0.00    +0.117 C 
ATOM     11  H   UNL     1      32.409 -23.066 -17.224  0.00  0.00    +0.150 HD
ENDROOT
BRANCH   7  13
ATOM     12  F   UNL     1      37.699 -25.619 -14.889  0.00  0.00    -0.204 F 
ATOM     13  C   UNL     1      36.907 -23.639 -13.836  0.00  0.00    +0.055 C 
ATOM     14  C   UNL     1      37.614 -24.840 -13.800  0.00  0.00    +0.142 C 
ATOM     15  C   UNL     1      36.829 -22.840 -12.696  0.00  0.00    +0.005 C 
ATOM     16  C   UNL     1      38.245 -25.242 -12.622  0.00  0.00    +0.030 C 
ATOM     17  C   UNL     1      37.459 -23.243 -11.518  0.00  0.00    +0.000 C 
ATOM     18  C   UNL     1      38.167 -24.444 -11.481  0.00  0.00    +0.002 C 
ENDBRANCH   7  13
BRANCH   2  19
ATOM     19  C   UNL     1      32.135 -24.023 -15.386  0.00  0.00    +0.118 C 
BRANCH  19  21
ATOM     20  N   UNL     1      28.918 -22.307 -16.397  0.00  0.00    -0.243 NA
ATOM     21  C   UNL     1      30.667 -23.729 -15.523  0.00  0.00    +0.017 C 
ATOM     22  C   UNL     1      29.714 -24.554 -14.936  0.00  0.00    +0.001 C 
ATOM     23  C   UNL     1      30.222 -22.628 -16.237  0.00  0.00    +0.096 C 
ATOM     24  C   UNL     1      28.363 -24.256 -15.079  0.00  0.00    +0.020 C 
ATOM     25  C   UNL     1      28.020 -23.132 -15.812  0.00  0.00    +0.099 C 
ENDBRANCH  19  21
ENDBRANCH   2  19
TORSDOF 3
ENDMDL
MODEL 8
REMARK VINA RESULT:      -9.5      2.017      6.323
REMARK  Name = 46937158
REMARK  3 active torsions:
REMARK  status: ('A' for Active; 'I' for Inactive)
REMARK    1  A    between atoms: N_2  and  C_19
REMARK    2  A    between atoms: C_7  and  C_13
REMARK    3  A    between atoms: C_19  and  C_21
REMARK                            x       y       z     vdW  Elec       q    Type
REMARK                         _______ _______ _______ _____ _____    ______ ____
ROOT
ATOM      1  N   UNL     1      34.093 -22.421 -17.923  0.00  0.00    -0.260 N 
ATOM      2  N   UNL     1      36.738 -22.786 -15.361  0.00  0.00    -0.302 N 
ATOM      3  N   UNL     1      34.449 -23.249 -15.306  0.00  0.00    -0.387 NA
ATOM      4  N   UNL     1      36.253 -21.918 -18.153  0.00  0.00    -0.224 NA
ATOM      5  C   UNL     1      35.332 -22.377 -17.339  0.00  0.00    +0.180 C 
ATOM      6  C   UNL     1      35.504 -22.816 -15.967  0.00  0.00    +0.212 C 
ATOM      7  C   UNL     1      33.202 -23.273 -15.929  0.00  0.00    +0.133 C 
ATOM      8  C   UNL     1      33.005 -22.880 -17.208  0.00  0.00    +0.156 C 
ATOM      9  C   UNL     1      34.232 -21.959 -19.202  0.00  0.00    +0.088 C 
ATOM     10  C   UNL     1      35.572 -21.654 -19.319  0.00  0.00    +0.117 C 
ATOM     11  H   UNL     1      37.513 -22.460 -15.874  0.00  0.00    +0.150 HD
ENDROOT
BRANCH   7  13
ATOM     12  F   UNL     1      33.533 -24.875 -13.623  0.00  0.00    -0.204 F 
ATOM     13  C   UNL     1      32.060 -23.782 -15.137  0.00  0.00    +0.055 C 
ATOM     14  C   UNL     1      32.286 -24.568 -14.007  0.00  0.00    +0.142 C 
ATOM     15  C   UNL     1      30.756 -23.473 -15.522  0.00  0.00    +0.005 C 
ATOM     16  C   UNL     1      31.206 -25.045 -13.263  0.00  0.00    +0.030 C 
ATOM     17  C   UNL     1      29.677 -23.949 -14.778  0.00  0.00    +0.000 C 
ATOM     18  C   UNL     1      29.902 -24.736 -13.648  0.00  0.00    +0.002 C 
ENDBRANCH   7  13
BRANCH   2  19
ATOM     19  C   UNL     1      36.931 -23.213 -14.013  0.00  0.00    +0.118 C 
BRANCH  19  21
ATOM     20  N   UNL     1      38.914 -26.223 -12.860  0.00  0.00    -0.243 NA
ATOM     21  C   UNL     1      38.011 -24.256 -13.940  0.00  0.00    +0.017 C 
ATOM     22  C   UNL     1      39.076 -24.249 -14.834  0.00  0.00    +0.001 C 
ATOM     23  C   UNL     1      37.976 -25.255 -12.981  0.00  0.00    +0.096 C 
ATOM     24  C   UNL     1      40.060 -25.227 -14.742  0.00  0.00    +0.020 C 
ATOM     25  C   UNL     1      39.935 -26.182 -13.746  0.00  0.00    +0.099 C 
ENDBRANCH  19  21
ENDBRANCH   2  19
TORSDOF 3
ENDMDL
MODEL 9
REMARK VINA RESULT:      -9.5      2.325      6.679
REMARK  Name = 46937158
REMARK  3 active torsions:
REMARK  status: ('A' for Active; 'I' for Inactive)
REMARK    1  A    between atoms: N_2  and  C_19
REMARK    2  A    between atoms: C_7  and  C_13
REMARK    3  A    between atoms: C_19  and  C_21
REMARK                            x       y       z     vdW  Elec       q    Type
REMARK                         _______ _______ _______ _____ _____    ______ ____
ROOT
ATOM      1  N   UNL     1      31.596 -23.046 -16.250  0.00  0.00    -0.260 N 
ATOM      2  N   UNL     1      34.514 -24.645 -14.631  0.00  0.00    -0.302 N 
ATOM      3  N   UNL     1      34.346 -23.248 -16.495  0.00  0.00    -0.387 NA
ATOM      4  N   UNL     1      31.568 -24.370 -14.456  0.00  0.00    -0.224 NA
ATOM      5  C   UNL     1      32.323 -23.802 -15.368  0.00  0.00    +0.180 C 
ATOM      6  C   UNL     1      33.764 -23.898 -15.507  0.00  0.00    +0.212 C 
ATOM      7  C   UNL     1      33.575 -22.495 -17.380  0.00  0.00    +0.133 C 
ATOM      8  C   UNL     1      32.232 -22.376 -17.276  0.00  0.00    +0.156 C 
ATOM      9  C   UNL     1      30.285 -23.135 -15.876  0.00  0.00    +0.088 C 
ATOM     10  C   UNL     1      30.294 -23.957 -14.769  0.00  0.00    +0.117 C 
ATOM     11  H   UNL     1      34.059 -25.121 -13.899  0.00  0.00    +0.150 HD
ENDROOT
BRANCH   7  13
ATOM     12  F   UNL     1      32.268 -20.776 -19.205  0.00  0.00    -0.204 F 
ATOM     13  C   UNL     1      34.291 -21.780 -18.460  0.00  0.00    +0.055 C 
ATOM     14  C   UNL     1      33.592 -20.944 -19.331  0.00  0.00    +0.142 C 
ATOM     15  C   UNL     1      35.669 -21.943 -18.605  0.00  0.00    +0.005 C 
ATOM     16  C   UNL     1      34.272 -20.272 -20.348  0.00  0.00    +0.030 C 
ATOM     17  C   UNL     1      36.348 -21.271 -19.622  0.00  0.00    +0.000 C 
ATOM     18  C   UNL     1      35.649 -20.435 -20.493  0.00  0.00    +0.002 C 
ENDBRANCH   7  13
BRANCH   2  19
ATOM     19  C   UNL     1      35.932 -24.754 -14.749  0.00  0.00    +0.118 C 
BRANCH  19  21
ATOM     20  N   UNL     1      37.610 -25.477 -11.434  0.00  0.00    -0.243 NA
ATOM     21  C   UNL     1      36.590 -24.535 -13.415  0.00  0.00    +0.017 C 
ATOM     22  C   UNL     1      36.794 -23.252 -12.918  0.00  0.00    +0.001 C 
ATOM     23  C   UNL     1      37.013 -25.604 -12.642  0.00  0.00    +0.096 C 
ATOM     24  C   UNL     1      37.404 -23.080 -11.681  0.00  0.00    +0.020 C 
ATOM     25  C   UNL     1      37.790 -24.214 -10.984  0.00  0.00    +0.099 C 
ENDBRANCH  19  21
ENDBRANCH   2  19
TORSDOF 3
ENDMDL
