MODEL 1
REMARK VINA RESULT:     -11.6      0.000      0.000
REMARK  Name = 10401956
REMARK  3 active torsions:
REMARK  status: ('A' for Active; 'I' for Inactive)
REMARK    1  A    between atoms: N_1  and  C_13
REMARK    2  A    between atoms: C_8  and  N_20
REMARK    3  A    between atoms: C_21  and  C_23
REMARK                            x       y       z     vdW  Elec       q    Type
REMARK                         _______ _______ _______ _____ _____    ______ ____
ROOT
ATOM      1  N   UNL     1      32.875 -22.317 -18.035  0.00  0.00    -0.301 N 
ATOM      2  N   UNL     1      33.723 -24.265 -14.484  0.00  0.00    -0.248 NA
ATOM      3  N   UNL     1      34.413 -23.405 -16.626  0.00  0.00    -0.233 NA
ATOM      4  C   UNL     1      32.123 -23.163 -15.890  0.00  0.00    +0.117 C 
ATOM      5  C   UNL     1      32.470 -23.830 -14.704  0.00  0.00    +0.067 C 
ATOM      6  C   UNL     1      33.148 -22.982 -16.814  0.00  0.00    +0.115 C 
ATOM      7  C   UNL     1      30.810 -22.712 -16.109  0.00  0.00    +0.001 C 
ATOM      8  C   UNL     1      29.831 -22.925 -15.144  0.00  0.00    +0.047 C 
ATOM      9  C   UNL     1      31.470 -24.029 -13.755  0.00  0.00    +0.016 C 
ATOM     10  C   UNL     1      30.162 -23.584 -13.965  0.00  0.00    +0.016 C 
ATOM     11  C   UNL     1      34.626 -24.029 -15.457  0.00  0.00    +0.251 C 
ATOM     12  H   UNL     1      31.935 -22.324 -18.328  0.00  0.00    +0.153 HD
ENDROOT
BRANCH   1  13
ATOM     13  C   UNL     1      33.762 -21.659 -18.868  0.00  0.00    +0.049 C 
ATOM     14  C   UNL     1      35.140 -21.949 -18.835  0.00  0.00    +0.015 C 
ATOM     15  C   UNL     1      33.312 -20.677 -19.773  0.00  0.00    +0.015 C 
ATOM     16  C   UNL     1      36.033 -21.283 -19.674  0.00  0.00    +0.001 C 
ATOM     17  C   UNL     1      34.207 -20.012 -20.612  0.00  0.00    +0.001 C 
ATOM     18  C   UNL     1      35.567 -20.315 -20.562  0.00  0.00    +0.000 C 
ENDBRANCH   1  13
BRANCH   8  20
ATOM     19  O   UNL     1      27.904 -23.538 -17.363  0.00  0.00    -0.270 OA
ATOM     20  N   UNL     1      28.527 -22.479 -15.356  0.00  0.00    -0.281 N 
ATOM     21  C   UNL     1      27.666 -22.800 -16.416  0.00  0.00    +0.250 C 
ATOM     22  H   UNL     1      28.165 -21.863 -14.677  0.00  0.00    +0.155 HD
BRANCH  21  23
ATOM     23  C   UNL     1      26.348 -22.114 -16.280  0.00  0.00    +0.058 C 
ATOM     24  C   UNL     1      25.927 -21.259 -17.217  0.00  0.00    +0.005 C 
ENDBRANCH  21  23
ENDBRANCH   8  20
TORSDOF 3
ENDMDL
MODEL 2
REMARK VINA RESULT:     -10.4      1.461      2.202
REMARK  Name = 10401956
REMARK  3 active torsions:
REMARK  status: ('A' for Active; 'I' for Inactive)
REMARK    1  A    between atoms: N_1  and  C_13
REMARK    2  A    between atoms: C_8  and  N_20
REMARK    3  A    between atoms: C_21  and  C_23
REMARK                            x       y       z     vdW  Elec       q    Type
REMARK                         _______ _______ _______ _____ _____    ______ ____
ROOT
ATOM      1  N   UNL     1      34.270 -22.231 -18.093  0.00  0.00    -0.301 N 
ATOM      2  N   UNL     1      36.034 -23.480 -14.564  0.00  0.00    -0.248 NA
ATOM      3  N   UNL     1      36.198 -22.565 -16.787  0.00  0.00    -0.233 NA
ATOM      4  C   UNL     1      34.044 -23.156 -15.863  0.00  0.00    +0.117 C 
ATOM      5  C   UNL     1      34.698 -23.566 -14.689  0.00  0.00    +0.067 C 
ATOM      6  C   UNL     1      34.858 -22.663 -16.878  0.00  0.00    +0.115 C 
ATOM      7  C   UNL     1      32.646 -23.249 -15.982  0.00  0.00    +0.001 C 
ATOM      8  C   UNL     1      31.890 -23.752 -14.928  0.00  0.00    +0.047 C 
ATOM      9  C   UNL     1      33.916 -24.065 -13.650  0.00  0.00    +0.016 C 
ATOM     10  C   UNL     1      32.526 -24.160 -13.761  0.00  0.00    +0.016 C 
ATOM     11  C   UNL     1      36.711 -22.985 -15.620  0.00  0.00    +0.251 C 
ATOM     12  H   UNL     1      33.386 -22.611 -18.302  0.00  0.00    +0.153 HD
ENDROOT
BRANCH   1  13
ATOM     13  C   UNL     1      34.781 -21.342 -19.022  0.00  0.00    +0.049 C 
ATOM     14  C   UNL     1      33.934 -20.677 -19.930  0.00  0.00    +0.015 C 
ATOM     15  C   UNL     1      36.163 -21.078 -19.087  0.00  0.00    +0.015 C 
ATOM     16  C   UNL     1      34.449 -19.782 -20.867  0.00  0.00    +0.001 C 
ATOM     17  C   UNL     1      36.677 -20.182 -20.026  0.00  0.00    +0.001 C 
ATOM     18  C   UNL     1      35.820 -19.534 -20.915  0.00  0.00    +0.000 C 
ENDBRANCH   1  13
BRANCH   8  20
ATOM     19  O   UNL     1      29.979 -22.269 -16.708  0.00  0.00    -0.270 OA
ATOM     20  N   UNL     1      30.503 -23.846 -15.041  0.00  0.00    -0.281 N 
ATOM     21  C   UNL     1      29.655 -23.125 -15.895  0.00  0.00    +0.250 C 
ATOM     22  H   UNL     1      30.065 -24.499 -14.448  0.00  0.00    +0.155 HD
BRANCH  21  23
ATOM     23  C   UNL     1      28.227 -23.518 -15.711  0.00  0.00    +0.058 C 
ATOM     24  C   UNL     1      27.303 -22.600 -15.413  0.00  0.00    +0.005 C 
ENDBRANCH  21  23
ENDBRANCH   8  20
TORSDOF 3
ENDMDL
MODEL 3
REMARK VINA RESULT:     -10.2      3.293      7.497
REMARK  Name = 10401956
REMARK  3 active torsions:
REMARK  status: ('A' for Active; 'I' for Inactive)
REMARK    1  A    between atoms: N_1  and  C_13
REMARK    2  A    between atoms: C_8  and  N_20
REMARK    3  A    between atoms: C_21  and  C_23
REMARK                            x       y       z     vdW  Elec       q    Type
REMARK                         _______ _______ _______ _____ _____    ______ ____
ROOT
ATOM      1  N   UNL     1      32.450 -23.721 -15.809  0.00  0.00    -0.301 N 
ATOM      2  N   UNL     1      34.797 -21.824 -18.641  0.00  0.00    -0.248 NA
ATOM      3  N   UNL     1      32.670 -22.693 -17.913  0.00  0.00    -0.233 NA
ATOM      4  C   UNL     1      34.616 -22.866 -16.488  0.00  0.00    +0.117 C 
ATOM      5  C   UNL     1      35.362 -22.218 -17.486  0.00  0.00    +0.067 C 
ATOM      6  C   UNL     1      33.268 -23.074 -16.768  0.00  0.00    +0.115 C 
ATOM      7  C   UNL     1      35.217 -23.273 -15.285  0.00  0.00    +0.001 C 
ATOM      8  C   UNL     1      36.570 -23.035 -15.068  0.00  0.00    +0.047 C 
ATOM      9  C   UNL     1      36.715 -21.993 -17.243  0.00  0.00    +0.016 C 
ATOM     10  C   UNL     1      37.320 -22.394 -16.048  0.00  0.00    +0.016 C 
ATOM     11  C   UNL     1      33.482 -22.083 -18.791  0.00  0.00    +0.251 C 
ATOM     12  H   UNL     1      32.920 -24.296 -15.161  0.00  0.00    +0.153 HD
ENDROOT
BRANCH   1  13
ATOM     13  C   UNL     1      31.076 -23.649 -15.667  0.00  0.00    +0.049 C 
ATOM     14  C   UNL     1      30.369 -22.489 -16.038  0.00  0.00    +0.015 C 
ATOM     15  C   UNL     1      30.344 -24.735 -15.146  0.00  0.00    +0.015 C 
ATOM     16  C   UNL     1      28.984 -22.417 -15.894  0.00  0.00    +0.001 C 
ATOM     17  C   UNL     1      28.958 -24.660 -15.001  0.00  0.00    +0.001 C 
ATOM     18  C   UNL     1      28.278 -23.502 -15.375  0.00  0.00    +0.000 C 
ENDBRANCH   1  13
BRANCH   8  20
ATOM     19  O   UNL     1      37.935 -25.612 -14.350  0.00  0.00    -0.270 OA
ATOM     20  N   UNL     1      37.172 -23.437 -13.876  0.00  0.00    -0.281 N 
ATOM     21  C   UNL     1      37.799 -24.659 -13.593  0.00  0.00    +0.250 C 
ATOM     22  H   UNL     1      37.154 -22.781 -13.141  0.00  0.00    +0.155 HD
BRANCH  21  23
ATOM     23  C   UNL     1      38.319 -24.700 -12.195  0.00  0.00    +0.058 C 
ATOM     24  C   UNL     1      37.809 -23.895 -11.257  0.00  0.00    +0.005 C 
ENDBRANCH  21  23
ENDBRANCH   8  20
TORSDOF 3
ENDMDL
MODEL 4
REMARK VINA RESULT:     -10.0      6.992     10.269
REMARK  Name = 10401956
REMARK  3 active torsions:
REMARK  status: ('A' for Active; 'I' for Inactive)
REMARK    1  A    between atoms: N_1  and  C_13
REMARK    2  A    between atoms: C_8  and  N_20
REMARK    3  A    between atoms: C_21  and  C_23
REMARK                            x       y       z     vdW  Elec       q    Type
REMARK                         _______ _______ _______ _____ _____    ______ ____
ROOT
ATOM      1  N   UNL     1      35.225 -17.025 -21.232  0.00  0.00    -0.301 N 
ATOM      2  N   UNL     1      34.102 -15.711 -24.992  0.00  0.00    -0.248 NA
ATOM      3  N   UNL     1      35.099 -17.369 -23.556  0.00  0.00    -0.233 NA
ATOM      4  C   UNL     1      34.211 -15.320 -22.628  0.00  0.00    +0.117 C 
ATOM      5  C   UNL     1      33.854 -14.927 -23.928  0.00  0.00    +0.067 C 
ATOM      6  C   UNL     1      34.834 -16.560 -22.512  0.00  0.00    +0.115 C 
ATOM      7  C   UNL     1      33.946 -14.493 -21.523  0.00  0.00    +0.001 C 
ATOM      8  C   UNL     1      33.320 -13.265 -21.708  0.00  0.00    +0.047 C 
ATOM      9  C   UNL     1      33.228 -13.693 -24.084  0.00  0.00    +0.016 C 
ATOM     10  C   UNL     1      32.960 -12.864 -22.990  0.00  0.00    +0.016 C 
ATOM     11  C   UNL     1      34.711 -16.889 -24.748  0.00  0.00    +0.251 C 
ATOM     12  H   UNL     1      35.361 -16.332 -20.545  0.00  0.00    +0.153 HD
ENDROOT
BRANCH   1  13
ATOM     13  C   UNL     1      35.440 -18.329 -20.824  0.00  0.00    +0.049 C 
ATOM     14  C   UNL     1      34.364 -19.223 -20.657  0.00  0.00    +0.015 C 
ATOM     15  C   UNL     1      36.741 -18.801 -20.562  0.00  0.00    +0.015 C 
ATOM     16  C   UNL     1      34.581 -20.537 -20.244  0.00  0.00    +0.001 C 
ATOM     17  C   UNL     1      36.957 -20.116 -20.148  0.00  0.00    +0.001 C 
ATOM     18  C   UNL     1      35.876 -20.984 -19.990  0.00  0.00    +0.000 C 
ENDBRANCH   1  13
BRANCH   8  20
ATOM     19  O   UNL     1      30.823 -11.774 -20.961  0.00  0.00    -0.270 OA
ATOM     20  N   UNL     1      33.054 -12.440 -20.615  0.00  0.00    -0.281 N 
ATOM     21  C   UNL     1      31.862 -11.765 -20.313  0.00  0.00    +0.250 C 
ATOM     22  H   UNL     1      33.794 -12.317 -19.978  0.00  0.00    +0.155 HD
BRANCH  21  23
ATOM     23  C   UNL     1      31.981 -10.980 -19.049  0.00  0.00    +0.058 C 
ATOM     24  C   UNL     1      31.135  -9.978 -18.790  0.00  0.00    +0.005 C 
ENDBRANCH  21  23
ENDBRANCH   8  20
TORSDOF 3
ENDMDL
MODEL 5
REMARK VINA RESULT:     -10.0      2.003      2.898
REMARK  Name = 10401956
REMARK  3 active torsions:
REMARK  status: ('A' for Active; 'I' for Inactive)
REMARK    1  A    between atoms: N_1  and  C_13
REMARK    2  A    between atoms: C_8  and  N_20
REMARK    3  A    between atoms: C_21  and  C_23
REMARK                            x       y       z     vdW  Elec       q    Type
REMARK                         _______ _______ _______ _____ _____    ______ ____
ROOT
ATOM      1  N   UNL     1      34.729 -21.912 -18.498  0.00  0.00    -0.301 N 
ATOM      2  N   UNL     1      36.597 -23.036 -14.980  0.00  0.00    -0.248 NA
ATOM      3  N   UNL     1      36.672 -22.058 -17.181  0.00  0.00    -0.233 NA
ATOM      4  C   UNL     1      34.591 -22.907 -16.290  0.00  0.00    +0.117 C 
ATOM      5  C   UNL     1      35.279 -23.267 -15.120  0.00  0.00    +0.067 C 
ATOM      6  C   UNL     1      35.352 -22.303 -17.288  0.00  0.00    +0.115 C 
ATOM      7  C   UNL     1      33.214 -23.152 -16.425  0.00  0.00    +0.001 C 
ATOM      8  C   UNL     1      32.511 -23.760 -15.389  0.00  0.00    +0.047 C 
ATOM      9  C   UNL     1      34.550 -23.874 -14.099  0.00  0.00    +0.016 C 
ATOM     10  C   UNL     1      33.180 -24.121 -14.225  0.00  0.00    +0.016 C 
ATOM     11  C   UNL     1      37.221 -22.445 -16.019  0.00  0.00    +0.251 C 
ATOM     12  H   UNL     1      33.894 -22.384 -18.724  0.00  0.00    +0.153 HD
ENDROOT
BRANCH   1  13
ATOM     13  C   UNL     1      35.143 -20.951 -19.403  0.00  0.00    +0.049 C 
ATOM     14  C   UNL     1      34.225 -20.332 -20.274  0.00  0.00    +0.015 C 
ATOM     15  C   UNL     1      36.496 -20.565 -19.480  0.00  0.00    +0.015 C 
ATOM     16  C   UNL     1      34.644 -19.364 -21.187  0.00  0.00    +0.001 C 
ATOM     17  C   UNL     1      36.913 -19.597 -20.394  0.00  0.00    +0.001 C 
ATOM     18  C   UNL     1      35.987 -18.997 -21.247  0.00  0.00    +0.000 C 
ENDBRANCH   1  13
BRANCH   8  20
ATOM     19  O   UNL     1      30.237 -23.105 -13.541  0.00  0.00    -0.270 OA
ATOM     20  N   UNL     1      31.144 -24.006 -15.517  0.00  0.00    -0.281 N 
ATOM     21  C   UNL     1      30.119 -23.676 -14.618  0.00  0.00    +0.250 C 
ATOM     22  H   UNL     1      30.864 -24.468 -16.340  0.00  0.00    +0.155 HD
BRANCH  21  23
ATOM     23  C   UNL     1      28.785 -24.113 -15.122  0.00  0.00    +0.058 C 
ATOM     24  C   UNL     1      28.430 -23.884 -16.390  0.00  0.00    +0.005 C 
ENDBRANCH  21  23
ENDBRANCH   8  20
TORSDOF 3
ENDMDL
MODEL 6
REMARK VINA RESULT:      -9.9     11.192     14.415
REMARK  Name = 10401956
REMARK  3 active torsions:
REMARK  status: ('A' for Active; 'I' for Inactive)
REMARK    1  A    between atoms: N_1  and  C_13
REMARK    2  A    between atoms: C_8  and  N_20
REMARK    3  A    between atoms: C_21  and  C_23
REMARK                            x       y       z     vdW  Elec       q    Type
REMARK                         _______ _______ _______ _____ _____    ______ ____
ROOT
ATOM      1  N   UNL     1      33.149 -12.460 -23.542  0.00  0.00    -0.301 N 
ATOM      2  N   UNL     1      31.232 -10.855 -20.244  0.00  0.00    -0.248 NA
ATOM      3  N   UNL     1      31.912 -12.754 -21.562  0.00  0.00    -0.233 NA
ATOM      4  C   UNL     1      32.492 -10.511 -22.256  0.00  0.00    +0.117 C 
ATOM      5  C   UNL     1      31.826 -10.025 -21.119  0.00  0.00    +0.067 C 
ATOM      6  C   UNL     1      32.497 -11.894 -22.418  0.00  0.00    +0.115 C 
ATOM      7  C   UNL     1      33.109  -9.634 -23.164  0.00  0.00    +0.001 C 
ATOM      8  C   UNL     1      33.067  -8.261 -22.943  0.00  0.00    +0.047 C 
ATOM      9  C   UNL     1      31.799  -8.646 -20.923  0.00  0.00    +0.016 C 
ATOM     10  C   UNL     1      32.411  -7.766 -21.821  0.00  0.00    +0.016 C 
ATOM     11  C   UNL     1      31.308 -12.174 -20.513  0.00  0.00    +0.251 C 
ATOM     12  H   UNL     1      33.260 -11.866 -24.319  0.00  0.00    +0.153 HD
ENDROOT
BRANCH   1  13
ATOM     13  C   UNL     1      33.650 -13.741 -23.685  0.00  0.00    +0.049 C 
ATOM     14  C   UNL     1      34.550 -14.277 -22.743  0.00  0.00    +0.015 C 
ATOM     15  C   UNL     1      33.275 -14.547 -24.778  0.00  0.00    +0.015 C 
ATOM     16  C   UNL     1      35.056 -15.569 -22.888  0.00  0.00    +0.001 C 
ATOM     17  C   UNL     1      33.783 -15.839 -24.922  0.00  0.00    +0.001 C 
ATOM     18  C   UNL     1      34.673 -16.350 -23.977  0.00  0.00    +0.000 C 
ENDBRANCH   1  13
BRANCH   8  20
ATOM     19  O   UNL     1      35.788  -6.992 -22.873  0.00  0.00    -0.270 OA
ATOM     20  N   UNL     1      33.678  -7.386 -23.841  0.00  0.00    -0.281 N 
ATOM     21  C   UNL     1      34.959  -6.820 -23.759  0.00  0.00    +0.250 C 
ATOM     22  H   UNL     1      33.145  -7.134 -24.629  0.00  0.00    +0.155 HD
BRANCH  21  23
ATOM     23  C   UNL     1      35.243  -5.930 -24.923  0.00  0.00    +0.058 C 
ATOM     24  C   UNL     1      34.271  -5.186 -25.460  0.00  0.00    +0.005 C 
ENDBRANCH  21  23
ENDBRANCH   8  20
TORSDOF 3
ENDMDL
MODEL 7
REMARK VINA RESULT:      -9.8      2.693      6.873
REMARK  Name = 10401956
REMARK  3 active torsions:
REMARK  status: ('A' for Active; 'I' for Inactive)
REMARK    1  A    between atoms: N_1  and  C_13
REMARK    2  A    between atoms: C_8  and  N_20
REMARK    3  A    between atoms: C_21  and  C_23
REMARK                            x       y       z     vdW  Elec       q    Type
REMARK                         _______ _______ _______ _____ _____    ______ ____
ROOT
ATOM      1  N   UNL     1      32.682 -23.172 -14.746  0.00  0.00    -0.301 N 
ATOM      2  N   UNL     1      36.083 -24.309 -12.680  0.00  0.00    -0.248 NA
ATOM      3  N   UNL     1      33.685 -24.230 -12.900  0.00  0.00    -0.233 NA
ATOM      4  C   UNL     1      35.101 -23.220 -14.579  0.00  0.00    +0.117 C 
ATOM      5  C   UNL     1      36.219 -23.631 -13.834  0.00  0.00    +0.067 C 
ATOM      6  C   UNL     1      33.857 -23.553 -14.052  0.00  0.00    +0.115 C 
ATOM      7  C   UNL     1      35.255 -22.513 -15.784  0.00  0.00    +0.001 C 
ATOM      8  C   UNL     1      36.529 -22.210 -16.255  0.00  0.00    +0.047 C 
ATOM      9  C   UNL     1      37.482 -23.316 -14.330  0.00  0.00    +0.016 C 
ATOM     10  C   UNL     1      37.643 -22.613 -15.528  0.00  0.00    +0.016 C 
ATOM     11  C   UNL     1      34.824 -24.571 -12.277  0.00  0.00    +0.251 C 
ATOM     12  H   UNL     1      32.775 -22.409 -15.362  0.00  0.00    +0.153 HD
ENDROOT
BRANCH   1  13
ATOM     13  C   UNL     1      31.422 -23.735 -14.670  0.00  0.00    +0.049 C 
ATOM     14  C   UNL     1      31.243 -25.054 -14.208  0.00  0.00    +0.015 C 
ATOM     15  C   UNL     1      30.278 -23.007 -15.054  0.00  0.00    +0.015 C 
ATOM     16  C   UNL     1      29.972 -25.622 -14.132  0.00  0.00    +0.001 C 
ATOM     17  C   UNL     1      29.007 -23.577 -14.978  0.00  0.00    +0.001 C 
ATOM     18  C   UNL     1      28.854 -24.884 -14.517  0.00  0.00    +0.000 C 
ENDBRANCH   1  13
BRANCH   8  20
ATOM     19  O   UNL     1      35.177 -22.567 -18.913  0.00  0.00    -0.270 OA
ATOM     20  N   UNL     1      36.687 -21.509 -17.450  0.00  0.00    -0.281 N 
ATOM     21  C   UNL     1      36.026 -21.719 -18.669  0.00  0.00    +0.250 C 
ATOM     22  H   UNL     1      37.345 -20.776 -17.437  0.00  0.00    +0.155 HD
BRANCH  21  23
ATOM     23  C   UNL     1      36.479 -20.754 -19.714  0.00  0.00    +0.058 C 
ATOM     24  C   UNL     1      35.588 -20.084 -20.451  0.00  0.00    +0.005 C 
ENDBRANCH  21  23
ENDBRANCH   8  20
TORSDOF 3
ENDMDL
MODEL 8
REMARK VINA RESULT:      -9.6      2.833      6.081
REMARK  Name = 10401956
REMARK  3 active torsions:
REMARK  status: ('A' for Active; 'I' for Inactive)
REMARK    1  A    between atoms: N_1  and  C_13
REMARK    2  A    between atoms: C_8  and  N_20
REMARK    3  A    between atoms: C_21  and  C_23
REMARK                            x       y       z     vdW  Elec       q    Type
REMARK                         _______ _______ _______ _____ _____    ______ ____
ROOT
ATOM      1  N   UNL     1      34.826 -24.322 -14.152  0.00  0.00    -0.301 N 
ATOM      2  N   UNL     1      30.759 -24.573 -13.429  0.00  0.00    -0.248 NA
ATOM      3  N   UNL     1      33.039 -25.035 -12.799  0.00  0.00    -0.233 NA
ATOM      4  C   UNL     1      32.553 -23.828 -14.837  0.00  0.00    +0.117 C 
ATOM      5  C   UNL     1      31.185 -23.945 -14.539  0.00  0.00    +0.067 C 
ATOM      6  C   UNL     1      33.431 -24.399 -13.919  0.00  0.00    +0.115 C 
ATOM      7  C   UNL     1      32.987 -23.169 -16.000  0.00  0.00    +0.001 C 
ATOM      8  C   UNL     1      32.056 -22.621 -16.877  0.00  0.00    +0.047 C 
ATOM      9  C   UNL     1      30.276 -23.386 -15.434  0.00  0.00    +0.016 C 
ATOM     10  C   UNL     1      30.699 -22.729 -16.593  0.00  0.00    +0.016 C 
ATOM     11  C   UNL     1      31.710 -25.083 -12.620  0.00  0.00    +0.251 C 
ATOM     12  H   UNL     1      35.100 -24.189 -15.089  0.00  0.00    +0.153 HD
ENDROOT
BRANCH   1  13
ATOM     13  C   UNL     1      35.854 -24.409 -13.229  0.00  0.00    +0.049 C 
ATOM     14  C   UNL     1      36.134 -23.342 -12.353  0.00  0.00    +0.015 C 
ATOM     15  C   UNL     1      36.651 -25.568 -13.140  0.00  0.00    +0.015 C 
ATOM     16  C   UNL     1      37.170 -23.430 -11.424  0.00  0.00    +0.001 C 
ATOM     17  C   UNL     1      37.688 -25.654 -12.211  0.00  0.00    +0.001 C 
ATOM     18  C   UNL     1      37.947 -24.585 -11.353  0.00  0.00    +0.000 C 
ENDBRANCH   1  13
BRANCH   8  20
ATOM     19  O   UNL     1      34.678 -22.754 -18.335  0.00  0.00    -0.270 OA
ATOM     20  N   UNL     1      32.481 -21.965 -18.032  0.00  0.00    -0.281 N 
ATOM     21  C   UNL     1      33.724 -22.065 -18.675  0.00  0.00    +0.250 C 
ATOM     22  H   UNL     1      31.828 -21.357 -18.448  0.00  0.00    +0.155 HD
BRANCH  21  23
ATOM     23  C   UNL     1      33.787 -21.199 -19.888  0.00  0.00    +0.058 C 
ATOM     24  C   UNL     1      32.837 -20.287 -20.122  0.00  0.00    +0.005 C 
ENDBRANCH  21  23
ENDBRANCH   8  20
TORSDOF 3
ENDMDL
MODEL 9
REMARK VINA RESULT:      -9.5     11.396     14.234
REMARK  Name = 10401956
REMARK  3 active torsions:
REMARK  status: ('A' for Active; 'I' for Inactive)
REMARK    1  A    between atoms: N_1  and  C_13
REMARK    2  A    between atoms: C_8  and  N_20
REMARK    3  A    between atoms: C_21  and  C_23
REMARK                            x       y       z     vdW  Elec       q    Type
REMARK                         _______ _______ _______ _____ _____    ______ ____
ROOT
ATOM      1  N   UNL     1      32.677  -8.705 -22.909  0.00  0.00    -0.301 N 
ATOM      2  N   UNL     1      31.586 -10.176 -19.198  0.00  0.00    -0.248 NA
ATOM      3  N   UNL     1      32.013  -8.328 -20.684  0.00  0.00    -0.233 NA
ATOM      4  C   UNL     1      32.261 -10.604 -21.459  0.00  0.00    +0.117 C 
ATOM      5  C   UNL     1      31.885 -11.045 -20.180  0.00  0.00    +0.067 C 
ATOM      6  C   UNL     1      32.305  -9.225 -21.645  0.00  0.00    +0.115 C 
ATOM      7  C   UNL     1      32.571 -11.522 -22.478  0.00  0.00    +0.001 C 
ATOM      8  C   UNL     1      32.508 -12.889 -22.226  0.00  0.00    +0.047 C 
ATOM      9  C   UNL     1      31.830 -12.418 -19.956  0.00  0.00    +0.016 C 
ATOM     10  C   UNL     1      32.137 -13.337 -20.964  0.00  0.00    +0.016 C 
ATOM     11  C   UNL     1      31.666  -8.865 -19.504  0.00  0.00    +0.251 C 
ATOM     12  H   UNL     1      33.212  -9.303 -23.480  0.00  0.00    +0.153 HD
ENDROOT
BRANCH   1  13
ATOM     13  C   UNL     1      32.381  -7.465 -23.445  0.00  0.00    +0.049 C 
ATOM     14  C   UNL     1      33.360  -6.455 -23.519  0.00  0.00    +0.015 C 
ATOM     15  C   UNL     1      31.091  -7.174 -23.930  0.00  0.00    +0.015 C 
ATOM     16  C   UNL     1      33.062  -5.204 -24.057  0.00  0.00    +0.001 C 
ATOM     17  C   UNL     1      30.793  -5.922 -24.469  0.00  0.00    +0.001 C 
ATOM     18  C   UNL     1      31.779  -4.937 -24.532  0.00  0.00    +0.000 C 
ENDBRANCH   1  13
BRANCH   8  20
ATOM     19  O   UNL     1      34.995 -14.507 -22.692  0.00  0.00    -0.270 OA
ATOM     20  N   UNL     1      32.815 -13.804 -23.233  0.00  0.00    -0.281 N 
ATOM     21  C   UNL     1      33.999 -14.536 -23.404  0.00  0.00    +0.250 C 
ATOM     22  H   UNL     1      32.113 -13.954 -23.908  0.00  0.00    +0.155 HD
BRANCH  21  23
ATOM     23  C   UNL     1      33.934 -15.411 -24.611  0.00  0.00    +0.058 C 
ATOM     24  C   UNL     1      34.409 -16.660 -24.570  0.00  0.00    +0.005 C 
ENDBRANCH  21  23
ENDBRANCH   8  20
TORSDOF 3
ENDMDL
