MODEL 1
REMARK VINA RESULT:     -11.6      0.000      0.000
REMARK  Name = 6914657
REMARK  8 active torsions:
REMARK  status: ('A' for Active; 'I' for Inactive)
REMARK    1  A    between atoms: C_1  and  C_4
REMARK    2  A    between atoms: C_1  and  C_16
REMARK    3  A    between atoms: C_9  and  C_10
REMARK    4  A    between atoms: C_16  and  C_17
REMARK    5  A    between atoms: C_17  and  C_18
REMARK    6  A    between atoms: C_18  and  N_20
REMARK    7  A    between atoms: C_21  and  C_23
REMARK    8  A    between atoms: C_24  and  C_26
REMARK                            x       y       z     vdW  Elec       q    Type
REMARK                         _______ _______ _______ _____ _____    ______ ____
ROOT
ATOM      1  C   UNL     1      32.116 -13.246 -20.625  0.00  0.00    +0.000 C 
ENDROOT
BRANCH   1   4
ATOM      2  O   UNL     1      33.233  -7.226 -19.499  0.00  0.00    -0.270 OA
ATOM      3  N   UNL     1      32.154  -8.951 -20.649  0.00  0.00    -0.276 N 
ATOM      4  C   UNL     1      31.629 -11.800 -20.660  0.00  0.00    +0.003 C 
ATOM      5  C   UNL     1      32.171 -11.070 -21.900  0.00  0.00    +0.022 C 
ATOM      6  C   UNL     1      32.039 -11.054 -19.380  0.00  0.00    +0.022 C 
ATOM      7  C   UNL     1      31.751  -9.602 -21.902  0.00  0.00    +0.094 C 
ATOM      8  C   UNL     1      31.630  -9.583 -19.439  0.00  0.00    +0.094 C 
ATOM      9  C   UNL     1      32.930  -7.795 -20.546  0.00  0.00    +0.249 C 
BRANCH   9  10
ATOM     10  C   UNL     1      33.449  -7.196 -21.781  0.00  0.00    +0.054 C 
ATOM     11  C   UNL     1      32.674  -6.278 -22.491  0.00  0.00    +0.005 C 
ATOM     12  C   UNL     1      34.717  -7.543 -22.246  0.00  0.00    +0.005 C 
ATOM     13  C   UNL     1      33.167  -5.709 -23.665  0.00  0.00    +0.000 C 
ATOM     14  C   UNL     1      35.211  -6.973 -23.420  0.00  0.00    +0.000 C 
ATOM     15  C   UNL     1      34.435  -6.056 -24.130  0.00  0.00    +0.000 C 
ENDBRANCH   9  10
ENDBRANCH   1   4
BRANCH   1  16
ATOM     16  C   UNL     1      33.033 -13.550 -21.807  0.00  0.00    +0.002 C 
BRANCH  16  17
ATOM     17  C   UNL     1      34.342 -14.184 -21.339  0.00  0.00    +0.021 C 
BRANCH  17  18
ATOM     18  C   UNL     1      34.941 -15.081 -22.417  0.00  0.00    +0.090 C 
BRANCH  18  20
ATOM     19  O   UNL     1      35.048 -17.412 -24.134  0.00  0.00    -0.270 OA
ATOM     20  N   UNL     1      34.946 -16.461 -22.014  0.00  0.00    -0.301 N 
ATOM     21  C   UNL     1      35.000 -17.518 -22.913  0.00  0.00    +0.246 C 
ATOM     22  H   UNL     1      34.911 -16.666 -21.052  0.00  0.00    +0.150 HD
BRANCH  21  23
ATOM     23  C   UNL     1      34.994 -18.840 -22.224  0.00  0.00    +0.058 C 
ATOM     24  C   UNL     1      34.484 -18.950 -20.989  0.00  0.00    +0.006 C 
BRANCH  24  26
ATOM     25  N   UNL     1      33.069 -21.943 -19.218  0.00  0.00    -0.242 NA
ATOM     26  C   UNL     1      34.418 -20.204 -20.219  0.00  0.00    +0.019 C 
ATOM     27  C   UNL     1      35.574 -20.832 -19.769  0.00  0.00    +0.003 C 
ATOM     28  C   UNL     1      33.201 -20.795 -19.920  0.00  0.00    +0.099 C 
ATOM     29  C   UNL     1      35.480 -22.014 -19.044  0.00  0.00    +0.021 C 
ATOM     30  C   UNL     1      34.216 -22.524 -18.797  0.00  0.00    +0.099 C 
ENDBRANCH  24  26
ENDBRANCH  21  23
ENDBRANCH  18  20
ENDBRANCH  17  18
ENDBRANCH  16  17
ENDBRANCH   1  16
TORSDOF 8
ENDMDL
MODEL 2
REMARK VINA RESULT:     -11.1      1.169      1.629
REMARK  Name = 6914657
REMARK  8 active torsions:
REMARK  status: ('A' for Active; 'I' for Inactive)
REMARK    1  A    between atoms: C_1  and  C_4
REMARK    2  A    between atoms: C_1  and  C_16
REMARK    3  A    between atoms: C_9  and  C_10
REMARK    4  A    between atoms: C_16  and  C_17
REMARK    5  A    between atoms: C_17  and  C_18
REMARK    6  A    between atoms: C_18  and  N_20
REMARK    7  A    between atoms: C_21  and  C_23
REMARK    8  A    between atoms: C_24  and  C_26
REMARK                            x       y       z     vdW  Elec       q    Type
REMARK                         _______ _______ _______ _____ _____    ______ ____
ROOT
ATOM      1  C   UNL     1      33.089 -13.749 -21.875  0.00  0.00    +0.000 C 
ENDROOT
BRANCH   1   4
ATOM      2  O   UNL     1      31.988  -7.705 -20.866  0.00  0.00    -0.270 OA
ATOM      3  N   UNL     1      32.067  -9.593 -22.242  0.00  0.00    -0.276 N 
ATOM      4  C   UNL     1      32.338 -12.477 -22.262  0.00  0.00    +0.003 C 
ATOM      5  C   UNL     1      33.212 -11.574 -23.148  0.00  0.00    +0.022 C 
ATOM      6  C   UNL     1      31.878 -11.712 -21.009  0.00  0.00    +0.022 C 
ATOM      7  C   UNL     1      32.496 -10.265 -23.475  0.00  0.00    +0.094 C 
ATOM      8  C   UNL     1      31.199 -10.396 -21.381  0.00  0.00    +0.094 C 
ATOM      9  C   UNL     1      32.381  -8.282 -21.877  0.00  0.00    +0.249 C 
BRANCH   9  10
ATOM     10  C   UNL     1      33.266  -7.511 -22.759  0.00  0.00    +0.054 C 
ATOM     11  C   UNL     1      34.649  -7.563 -22.579  0.00  0.00    +0.005 C 
ATOM     12  C   UNL     1      32.725  -6.727 -23.778  0.00  0.00    +0.005 C 
ATOM     13  C   UNL     1      35.489  -6.830 -23.416  0.00  0.00    +0.000 C 
ATOM     14  C   UNL     1      33.566  -5.995 -24.616  0.00  0.00    +0.000 C 
ATOM     15  C   UNL     1      34.949  -6.046 -24.435  0.00  0.00    +0.000 C 
ENDBRANCH   9  10
ENDBRANCH   1   4
BRANCH   1  16
ATOM     16  C   UNL     1      34.309 -13.963 -22.767  0.00  0.00    +0.002 C 
BRANCH  16  17
ATOM     17  C   UNL     1      34.072 -15.101 -23.760  0.00  0.00    +0.021 C 
BRANCH  17  18
ATOM     18  C   UNL     1      35.318 -15.962 -23.925  0.00  0.00    +0.090 C 
BRANCH  18  20
ATOM     19  O   UNL     1      33.999 -18.409 -24.744  0.00  0.00    -0.270 OA
ATOM     20  N   UNL     1      35.215 -17.188 -23.181  0.00  0.00    -0.301 N 
ATOM     21  C   UNL     1      34.560 -18.317 -23.656  0.00  0.00    +0.246 C 
ATOM     22  H   UNL     1      35.632 -17.229 -22.290  0.00  0.00    +0.150 HD
BRANCH  21  23
ATOM     23  C   UNL     1      34.608 -19.445 -22.682  0.00  0.00    +0.058 C 
ATOM     24  C   UNL     1      34.770 -19.194 -21.375  0.00  0.00    +0.006 C 
BRANCH  24  26
ATOM     25  N   UNL     1      33.639 -21.733 -18.850  0.00  0.00    -0.242 NA
ATOM     26  C   UNL     1      34.822 -20.226 -20.325  0.00  0.00    +0.019 C 
ATOM     27  C   UNL     1      36.037 -20.671 -19.816  0.00  0.00    +0.003 C 
ATOM     28  C   UNL     1      33.662 -20.784 -19.813  0.00  0.00    +0.099 C 
ATOM     29  C   UNL     1      36.055 -21.646 -18.826  0.00  0.00    +0.021 C 
ATOM     30  C   UNL     1      34.840 -22.140 -18.380  0.00  0.00    +0.099 C 
ENDBRANCH  24  26
ENDBRANCH  21  23
ENDBRANCH  18  20
ENDBRANCH  17  18
ENDBRANCH  16  17
ENDBRANCH   1  16
TORSDOF 8
ENDMDL
MODEL 3
REMARK VINA RESULT:     -11.1      5.490     13.493
REMARK  Name = 6914657
REMARK  8 active torsions:
REMARK  status: ('A' for Active; 'I' for Inactive)
REMARK    1  A    between atoms: C_1  and  C_4
REMARK    2  A    between atoms: C_1  and  C_16
REMARK    3  A    between atoms: C_9  and  C_10
REMARK    4  A    between atoms: C_16  and  C_17
REMARK    5  A    between atoms: C_17  and  C_18
REMARK    6  A    between atoms: C_18  and  N_20
REMARK    7  A    between atoms: C_21  and  C_23
REMARK    8  A    between atoms: C_24  and  C_26
REMARK                            x       y       z     vdW  Elec       q    Type
REMARK                         _______ _______ _______ _____ _____    ______ ____
ROOT
ATOM      1  C   UNL     1      33.541 -22.941 -18.378  0.00  0.00    +0.000 C 
ENDROOT
BRANCH   1   4
ATOM      2  O   UNL     1      33.161 -24.849 -12.464  0.00  0.00    -0.270 OA
ATOM      3  N   UNL     1      33.859 -23.347 -14.114  0.00  0.00    -0.276 N 
ATOM      4  C   UNL     1      33.538 -22.592 -16.892  0.00  0.00    +0.003 C 
ATOM      5  C   UNL     1      34.924 -22.831 -16.271  0.00  0.00    +0.022 C 
ATOM      6  C   UNL     1      32.469 -23.404 -16.141  0.00  0.00    +0.022 C 
ATOM      7  C   UNL     1      34.909 -22.557 -14.769  0.00  0.00    +0.094 C 
ATOM      8  C   UNL     1      32.513 -23.126 -14.640  0.00  0.00    +0.094 C 
ATOM      9  C   UNL     1      34.047 -24.219 -13.040  0.00  0.00    +0.249 C 
BRANCH   9  10
ATOM     10  C   UNL     1      35.414 -24.427 -12.546  0.00  0.00    +0.054 C 
ATOM     11  C   UNL     1      36.204 -25.442 -13.085  0.00  0.00    +0.005 C 
ATOM     12  C   UNL     1      35.923 -23.609 -11.538  0.00  0.00    +0.005 C 
ATOM     13  C   UNL     1      37.502 -25.640 -12.617  0.00  0.00    +0.000 C 
ATOM     14  C   UNL     1      37.223 -23.805 -11.070  0.00  0.00    +0.000 C 
ATOM     15  C   UNL     1      38.012 -24.822 -11.609  0.00  0.00    +0.000 C 
ENDBRANCH   9  10
ENDBRANCH   1   4
BRANCH   1  16
ATOM     16  C   UNL     1      34.066 -21.779 -19.218  0.00  0.00    +0.002 C 
BRANCH  16  17
ATOM     17  C   UNL     1      35.514 -22.018 -19.643  0.00  0.00    +0.021 C 
BRANCH  17  18
ATOM     18  C   UNL     1      36.358 -20.761 -19.468  0.00  0.00    +0.090 C 
BRANCH  18  20
ATOM     19  O   UNL     1      37.742 -18.736 -21.012  0.00  0.00    -0.270 OA
ATOM     20  N   UNL     1      35.778 -19.635 -20.149  0.00  0.00    -0.301 N 
ATOM     21  C   UNL     1      36.523 -18.711 -20.869  0.00  0.00    +0.246 C 
ATOM     22  H   UNL     1      34.802 -19.515 -20.103  0.00  0.00    +0.150 HD
BRANCH  21  23
ATOM     23  C   UNL     1      35.668 -17.649 -21.473  0.00  0.00    +0.058 C 
ATOM     24  C   UNL     1      35.627 -17.500 -22.805  0.00  0.00    +0.006 C 
BRANCH  24  26
ATOM     25  N   UNL     1      33.444 -15.912 -25.415  0.00  0.00    -0.242 NA
ATOM     26  C   UNL     1      34.814 -16.493 -23.509  0.00  0.00    +0.019 C 
ATOM     27  C   UNL     1      34.634 -15.219 -22.982  0.00  0.00    +0.003 C 
ATOM     28  C   UNL     1      34.203 -16.787 -24.718  0.00  0.00    +0.099 C 
ATOM     29  C   UNL     1      33.861 -14.291 -23.670  0.00  0.00    +0.021 C 
ATOM     30  C   UNL     1      33.293 -14.683 -24.871  0.00  0.00    +0.099 C 
ENDBRANCH  24  26
ENDBRANCH  21  23
ENDBRANCH  18  20
ENDBRANCH  17  18
ENDBRANCH  16  17
ENDBRANCH   1  16
TORSDOF 8
ENDMDL
MODEL 4
REMARK VINA RESULT:     -11.1      3.667      7.193
REMARK  Name = 6914657
REMARK  8 active torsions:
REMARK  status: ('A' for Active; 'I' for Inactive)
REMARK    1  A    between atoms: C_1  and  C_4
REMARK    2  A    between atoms: C_1  and  C_16
REMARK    3  A    between atoms: C_9  and  C_10
REMARK    4  A    between atoms: C_16  and  C_17
REMARK    5  A    between atoms: C_17  and  C_18
REMARK    6  A    between atoms: C_18  and  N_20
REMARK    7  A    between atoms: C_21  and  C_23
REMARK    8  A    between atoms: C_24  and  C_26
REMARK                            x       y       z     vdW  Elec       q    Type
REMARK                         _______ _______ _______ _____ _____    ______ ____
ROOT
ATOM      1  C   UNL     1      35.189 -19.014 -21.079  0.00  0.00    +0.000 C 
ENDROOT
BRANCH   1   4
ATOM      2  O   UNL     1      32.897 -15.232 -25.462  0.00  0.00    -0.270 OA
ATOM      3  N   UNL     1      34.464 -15.785 -23.817  0.00  0.00    -0.276 N 
ATOM      4  C   UNL     1      35.432 -17.920 -22.117  0.00  0.00    +0.003 C 
ATOM      5  C   UNL     1      35.061 -16.539 -21.552  0.00  0.00    +0.022 C 
ATOM      6  C   UNL     1      34.640 -18.202 -23.404  0.00  0.00    +0.022 C 
ATOM      7  C   UNL     1      35.229 -15.449 -22.609  0.00  0.00    +0.094 C 
ATOM      8  C   UNL     1      34.808 -17.072 -24.418  0.00  0.00    +0.094 C 
ATOM      9  C   UNL     1      33.508 -14.970 -24.428  0.00  0.00    +0.249 C 
BRANCH   9  10
ATOM     10  C   UNL     1      33.178 -13.690 -23.789  0.00  0.00    +0.054 C 
ATOM     11  C   UNL     1      33.722 -12.504 -24.283  0.00  0.00    +0.005 C 
ATOM     12  C   UNL     1      32.322 -13.659 -22.689  0.00  0.00    +0.005 C 
ATOM     13  C   UNL     1      33.410 -11.288 -23.676  0.00  0.00    +0.000 C 
ATOM     14  C   UNL     1      32.009 -12.442 -22.082  0.00  0.00    +0.000 C 
ATOM     15  C   UNL     1      32.554 -11.256 -22.576  0.00  0.00    +0.000 C 
ENDBRANCH   9  10
ENDBRANCH   1   4
BRANCH   1  16
ATOM     16  C   UNL     1      36.506 -19.595 -20.570  0.00  0.00    +0.002 C 
BRANCH  16  17
ATOM     17  C   UNL     1      36.282 -20.459 -19.330  0.00  0.00    +0.021 C 
BRANCH  17  18
ATOM     18  C   UNL     1      35.587 -21.768 -19.684  0.00  0.00    +0.090 C 
BRANCH  18  20
ATOM     19  O   UNL     1      32.754 -21.894 -19.087  0.00  0.00    -0.270 OA
ATOM     20  N   UNL     1      34.964 -22.365 -18.534  0.00  0.00    -0.301 N 
ATOM     21  C   UNL     1      33.590 -22.378 -18.330  0.00  0.00    +0.246 C 
ATOM     22  H   UNL     1      35.541 -22.786 -17.857  0.00  0.00    +0.150 HD
BRANCH  21  23
ATOM     23  C   UNL     1      33.218 -23.062 -17.058  0.00  0.00    +0.058 C 
ATOM     24  C   UNL     1      32.011 -22.854 -16.514  0.00  0.00    +0.006 C 
BRANCH  24  26
ATOM     25  N   UNL     1      31.715 -23.702 -12.868  0.00  0.00    -0.242 NA
ATOM     26  C   UNL     1      31.535 -23.481 -15.270  0.00  0.00    +0.019 C 
ATOM     27  C   UNL     1      30.500 -24.411 -15.284  0.00  0.00    +0.003 C 
ATOM     28  C   UNL     1      32.103 -23.163 -14.046  0.00  0.00    +0.099 C 
ATOM     29  C   UNL     1      30.073 -24.986 -14.093  0.00  0.00    +0.021 C 
ATOM     30  C   UNL     1      30.707 -24.602 -12.923  0.00  0.00    +0.099 C 
ENDBRANCH  24  26
ENDBRANCH  21  23
ENDBRANCH  18  20
ENDBRANCH  17  18
ENDBRANCH  16  17
ENDBRANCH   1  16
TORSDOF 8
ENDMDL
MODEL 5
REMARK VINA RESULT:     -10.8      7.556     11.233
REMARK  Name = 6914657
REMARK  8 active torsions:
REMARK  status: ('A' for Active; 'I' for Inactive)
REMARK    1  A    between atoms: C_1  and  C_4
REMARK    2  A    between atoms: C_1  and  C_16
REMARK    3  A    between atoms: C_9  and  C_10
REMARK    4  A    between atoms: C_16  and  C_17
REMARK    5  A    between atoms: C_17  and  C_18
REMARK    6  A    between atoms: C_18  and  N_20
REMARK    7  A    between atoms: C_21  and  C_23
REMARK    8  A    between atoms: C_24  and  C_26
REMARK                            x       y       z     vdW  Elec       q    Type
REMARK                         _______ _______ _______ _____ _____    ______ ____
ROOT
ATOM      1  C   UNL     1      36.830 -21.910 -15.815  0.00  0.00    +0.000 C 
ENDROOT
BRANCH   1   4
ATOM      2  O   UNL     1      32.580 -20.690 -20.198  0.00  0.00    -0.270 OA
ATOM      3  N   UNL     1      34.692 -21.415 -19.508  0.00  0.00    -0.276 N 
ATOM      4  C   UNL     1      36.276 -22.191 -17.210  0.00  0.00    +0.003 C 
ATOM      5  C   UNL     1      36.769 -21.139 -18.217  0.00  0.00    +0.022 C 
ATOM      6  C   UNL     1      34.739 -22.232 -17.189  0.00  0.00    +0.022 C 
ATOM      7  C   UNL     1      36.157 -21.369 -19.597  0.00  0.00    +0.094 C 
ATOM      8  C   UNL     1      34.169 -22.429 -18.593  0.00  0.00    +0.094 C 
ATOM      9  C   UNL     1      33.807 -20.623 -20.242  0.00  0.00    +0.249 C 
BRANCH   9  10
ATOM     10  C   UNL     1      34.368 -19.607 -21.141  0.00  0.00    +0.054 C 
ATOM     11  C   UNL     1      34.981 -18.470 -20.613  0.00  0.00    +0.005 C 
ATOM     12  C   UNL     1      34.288 -19.777 -22.522  0.00  0.00    +0.005 C 
ATOM     13  C   UNL     1      35.514 -17.505 -21.466  0.00  0.00    +0.000 C 
ATOM     14  C   UNL     1      34.821 -18.812 -23.377  0.00  0.00    +0.000 C 
ATOM     15  C   UNL     1      35.434 -17.675 -22.848  0.00  0.00    +0.000 C 
ENDBRANCH   9  10
ENDBRANCH   1   4
BRANCH   1  16
ATOM     16  C   UNL     1      37.661 -23.084 -15.304  0.00  0.00    +0.002 C 
BRANCH  16  17
ATOM     17  C   UNL     1      37.245 -23.476 -13.886  0.00  0.00    +0.021 C 
BRANCH  17  18
ATOM     18  C   UNL     1      36.440 -24.770 -13.882  0.00  0.00    +0.090 C 
BRANCH  18  20
ATOM     19  O   UNL     1      34.589 -24.036 -11.777  0.00  0.00    -0.270 OA
ATOM     20  N   UNL     1      35.031 -24.516 -14.009  0.00  0.00    -0.301 N 
ATOM     21  C   UNL     1      34.217 -24.168 -12.939  0.00  0.00    +0.246 C 
ATOM     22  H   UNL     1      34.622 -24.593 -14.902  0.00  0.00    +0.150 HD
BRANCH  21  23
ATOM     23  C   UNL     1      32.800 -23.963 -13.355  0.00  0.00    +0.058 C 
ATOM     24  C   UNL     1      32.478 -23.957 -14.656  0.00  0.00    +0.006 C 
BRANCH  24  26
ATOM     25  N   UNL     1      29.604 -22.556 -16.624  0.00  0.00    -0.242 NA
ATOM     26  C   UNL     1      31.114 -23.773 -15.180  0.00  0.00    +0.019 C 
ATOM     27  C   UNL     1      30.069 -24.590 -14.764  0.00  0.00    +0.003 C 
ATOM     28  C   UNL     1      30.832 -22.780 -16.104  0.00  0.00    +0.099 C 
ATOM     29  C   UNL     1      28.792 -24.392 -15.276  0.00  0.00    +0.021 C 
ATOM     30  C   UNL     1      28.613 -23.371 -16.195  0.00  0.00    +0.099 C 
ENDBRANCH  24  26
ENDBRANCH  21  23
ENDBRANCH  18  20
ENDBRANCH  17  18
ENDBRANCH  16  17
ENDBRANCH   1  16
TORSDOF 8
ENDMDL
MODEL 6
REMARK VINA RESULT:     -10.7      3.127     12.098
REMARK  Name = 6914657
REMARK  8 active torsions:
REMARK  status: ('A' for Active; 'I' for Inactive)
REMARK    1  A    between atoms: C_1  and  C_4
REMARK    2  A    between atoms: C_1  and  C_16
REMARK    3  A    between atoms: C_9  and  C_10
REMARK    4  A    between atoms: C_16  and  C_17
REMARK    5  A    between atoms: C_17  and  C_18
REMARK    6  A    between atoms: C_18  and  N_20
REMARK    7  A    between atoms: C_21  and  C_23
REMARK    8  A    between atoms: C_24  and  C_26
REMARK                            x       y       z     vdW  Elec       q    Type
REMARK                         _______ _______ _______ _____ _____    ______ ____
ROOT
ATOM      1  C   UNL     1      34.610 -19.012 -21.022  0.00  0.00    +0.000 C 
ENDROOT
BRANCH   1   4
ATOM      2  O   UNL     1      35.805 -22.922 -16.327  0.00  0.00    -0.270 OA
ATOM      3  N   UNL     1      34.655 -22.307 -18.268  0.00  0.00    -0.276 N 
ATOM      4  C   UNL     1      34.612 -20.440 -20.481  0.00  0.00    +0.003 C 
ATOM      5  C   UNL     1      33.370 -20.697 -19.612  0.00  0.00    +0.022 C 
ATOM      6  C   UNL     1      35.893 -20.718 -19.678  0.00  0.00    +0.022 C 
ATOM      7  C   UNL     1      33.403 -22.097 -19.005  0.00  0.00    +0.094 C 
ATOM      8  C   UNL     1      35.869 -22.115 -19.061  0.00  0.00    +0.094 C 
ATOM      9  C   UNL     1      34.757 -22.706 -16.933  0.00  0.00    +0.249 C 
BRANCH   9  10
ATOM     10  C   UNL     1      33.518 -22.876 -16.164  0.00  0.00    +0.054 C 
ATOM     11  C   UNL     1      32.284 -22.843 -16.814  0.00  0.00    +0.005 C 
ATOM     12  C   UNL     1      33.574 -23.071 -14.784  0.00  0.00    +0.005 C 
ATOM     13  C   UNL     1      31.107 -23.005 -16.084  0.00  0.00    +0.000 C 
ATOM     14  C   UNL     1      32.396 -23.233 -14.054  0.00  0.00    +0.000 C 
ATOM     15  C   UNL     1      31.162 -23.199 -14.704  0.00  0.00    +0.000 C 
ENDBRANCH   9  10
ENDBRANCH   1   4
BRANCH   1  16
ATOM     16  C   UNL     1      35.317 -18.932 -22.373  0.00  0.00    +0.002 C 
BRANCH  16  17
ATOM     17  C   UNL     1      35.625 -17.483 -22.748  0.00  0.00    +0.021 C 
BRANCH  17  18
ATOM     18  C   UNL     1      34.791 -17.029 -23.940  0.00  0.00    +0.090 C 
BRANCH  18  20
ATOM     19  O   UNL     1      33.377 -15.381 -25.858  0.00  0.00    -0.270 OA
ATOM     20  N   UNL     1      34.203 -15.737 -23.714  0.00  0.00    -0.301 N 
ATOM     21  C   UNL     1      33.540 -15.016 -24.698  0.00  0.00    +0.246 C 
ATOM     22  H   UNL     1      34.274 -15.344 -22.814  0.00  0.00    +0.150 HD
BRANCH  21  23
ATOM     23  C   UNL     1      33.029 -13.711 -24.190  0.00  0.00    +0.058 C 
ATOM     24  C   UNL     1      32.870 -13.522 -22.872  0.00  0.00    +0.006 C 
BRANCH  24  26
ATOM     25  N   UNL     1      32.141  -9.872 -22.379  0.00  0.00    -0.242 NA
ATOM     26  C   UNL     1      32.382 -12.275 -22.259  0.00  0.00    +0.019 C 
ATOM     27  C   UNL     1      31.726 -12.286 -21.033  0.00  0.00    +0.003 C 
ATOM     28  C   UNL     1      32.563 -11.052 -22.886  0.00  0.00    +0.099 C 
ATOM     29  C   UNL     1      31.278 -11.093 -20.479  0.00  0.00    +0.021 C 
ATOM     30  C   UNL     1      31.508  -9.923 -21.185  0.00  0.00    +0.099 C 
ENDBRANCH  24  26
ENDBRANCH  21  23
ENDBRANCH  18  20
ENDBRANCH  17  18
ENDBRANCH  16  17
ENDBRANCH   1  16
TORSDOF 8
ENDMDL
MODEL 7
REMARK VINA RESULT:     -10.6      1.676      2.460
REMARK  Name = 6914657
REMARK  8 active torsions:
REMARK  status: ('A' for Active; 'I' for Inactive)
REMARK    1  A    between atoms: C_1  and  C_4
REMARK    2  A    between atoms: C_1  and  C_16
REMARK    3  A    between atoms: C_9  and  C_10
REMARK    4  A    between atoms: C_16  and  C_17
REMARK    5  A    between atoms: C_17  and  C_18
REMARK    6  A    between atoms: C_18  and  N_20
REMARK    7  A    between atoms: C_21  and  C_23
REMARK    8  A    between atoms: C_24  and  C_26
REMARK                            x       y       z     vdW  Elec       q    Type
REMARK                         _______ _______ _______ _____ _____    ______ ____
ROOT
ATOM      1  C   UNL     1      33.907 -14.257 -21.890  0.00  0.00    +0.000 C 
ENDROOT
BRANCH   1   4
ATOM      2  O   UNL     1      31.508  -8.524 -21.505  0.00  0.00    -0.270 OA
ATOM      3  N   UNL     1      32.258 -10.378 -22.717  0.00  0.00    -0.276 N 
ATOM      4  C   UNL     1      33.050 -13.156 -22.511  0.00  0.00    +0.003 C 
ATOM      5  C   UNL     1      33.929 -12.113 -23.219  0.00  0.00    +0.022 C 
ATOM      6  C   UNL     1      32.172 -12.480 -21.445  0.00  0.00    +0.022 C 
ATOM      7  C   UNL     1      33.085 -10.969 -23.776  0.00  0.00    +0.094 C 
ATOM      8  C   UNL     1      31.372 -11.322 -22.038  0.00  0.00    +0.094 C 
ATOM      9  C   UNL     1      32.231  -9.027 -22.363  0.00  0.00    +0.249 C 
BRANCH   9  10
ATOM     10  C   UNL     1      33.144  -8.110 -23.057  0.00  0.00    +0.054 C 
ATOM     11  C   UNL     1      32.729  -7.459 -24.220  0.00  0.00    +0.005 C 
ATOM     12  C   UNL     1      34.426  -7.890 -22.555  0.00  0.00    +0.005 C 
ATOM     13  C   UNL     1      33.596  -6.589 -24.879  0.00  0.00    +0.000 C 
ATOM     14  C   UNL     1      35.293  -7.019 -23.215  0.00  0.00    +0.000 C 
ATOM     15  C   UNL     1      34.878  -6.369 -24.377  0.00  0.00    +0.000 C 
ENDBRANCH   9  10
ENDBRANCH   1   4
BRANCH   1  16
ATOM     16  C   UNL     1      34.832 -14.889 -22.926  0.00  0.00    +0.002 C 
BRANCH  16  17
ATOM     17  C   UNL     1      34.710 -16.412 -22.917  0.00  0.00    +0.021 C 
BRANCH  17  18
ATOM     18  C   UNL     1      35.821 -17.053 -22.094  0.00  0.00    +0.090 C 
BRANCH  18  20
ATOM     19  O   UNL     1      34.829 -19.725 -22.611  0.00  0.00    -0.270 OA
ATOM     20  N   UNL     1      35.298 -17.989 -21.136  0.00  0.00    -0.301 N 
ATOM     21  C   UNL     1      34.843 -19.256 -21.478  0.00  0.00    +0.246 C 
ATOM     22  H   UNL     1      35.262 -17.718 -20.191  0.00  0.00    +0.150 HD
BRANCH  21  23
ATOM     23  C   UNL     1      34.357 -20.016 -20.290  0.00  0.00    +0.058 C 
ATOM     24  C   UNL     1      35.110 -20.993 -19.766  0.00  0.00    +0.006 C 
BRANCH  24  26
ATOM     25  N   UNL     1      35.392 -22.862 -16.522  0.00  0.00    -0.242 NA
ATOM     26  C   UNL     1      34.735 -21.800 -18.593  0.00  0.00    +0.019 C 
ATOM     27  C   UNL     1      33.434 -22.260 -18.424  0.00  0.00    +0.003 C 
ATOM     28  C   UNL     1      35.669 -22.125 -17.622  0.00  0.00    +0.099 C 
ATOM     29  C   UNL     1      33.111 -23.021 -17.306  0.00  0.00    +0.021 C 
ATOM     30  C   UNL     1      34.116 -23.292 -16.393  0.00  0.00    +0.099 C 
ENDBRANCH  24  26
ENDBRANCH  21  23
ENDBRANCH  18  20
ENDBRANCH  17  18
ENDBRANCH  16  17
ENDBRANCH   1  16
TORSDOF 8
ENDMDL
MODEL 8
REMARK VINA RESULT:     -10.6      3.670     12.743
REMARK  Name = 6914657
REMARK  8 active torsions:
REMARK  status: ('A' for Active; 'I' for Inactive)
REMARK    1  A    between atoms: C_1  and  C_4
REMARK    2  A    between atoms: C_1  and  C_16
REMARK    3  A    between atoms: C_9  and  C_10
REMARK    4  A    between atoms: C_16  and  C_17
REMARK    5  A    between atoms: C_17  and  C_18
REMARK    6  A    between atoms: C_18  and  N_20
REMARK    7  A    between atoms: C_21  and  C_23
REMARK    8  A    between atoms: C_24  and  C_26
REMARK                            x       y       z     vdW  Elec       q    Type
REMARK                         _______ _______ _______ _____ _____    ______ ____
ROOT
ATOM      1  C   UNL     1      34.004 -20.570 -20.039  0.00  0.00    +0.000 C 
ENDROOT
BRANCH   1   4
ATOM      2  O   UNL     1      35.419 -22.704 -14.364  0.00  0.00    -0.270 OA
ATOM      3  N   UNL     1      34.533 -22.963 -16.512  0.00  0.00    -0.276 N 
ATOM      4  C   UNL     1      34.342 -21.754 -19.137  0.00  0.00    +0.003 C 
ATOM      5  C   UNL     1      33.098 -22.233 -18.372  0.00  0.00    +0.022 C 
ATOM      6  C   UNL     1      35.466 -21.388 -18.153  0.00  0.00    +0.022 C 
ATOM      7  C   UNL     1      33.445 -23.367 -17.411  0.00  0.00    +0.094 C 
ATOM      8  C   UNL     1      35.757 -22.537 -17.190  0.00  0.00    +0.094 C 
ATOM      9  C   UNL     1      34.493 -23.002 -15.116  0.00  0.00    +0.249 C 
BRANCH   9  10
ATOM     10  C   UNL     1      33.244 -23.422 -14.470  0.00  0.00    +0.054 C 
ATOM     11  C   UNL     1      32.114 -22.606 -14.538  0.00  0.00    +0.005 C 
ATOM     12  C   UNL     1      33.185 -24.637 -13.788  0.00  0.00    +0.005 C 
ATOM     13  C   UNL     1      30.927 -23.005 -13.925  0.00  0.00    +0.000 C 
ATOM     14  C   UNL     1      31.997 -25.037 -13.175  0.00  0.00    +0.000 C 
ATOM     15  C   UNL     1      30.869 -24.220 -13.243  0.00  0.00    +0.000 C 
ENDBRANCH   9  10
ENDBRANCH   1   4
BRANCH   1  16
ATOM     16  C   UNL     1      35.265 -19.948 -20.631  0.00  0.00    +0.002 C 
BRANCH  16  17
ATOM     17  C   UNL     1      34.987 -19.344 -22.008  0.00  0.00    +0.021 C 
BRANCH  17  18
ATOM     18  C   UNL     1      36.068 -18.346 -22.404  0.00  0.00    +0.090 C 
BRANCH  18  20
ATOM     19  O   UNL     1      34.829 -16.747 -24.479  0.00  0.00    -0.270 OA
ATOM     20  N   UNL     1      35.601 -16.990 -22.298  0.00  0.00    -0.301 N 
ATOM     21  C   UNL     1      35.016 -16.299 -23.352  0.00  0.00    +0.246 C 
ATOM     22  H   UNL     1      35.700 -16.529 -21.434  0.00  0.00    +0.150 HD
BRANCH  21  23
ATOM     23  C   UNL     1      34.624 -14.914 -22.964  0.00  0.00    +0.058 C 
ATOM     24  C   UNL     1      33.620 -14.299 -23.604  0.00  0.00    +0.006 C 
BRANCH  24  26
ATOM     25  N   UNL     1      31.622 -11.508 -22.081  0.00  0.00    -0.242 NA
ATOM     26  C   UNL     1      33.143 -12.938 -23.300  0.00  0.00    +0.019 C 
ATOM     27  C   UNL     1      33.717 -11.825 -23.904  0.00  0.00    +0.003 C 
ATOM     28  C   UNL     1      32.108 -12.728 -22.403  0.00  0.00    +0.099 C 
ATOM     29  C   UNL     1      33.245 -10.554 -23.598  0.00  0.00    +0.021 C 
ATOM     30  C   UNL     1      32.205 -10.450 -22.688  0.00  0.00    +0.099 C 
ENDBRANCH  24  26
ENDBRANCH  21  23
ENDBRANCH  18  20
ENDBRANCH  17  18
ENDBRANCH  16  17
ENDBRANCH   1  16
TORSDOF 8
ENDMDL
MODEL 9
REMARK VINA RESULT:     -10.5      1.244      1.730
REMARK  Name = 6914657
REMARK  8 active torsions:
REMARK  status: ('A' for Active; 'I' for Inactive)
REMARK    1  A    between atoms: C_1  and  C_4
REMARK    2  A    between atoms: C_1  and  C_16
REMARK    3  A    between atoms: C_9  and  C_10
REMARK    4  A    between atoms: C_16  and  C_17
REMARK    5  A    between atoms: C_17  and  C_18
REMARK    6  A    between atoms: C_18  and  N_20
REMARK    7  A    between atoms: C_21  and  C_23
REMARK    8  A    between atoms: C_24  and  C_26
REMARK                            x       y       z     vdW  Elec       q    Type
REMARK                         _______ _______ _______ _____ _____    ______ ____
ROOT
ATOM      1  C   UNL     1      33.641 -12.733 -23.651  0.00  0.00    +0.000 C 
ENDROOT
BRANCH   1   4
ATOM      2  O   UNL     1      32.056  -8.486 -19.382  0.00  0.00    -0.270 OA
ATOM      3  N   UNL     1      31.750  -9.584 -21.423  0.00  0.00    -0.276 N 
ATOM      4  C   UNL     1      32.557 -11.872 -23.005  0.00  0.00    +0.003 C 
ATOM      5  C   UNL     1      32.582 -10.444 -23.574  0.00  0.00    +0.022 C 
ATOM      6  C   UNL     1      32.721 -11.842 -21.477  0.00  0.00    +0.022 C 
ATOM      7  C   UNL     1      31.552  -9.557 -22.878  0.00  0.00    +0.094 C 
ATOM      8  C   UNL     1      31.694 -10.918 -20.826  0.00  0.00    +0.094 C 
ATOM      9  C   UNL     1      31.932  -8.467 -20.605  0.00  0.00    +0.249 C 
BRANCH   9  10
ATOM     10  C   UNL     1      31.996  -7.146 -21.241  0.00  0.00    +0.054 C 
ATOM     11  C   UNL     1      30.963  -6.227 -21.047  0.00  0.00    +0.005 C 
ATOM     12  C   UNL     1      33.088  -6.807 -22.040  0.00  0.00    +0.005 C 
ATOM     13  C   UNL     1      31.023  -4.972 -21.651  0.00  0.00    +0.000 C 
ATOM     14  C   UNL     1      33.148  -5.551 -22.644  0.00  0.00    +0.000 C 
ATOM     15  C   UNL     1      32.115  -4.634 -22.450  0.00  0.00    +0.000 C 
ENDBRANCH   9  10
ENDBRANCH   1   4
BRANCH   1  16
ATOM     16  C   UNL     1      33.460 -14.206 -23.296  0.00  0.00    +0.002 C 
BRANCH  16  17
ATOM     17  C   UNL     1      34.732 -14.782 -22.672  0.00  0.00    +0.021 C 
BRANCH  17  18
ATOM     18  C   UNL     1      35.302 -15.913 -23.518  0.00  0.00    +0.090 C 
BRANCH  18  20
ATOM     19  O   UNL     1      34.237 -18.378 -24.607  0.00  0.00    -0.270 OA
ATOM     20  N   UNL     1      35.185 -17.182 -22.853  0.00  0.00    -0.301 N 
ATOM     21  C   UNL     1      34.659 -18.316 -23.457  0.00  0.00    +0.246 C 
ATOM     22  H   UNL     1      35.495 -17.250 -21.921  0.00  0.00    +0.150 HD
BRANCH  21  23
ATOM     23  C   UNL     1      34.658 -19.492 -22.540  0.00  0.00    +0.058 C 
ATOM     24  C   UNL     1      34.425 -19.319 -21.231  0.00  0.00    +0.006 C 
BRANCH  24  26
ATOM     25  N   UNL     1      33.087 -21.927 -18.884  0.00  0.00    -0.242 NA
ATOM     26  C   UNL     1      34.392 -20.406 -20.237  0.00  0.00    +0.019 C 
ATOM     27  C   UNL     1      35.566 -20.937 -19.714  0.00  0.00    +0.003 C 
ATOM     28  C   UNL     1      33.189 -20.931 -19.793  0.00  0.00    +0.099 C 
ATOM     29  C   UNL     1      35.502 -21.961 -18.777  0.00  0.00    +0.021 C 
ATOM     30  C   UNL     1      34.250 -22.417 -18.398  0.00  0.00    +0.099 C 
ENDBRANCH  24  26
ENDBRANCH  21  23
ENDBRANCH  18  20
ENDBRANCH  17  18
ENDBRANCH  16  17
ENDBRANCH   1  16
TORSDOF 8
ENDMDL
