MODEL 1
REMARK VINA RESULT:     -10.8      0.000      0.000
REMARK  Name = 213040
REMARK  9 active torsions:
REMARK  status: ('A' for Active; 'I' for Inactive)
REMARK    1  A    between atoms: N_2  and  C_10
REMARK    2  A    between atoms: C_8  and  C_26
REMARK    3  A    between atoms: C_10  and  C_11
REMARK    4  A    between atoms: C_11  and  O_12
REMARK    5  A    between atoms: C_11  and  C_14
REMARK    6  A    between atoms: C_14  and  O_15
REMARK    7  A    between atoms: O_15  and  C_17
REMARK    8  A    between atoms: C_26  and  C_27
REMARK    9  A    between atoms: C_26  and  C_33
REMARK                            x       y       z     vdW  Elec       q    Type
REMARK                         _______ _______ _______ _____ _____    ______ ____
ROOT
ATOM      1  O   UNL     1      32.319 -10.332 -24.368  0.00  0.00    -0.274 OA
ATOM      2  N   UNL     1      34.035 -14.753 -22.811  0.00  0.00    +0.391 N 
ATOM      3  N   UNL     1      32.980 -12.096 -23.010  0.00  0.00    -0.283 N 
ATOM      4  C   UNL     1      33.706 -14.178 -24.124  0.00  0.00    -0.055 C 
ATOM      5  C   UNL     1      34.485 -13.701 -21.887  0.00  0.00    -0.055 C 
ATOM      6  C   UNL     1      32.613 -13.117 -23.992  0.00  0.00    +0.071 C 
ATOM      7  C   UNL     1      33.410 -12.627 -21.714  0.00  0.00    +0.071 C 
ATOM      8  C   UNL     1      32.789 -10.748 -23.306  0.00  0.00    +0.233 C 
ATOM      9  H   UNL     1      33.192 -15.180 -22.427  0.00  0.00    -0.079 HD
ENDROOT
BRANCH   2  10
ATOM     10  C   UNL     1      35.056 -15.791 -22.946  0.00  0.00    -0.043 C 
BRANCH  10  11
ATOM     11  C   UNL     1      34.594 -16.938 -23.848  0.00  0.00    +0.133 C 
BRANCH  11  12
ATOM     12  O   UNL     1      35.256 -16.807 -25.110  0.00  0.00    -0.383 OA
ATOM     13  H   UNL     1      34.599 -16.828 -25.823  0.00  0.00    +0.210 HD
ENDBRANCH  11  12
BRANCH  11  14
ATOM     14  C   UNL     1      34.908 -18.319 -23.276  0.00  0.00    +0.232 C 
BRANCH  14  15
ATOM     15  O   UNL     1      34.492 -18.360 -21.915  0.00  0.00    -0.473 OA
BRANCH  15  17
ATOM     16  N   UNL     1      34.881 -21.879 -18.632  0.00  0.00    -0.244 NA
ATOM     17  C   UNL     1      35.233 -19.139 -21.068  0.00  0.00    +0.140 C 
ATOM     18  C   UNL     1      34.635 -20.131 -20.273  0.00  0.00    +0.052 C 
ATOM     19  C   UNL     1      36.607 -18.924 -21.012  0.00  0.00    +0.037 C 
ATOM     20  C   UNL     1      35.422 -20.920 -19.407  0.00  0.00    +0.084 C 
ATOM     21  C   UNL     1      37.388 -19.697 -20.162  0.00  0.00    +0.005 C 
ATOM     22  C   UNL     1      33.255 -20.368 -20.310  0.00  0.00    +0.006 C 
ATOM     23  C   UNL     1      36.794 -20.683 -19.371  0.00  0.00    +0.019 C 
ATOM     24  C   UNL     1      32.695 -21.355 -19.512  0.00  0.00    +0.021 C 
ATOM     25  C   UNL     1      33.546 -22.077 -18.698  0.00  0.00    +0.099 C 
ENDBRANCH  15  17
ENDBRANCH  14  15
ENDBRANCH  11  14
ENDBRANCH  10  11
ENDBRANCH   2  10
BRANCH   8  26
ATOM     26  C   UNL     1      33.197  -9.759 -22.244  0.00  0.00    +0.121 C 
BRANCH  26  27
ATOM     27  C   UNL     1      33.398  -8.369 -22.811  0.00  0.00    -0.010 C 
ATOM     28  C   UNL     1      34.674  -7.945 -23.183  0.00  0.00    -0.003 C 
ATOM     29  C   UNL     1      32.307  -7.513 -22.963  0.00  0.00    -0.003 C 
ATOM     30  C   UNL     1      34.859  -6.666 -23.706  0.00  0.00    -0.000 C 
ATOM     31  C   UNL     1      32.492  -6.233 -23.486  0.00  0.00    -0.000 C 
ATOM     32  C   UNL     1      33.769  -5.809 -23.858  0.00  0.00    -0.000 C 
ENDBRANCH  26  27
BRANCH  26  33
ATOM     33  C   UNL     1      32.281  -9.788 -21.036  0.00  0.00    -0.010 C 
ATOM     34  C   UNL     1      31.156 -10.610 -21.033  0.00  0.00    -0.003 C 
ATOM     35  C   UNL     1      32.566  -8.992 -19.926  0.00  0.00    -0.003 C 
ATOM     36  C   UNL     1      30.314 -10.638 -19.921  0.00  0.00    -0.000 C 
ATOM     37  C   UNL     1      31.724  -9.019 -18.814  0.00  0.00    -0.000 C 
ATOM     38  C   UNL     1      30.598  -9.843 -18.812  0.00  0.00    -0.000 C 
ENDBRANCH  26  33
ENDBRANCH   8  26
TORSDOF 9
ENDMDL
MODEL 2
REMARK VINA RESULT:     -10.8      1.415      3.264
REMARK  Name = 213040
REMARK  9 active torsions:
REMARK  status: ('A' for Active; 'I' for Inactive)
REMARK    1  A    between atoms: N_2  and  C_10
REMARK    2  A    between atoms: C_8  and  C_26
REMARK    3  A    between atoms: C_10  and  C_11
REMARK    4  A    between atoms: C_11  and  O_12
REMARK    5  A    between atoms: C_11  and  C_14
REMARK    6  A    between atoms: C_14  and  O_15
REMARK    7  A    between atoms: O_15  and  C_17
REMARK    8  A    between atoms: C_26  and  C_27
REMARK    9  A    between atoms: C_26  and  C_33
REMARK                            x       y       z     vdW  Elec       q    Type
REMARK                         _______ _______ _______ _____ _____    ______ ____
ROOT
ATOM      1  O   UNL     1      33.883  -8.693 -23.123  0.00  0.00    -0.274 OA
ATOM      2  N   UNL     1      33.533 -13.664 -23.409  0.00  0.00    +0.391 N 
ATOM      3  N   UNL     1      33.030 -10.844 -23.312  0.00  0.00    -0.283 N 
ATOM      4  C   UNL     1      34.650 -12.707 -23.389  0.00  0.00    -0.055 C 
ATOM      5  C   UNL     1      32.391 -13.137 -22.648  0.00  0.00    -0.055 C 
ATOM      6  C   UNL     1      34.223 -11.364 -23.980  0.00  0.00    +0.071 C 
ATOM      7  C   UNL     1      31.921 -11.799 -23.221  0.00  0.00    +0.071 C 
ATOM      8  C   UNL     1      32.974  -9.504 -22.933  0.00  0.00    +0.233 C 
ATOM      9  H   UNL     1      33.241 -13.797 -24.378  0.00  0.00    -0.079 HD
ENDROOT
BRANCH   2  10
ATOM     10  C   UNL     1      33.955 -14.957 -22.874  0.00  0.00    -0.043 C 
BRANCH  10  11
ATOM     11  C   UNL     1      33.987 -16.043 -23.952  0.00  0.00    +0.133 C 
BRANCH  11  12
ATOM     12  O   UNL     1      34.314 -15.424 -25.200  0.00  0.00    -0.383 OA
ATOM     13  H   UNL     1      33.621 -14.787 -25.435  0.00  0.00    +0.210 HD
ENDBRANCH  11  12
BRANCH  11  14
ATOM     14  C   UNL     1      35.011 -17.142 -23.672  0.00  0.00    +0.232 C 
BRANCH  14  15
ATOM     15  O   UNL     1      34.431 -18.100 -22.794  0.00  0.00    -0.473 OA
BRANCH  15  17
ATOM     16  N   UNL     1      35.262 -21.132 -19.129  0.00  0.00    -0.244 NA
ATOM     17  C   UNL     1      35.272 -18.704 -21.898  0.00  0.00    +0.140 C 
ATOM     18  C   UNL     1      34.796 -19.631 -20.956  0.00  0.00    +0.052 C 
ATOM     19  C   UNL     1      36.624 -18.376 -21.944  0.00  0.00    +0.037 C 
ATOM     20  C   UNL     1      35.685 -20.239 -20.044  0.00  0.00    +0.084 C 
ATOM     21  C   UNL     1      37.504 -18.972 -21.049  0.00  0.00    +0.005 C 
ATOM     22  C   UNL     1      33.441 -19.979 -20.889  0.00  0.00    +0.006 C 
ATOM     23  C   UNL     1      37.032 -19.893 -20.111  0.00  0.00    +0.019 C 
ATOM     24  C   UNL     1      33.002 -20.897 -19.946  0.00  0.00    +0.021 C 
ATOM     25  C   UNL     1      33.946 -21.441 -19.097  0.00  0.00    +0.099 C 
ENDBRANCH  15  17
ENDBRANCH  14  15
ENDBRANCH  11  14
ENDBRANCH  10  11
ENDBRANCH   2  10
BRANCH   8  26
ATOM     26  C   UNL     1      31.712  -9.050 -22.245  0.00  0.00    +0.121 C 
BRANCH  26  27
ATOM     27  C   UNL     1      31.729  -9.367 -20.764  0.00  0.00    -0.010 C 
ATOM     28  C   UNL     1      30.839 -10.305 -20.241  0.00  0.00    -0.003 C 
ATOM     29  C   UNL     1      32.636  -8.721 -19.923  0.00  0.00    -0.003 C 
ATOM     30  C   UNL     1      30.856 -10.597 -18.877  0.00  0.00    -0.000 C 
ATOM     31  C   UNL     1      32.653  -9.013 -18.560  0.00  0.00    -0.000 C 
ATOM     32  C   UNL     1      31.762  -9.952 -18.036  0.00  0.00    -0.000 C 
ENDBRANCH  26  27
BRANCH  26  33
ATOM     33  C   UNL     1      31.371  -7.603 -22.546  0.00  0.00    -0.010 C 
ATOM     34  C   UNL     1      31.035  -7.221 -23.844  0.00  0.00    -0.003 C 
ATOM     35  C   UNL     1      31.392  -6.655 -21.523  0.00  0.00    -0.003 C 
ATOM     36  C   UNL     1      30.720  -5.890 -24.120  0.00  0.00    -0.000 C 
ATOM     37  C   UNL     1      31.077  -5.324 -21.799  0.00  0.00    -0.000 C 
ATOM     38  C   UNL     1      30.741  -4.942 -23.098  0.00  0.00    -0.000 C 
ENDBRANCH  26  33
ENDBRANCH   8  26
TORSDOF 9
ENDMDL
MODEL 3
REMARK VINA RESULT:     -10.7      3.771     12.643
REMARK  Name = 213040
REMARK  9 active torsions:
REMARK  status: ('A' for Active; 'I' for Inactive)
REMARK    1  A    between atoms: N_2  and  C_10
REMARK    2  A    between atoms: C_8  and  C_26
REMARK    3  A    between atoms: C_10  and  C_11
REMARK    4  A    between atoms: C_11  and  O_12
REMARK    5  A    between atoms: C_11  and  C_14
REMARK    6  A    between atoms: C_14  and  O_15
REMARK    7  A    between atoms: O_15  and  C_17
REMARK    8  A    between atoms: C_26  and  C_27
REMARK    9  A    between atoms: C_26  and  C_33
REMARK                            x       y       z     vdW  Elec       q    Type
REMARK                         _______ _______ _______ _____ _____    ______ ____
ROOT
ATOM      1  O   UNL     1      33.097 -23.899 -17.249  0.00  0.00    -0.274 OA
ATOM      2  N   UNL     1      36.468 -20.916 -19.407  0.00  0.00    +0.391 N 
ATOM      3  N   UNL     1      35.035 -22.690 -17.672  0.00  0.00    -0.283 N 
ATOM      4  C   UNL     1      35.166 -21.466 -19.813  0.00  0.00    -0.055 C 
ATOM      5  C   UNL     1      36.515 -20.732 -17.949  0.00  0.00    -0.055 C 
ATOM      6  C   UNL     1      34.906 -22.806 -19.124  0.00  0.00    +0.071 C 
ATOM      7  C   UNL     1      36.277 -22.056 -17.222  0.00  0.00    +0.071 C 
ATOM      8  C   UNL     1      34.078 -23.272 -16.842  0.00  0.00    +0.233 C 
ATOM      9  H   UNL     1      37.195 -21.581 -19.672  0.00  0.00    -0.079 HD
ENDROOT
BRANCH   2  10
ATOM     10  C   UNL     1      36.727 -19.652 -20.094  0.00  0.00    -0.043 C 
BRANCH  10  11
ATOM     11  C   UNL     1      35.631 -19.311 -21.105  0.00  0.00    +0.133 C 
BRANCH  11  12
ATOM     12  O   UNL     1      34.529 -18.740 -20.394  0.00  0.00    -0.383 OA
ATOM     13  H   UNL     1      34.537 -17.777 -20.504  0.00  0.00    +0.210 HD
ENDBRANCH  11  12
BRANCH  11  14
ATOM     14  C   UNL     1      36.084 -18.319 -22.175  0.00  0.00    +0.232 C 
BRANCH  14  15
ATOM     15  O   UNL     1      35.752 -17.001 -21.752  0.00  0.00    -0.473 OA
BRANCH  15  17
ATOM     16  N   UNL     1      32.816 -13.284 -22.689  0.00  0.00    -0.244 NA
ATOM     17  C   UNL     1      35.001 -16.247 -22.614  0.00  0.00    +0.140 C 
ATOM     18  C   UNL     1      34.282 -15.125 -22.171  0.00  0.00    +0.052 C 
ATOM     19  C   UNL     1      34.968 -16.622 -23.955  0.00  0.00    +0.037 C 
ATOM     20  C   UNL     1      33.516 -14.365 -23.081  0.00  0.00    +0.084 C 
ATOM     21  C   UNL     1      34.216 -15.878 -24.855  0.00  0.00    +0.005 C 
ATOM     22  C   UNL     1      34.299 -14.726 -20.828  0.00  0.00    +0.006 C 
ATOM     23  C   UNL     1      33.500 -14.762 -24.415  0.00  0.00    +0.019 C 
ATOM     24  C   UNL     1      33.577 -13.613 -20.422  0.00  0.00    +0.021 C 
ATOM     25  C   UNL     1      32.859 -12.932 -21.384  0.00  0.00    +0.099 C 
ENDBRANCH  15  17
ENDBRANCH  14  15
ENDBRANCH  11  14
ENDBRANCH  10  11
ENDBRANCH   2  10
BRANCH   8  26
ATOM     26  C   UNL     1      34.281 -23.103 -15.357  0.00  0.00    +0.121 C 
BRANCH  26  27
ATOM     27  C   UNL     1      33.032 -23.447 -14.573  0.00  0.00    -0.010 C 
ATOM     28  C   UNL     1      32.978 -24.627 -13.831  0.00  0.00    -0.003 C 
ATOM     29  C   UNL     1      31.937 -22.584 -14.591  0.00  0.00    -0.003 C 
ATOM     30  C   UNL     1      31.828 -24.944 -13.108  0.00  0.00    -0.000 C 
ATOM     31  C   UNL     1      30.786 -22.900 -13.868  0.00  0.00    -0.000 C 
ATOM     32  C   UNL     1      30.732 -24.082 -13.126  0.00  0.00    -0.000 C 
ENDBRANCH  26  27
BRANCH  26  33
ATOM     33  C   UNL     1      35.522 -23.813 -14.853  0.00  0.00    -0.010 C 
ATOM     34  C   UNL     1      36.451 -23.125 -14.073  0.00  0.00    -0.003 C 
ATOM     35  C   UNL     1      35.735 -25.155 -15.168  0.00  0.00    -0.003 C 
ATOM     36  C   UNL     1      37.592 -23.778 -13.607  0.00  0.00    -0.000 C 
ATOM     37  C   UNL     1      36.876 -25.809 -14.703  0.00  0.00    -0.000 C 
ATOM     38  C   UNL     1      37.804 -25.120 -13.922  0.00  0.00    -0.000 C 
ENDBRANCH  26  33
ENDBRANCH   8  26
TORSDOF 9
ENDMDL
MODEL 4
REMARK VINA RESULT:     -10.3      3.569      7.085
REMARK  Name = 213040
REMARK  9 active torsions:
REMARK  status: ('A' for Active; 'I' for Inactive)
REMARK    1  A    between atoms: N_2  and  C_10
REMARK    2  A    between atoms: C_8  and  C_26
REMARK    3  A    between atoms: C_10  and  C_11
REMARK    4  A    between atoms: C_11  and  O_12
REMARK    5  A    between atoms: C_11  and  C_14
REMARK    6  A    between atoms: C_14  and  O_15
REMARK    7  A    between atoms: O_15  and  C_17
REMARK    8  A    between atoms: C_26  and  C_27
REMARK    9  A    between atoms: C_26  and  C_33
REMARK                            x       y       z     vdW  Elec       q    Type
REMARK                         _______ _______ _______ _____ _____    ______ ____
ROOT
ATOM      1  O   UNL     1      35.017  -5.905 -24.339  0.00  0.00    -0.274 OA
ATOM      2  N   UNL     1      32.056  -9.333 -22.242  0.00  0.00    +0.391 N 
ATOM      3  N   UNL     1      33.438  -7.582 -24.041  0.00  0.00    -0.283 N 
ATOM      4  C   UNL     1      33.154  -8.484 -21.759  0.00  0.00    -0.055 C 
ATOM      5  C   UNL     1      31.333  -8.667 -23.335  0.00  0.00    -0.055 C 
ATOM      6  C   UNL     1      34.130  -8.164 -22.891  0.00  0.00    +0.071 C 
ATOM      7  C   UNL     1      32.273  -8.345 -24.498  0.00  0.00    +0.071 C 
ATOM      8  C   UNL     1      33.971  -6.464 -24.679  0.00  0.00    +0.233 C 
ATOM      9  H   UNL     1      32.455 -10.201 -22.601  0.00  0.00    -0.079 HD
ENDROOT
BRANCH   2  10
ATOM     10  C   UNL     1      31.144  -9.664 -21.149  0.00  0.00    -0.043 C 
BRANCH  10  11
ATOM     11  C   UNL     1      31.772 -10.639 -20.150  0.00  0.00    +0.133 C 
BRANCH  11  12
ATOM     12  O   UNL     1      31.148 -10.438 -18.878  0.00  0.00    -0.383 OA
ATOM     13  H   UNL     1      30.184 -10.446 -18.986  0.00  0.00    +0.210 HD
ENDBRANCH  11  12
BRANCH  11  14
ATOM     14  C   UNL     1      31.602 -12.104 -20.548  0.00  0.00    +0.232 C 
BRANCH  14  15
ATOM     15  O   UNL     1      32.441 -12.379 -21.665  0.00  0.00    -0.473 OA
BRANCH  15  17
ATOM     16  N   UNL     1      34.699 -16.151 -23.661  0.00  0.00    -0.244 NA
ATOM     17  C   UNL     1      33.239 -13.487 -21.578  0.00  0.00    +0.140 C 
ATOM     18  C   UNL     1      33.553 -14.255 -22.712  0.00  0.00    +0.052 C 
ATOM     19  C   UNL     1      33.741 -13.839 -20.328  0.00  0.00    +0.037 C 
ATOM     20  C   UNL     1      34.379 -15.394 -22.595  0.00  0.00    +0.084 C 
ATOM     21  C   UNL     1      34.554 -14.958 -20.206  0.00  0.00    +0.005 C 
ATOM     22  C   UNL     1      33.063 -13.923 -23.982  0.00  0.00    +0.006 C 
ATOM     23  C   UNL     1      34.866 -15.723 -21.333  0.00  0.00    +0.019 C 
ATOM     24  C   UNL     1      33.390 -14.703 -25.082  0.00  0.00    +0.021 C 
ATOM     25  C   UNL     1      34.206 -15.797 -24.869  0.00  0.00    +0.099 C 
ENDBRANCH  15  17
ENDBRANCH  14  15
ENDBRANCH  11  14
ENDBRANCH  10  11
ENDBRANCH   2  10
BRANCH   8  26
ATOM     26  C   UNL     1      33.193  -5.922 -25.852  0.00  0.00    +0.121 C 
BRANCH  26  27
ATOM     27  C   UNL     1      32.580  -4.570 -25.549  0.00  0.00    -0.010 C 
ATOM     28  C   UNL     1      33.274  -3.403 -25.868  0.00  0.00    -0.003 C 
ATOM     29  C   UNL     1      31.322  -4.493 -24.952  0.00  0.00    -0.003 C 
ATOM     30  C   UNL     1      32.709  -2.158 -25.589  0.00  0.00    -0.000 C 
ATOM     31  C   UNL     1      30.757  -3.249 -24.673  0.00  0.00    -0.000 C 
ATOM     32  C   UNL     1      31.452  -2.080 -24.992  0.00  0.00    -0.000 C 
ENDBRANCH  26  27
BRANCH  26  33
ATOM     33  C   UNL     1      33.990  -5.945 -27.142  0.00  0.00    -0.010 C 
ATOM     34  C   UNL     1      35.384  -5.940 -27.101  0.00  0.00    -0.003 C 
ATOM     35  C   UNL     1      33.329  -5.971 -28.370  0.00  0.00    -0.003 C 
ATOM     36  C   UNL     1      36.117  -5.963 -28.287  0.00  0.00    -0.000 C 
ATOM     37  C   UNL     1      34.061  -5.993 -29.557  0.00  0.00    -0.000 C 
ATOM     38  C   UNL     1      35.456  -5.989 -29.515  0.00  0.00    -0.000 C 
ENDBRANCH  26  33
ENDBRANCH   8  26
TORSDOF 9
ENDMDL
MODEL 5
REMARK VINA RESULT:     -10.1      0.994      1.913
REMARK  Name = 213040
REMARK  9 active torsions:
REMARK  status: ('A' for Active; 'I' for Inactive)
REMARK    1  A    between atoms: N_2  and  C_10
REMARK    2  A    between atoms: C_8  and  C_26
REMARK    3  A    between atoms: C_10  and  C_11
REMARK    4  A    between atoms: C_11  and  O_12
REMARK    5  A    between atoms: C_11  and  C_14
REMARK    6  A    between atoms: C_14  and  O_15
REMARK    7  A    between atoms: O_15  and  C_17
REMARK    8  A    between atoms: C_26  and  C_27
REMARK    9  A    between atoms: C_26  and  C_33
REMARK                            x       y       z     vdW  Elec       q    Type
REMARK                         _______ _______ _______ _____ _____    ______ ____
ROOT
ATOM      1  O   UNL     1      32.675 -10.921 -24.655  0.00  0.00    -0.274 OA
ATOM      2  N   UNL     1      34.390 -15.251 -22.858  0.00  0.00    +0.391 N 
ATOM      3  N   UNL     1      33.278 -12.633 -23.205  0.00  0.00    -0.283 N 
ATOM      4  C   UNL     1      34.150 -14.716 -24.206  0.00  0.00    -0.055 C 
ATOM      5  C   UNL     1      34.736 -14.165 -21.928  0.00  0.00    -0.055 C 
ATOM      6  C   UNL     1      33.020 -13.686 -24.187  0.00  0.00    +0.071 C 
ATOM      7  C   UNL     1      33.620 -13.122 -21.866  0.00  0.00    +0.071 C 
ATOM      8  C   UNL     1      33.072 -11.298 -23.549  0.00  0.00    +0.233 C 
ATOM      9  H   UNL     1      33.532 -15.695 -22.531  0.00  0.00    -0.079 HD
ENDROOT
BRANCH   2  10
ATOM     10  C   UNL     1      35.449 -16.259 -22.888  0.00  0.00    -0.043 C 
BRANCH  10  11
ATOM     11  C   UNL     1      34.970 -17.612 -22.356  0.00  0.00    +0.133 C 
BRANCH  11  12
ATOM     12  O   UNL     1      35.316 -18.616 -23.314  0.00  0.00    -0.383 OA
ATOM     13  H   UNL     1      34.553 -18.792 -23.887  0.00  0.00    +0.210 HD
ENDBRANCH  11  12
BRANCH  11  14
ATOM     14  C   UNL     1      35.593 -17.988 -21.013  0.00  0.00    +0.232 C 
BRANCH  14  15
ATOM     15  O   UNL     1      35.831 -19.391 -20.992  0.00  0.00    -0.473 OA
BRANCH  15  17
ATOM     16  N   UNL     1      34.743 -22.457 -17.424  0.00  0.00    -0.244 NA
ATOM     17  C   UNL     1      34.937 -20.157 -20.294  0.00  0.00    +0.140 C 
ATOM     18  C   UNL     1      35.336 -20.927 -19.189  0.00  0.00    +0.052 C 
ATOM     19  C   UNL     1      33.607 -20.155 -20.708  0.00  0.00    +0.037 C 
ATOM     20  C   UNL     1      34.393 -21.708 -18.487  0.00  0.00    +0.084 C 
ATOM     21  C   UNL     1      32.674 -20.922 -20.021  0.00  0.00    +0.005 C 
ATOM     22  C   UNL     1      36.667 -20.947 -18.751  0.00  0.00    +0.006 C 
ATOM     23  C   UNL     1      33.071 -21.688 -18.922  0.00  0.00    +0.019 C 
ATOM     24  C   UNL     1      37.029 -21.718 -17.656  0.00  0.00    +0.021 C 
ATOM     25  C   UNL     1      36.037 -22.448 -17.033  0.00  0.00    +0.099 C 
ENDBRANCH  15  17
ENDBRANCH  14  15
ENDBRANCH  11  14
ENDBRANCH  10  11
ENDBRANCH   2  10
BRANCH   8  26
ATOM     26  C   UNL     1      33.366 -10.274 -22.482  0.00  0.00    +0.121 C 
BRANCH  26  27
ATOM     27  C   UNL     1      33.591  -8.895 -23.069  0.00  0.00    -0.010 C 
ATOM     28  C   UNL     1      34.888  -8.445 -23.315  0.00  0.00    -0.003 C 
ATOM     29  C   UNL     1      32.501  -8.076 -23.363  0.00  0.00    -0.003 C 
ATOM     30  C   UNL     1      35.095  -7.176 -23.855  0.00  0.00    -0.000 C 
ATOM     31  C   UNL     1      32.708  -6.807 -23.904  0.00  0.00    -0.000 C 
ATOM     32  C   UNL     1      34.006  -6.357 -24.150  0.00  0.00    -0.000 C 
ENDBRANCH  26  27
BRANCH  26  33
ATOM     33  C   UNL     1      32.347 -10.290 -21.360  0.00  0.00    -0.010 C 
ATOM     34  C   UNL     1      31.111 -10.907 -21.548  0.00  0.00    -0.003 C 
ATOM     35  C   UNL     1      32.647  -9.689 -20.137  0.00  0.00    -0.003 C 
ATOM     36  C   UNL     1      30.174 -10.923 -20.515  0.00  0.00    -0.000 C 
ATOM     37  C   UNL     1      31.710  -9.704 -19.103  0.00  0.00    -0.000 C 
ATOM     38  C   UNL     1      30.474 -10.322 -19.293  0.00  0.00    -0.000 C 
ENDBRANCH  26  33
ENDBRANCH   8  26
TORSDOF 9
ENDMDL
MODEL 6
REMARK VINA RESULT:     -10.1      3.117      6.783
REMARK  Name = 213040
REMARK  9 active torsions:
REMARK  status: ('A' for Active; 'I' for Inactive)
REMARK    1  A    between atoms: N_2  and  C_10
REMARK    2  A    between atoms: C_8  and  C_26
REMARK    3  A    between atoms: C_10  and  C_11
REMARK    4  A    between atoms: C_11  and  O_12
REMARK    5  A    between atoms: C_11  and  C_14
REMARK    6  A    between atoms: C_14  and  O_15
REMARK    7  A    between atoms: O_15  and  C_17
REMARK    8  A    between atoms: C_26  and  C_27
REMARK    9  A    between atoms: C_26  and  C_33
REMARK                            x       y       z     vdW  Elec       q    Type
REMARK                         _______ _______ _______ _____ _____    ______ ____
ROOT
ATOM      1  O   UNL     1      34.775  -6.114 -24.066  0.00  0.00    -0.274 OA
ATOM      2  N   UNL     1      31.829  -9.915 -22.727  0.00  0.00    +0.391 N 
ATOM      3  N   UNL     1      33.111  -7.734 -24.074  0.00  0.00    -0.283 N 
ATOM      4  C   UNL     1      33.049  -9.309 -22.172  0.00  0.00    -0.055 C 
ATOM      5  C   UNL     1      31.030  -8.905 -23.436  0.00  0.00    -0.055 C 
ATOM      6  C   UNL     1      33.894  -8.681 -23.280  0.00  0.00    +0.071 C 
ATOM      7  C   UNL     1      31.837  -8.264 -24.567  0.00  0.00    +0.071 C 
ATOM      8  C   UNL     1      33.650  -6.492 -24.403  0.00  0.00    +0.233 C 
ATOM      9  H   UNL     1      32.104 -10.636 -23.394  0.00  0.00    -0.079 HD
ENDROOT
BRANCH   2  10
ATOM     10  C   UNL     1      31.041 -10.543 -21.668  0.00  0.00    -0.043 C 
BRANCH  10  11
ATOM     11  C   UNL     1      31.920 -11.287 -20.660  0.00  0.00    +0.133 C 
BRANCH  11  12
ATOM     12  O   UNL     1      31.355 -11.108 -19.358  0.00  0.00    -0.383 OA
ATOM     13  H   UNL     1      30.856 -11.902 -19.109  0.00  0.00    +0.210 HD
ENDBRANCH  11  12
BRANCH  11  14
ATOM     14  C   UNL     1      32.026 -12.785 -20.941  0.00  0.00    +0.232 C 
BRANCH  14  15
ATOM     15  O   UNL     1      33.368 -13.092 -21.303  0.00  0.00    -0.473 OA
BRANCH  15  17
ATOM     16  N   UNL     1      35.010 -17.031 -23.561  0.00  0.00    -0.244 NA
ATOM     17  C   UNL     1      33.545 -13.847 -22.431  0.00  0.00    +0.140 C 
ATOM     18  C   UNL     1      34.210 -15.084 -22.389  0.00  0.00    +0.052 C 
ATOM     19  C   UNL     1      33.043 -13.357 -23.634  0.00  0.00    +0.037 C 
ATOM     20  C   UNL     1      34.378 -15.842 -23.567  0.00  0.00    +0.084 C 
ATOM     21  C   UNL     1      33.205 -14.099 -24.797  0.00  0.00    +0.005 C 
ATOM     22  C   UNL     1      34.723 -15.600 -21.192  0.00  0.00    +0.006 C 
ATOM     23  C   UNL     1      33.867 -15.329 -24.756  0.00  0.00    +0.019 C 
ATOM     24  C   UNL     1      35.376 -16.824 -21.184  0.00  0.00    +0.021 C 
ATOM     25  C   UNL     1      35.491 -17.494 -22.385  0.00  0.00    +0.099 C 
ENDBRANCH  15  17
ENDBRANCH  14  15
ENDBRANCH  11  14
ENDBRANCH  10  11
ENDBRANCH   2  10
BRANCH   8  26
ATOM     26  C   UNL     1      32.777  -5.573 -25.219  0.00  0.00    +0.121 C 
BRANCH  26  27
ATOM     27  C   UNL     1      32.052  -4.563 -24.351  0.00  0.00    -0.010 C 
ATOM     28  C   UNL     1      31.169  -3.653 -24.931  0.00  0.00    -0.003 C 
ATOM     29  C   UNL     1      32.268  -4.546 -22.973  0.00  0.00    -0.003 C 
ATOM     30  C   UNL     1      30.502  -2.724 -24.132  0.00  0.00    -0.000 C 
ATOM     31  C   UNL     1      31.601  -3.617 -22.175  0.00  0.00    -0.000 C 
ATOM     32  C   UNL     1      30.717  -2.705 -22.755  0.00  0.00    -0.000 C 
ENDBRANCH  26  27
BRANCH  26  33
ATOM     33  C   UNL     1      33.517  -4.943 -26.382  0.00  0.00    -0.010 C 
ATOM     34  C   UNL     1      34.273  -3.788 -26.186  0.00  0.00    -0.003 C 
ATOM     35  C   UNL     1      33.444  -5.521 -27.650  0.00  0.00    -0.003 C 
ATOM     36  C   UNL     1      34.956  -3.210 -27.256  0.00  0.00    -0.000 C 
ATOM     37  C   UNL     1      34.126  -4.943 -28.721  0.00  0.00    -0.000 C 
ATOM     38  C   UNL     1      34.882  -3.787 -28.523  0.00  0.00    -0.000 C 
ENDBRANCH  26  33
ENDBRANCH   8  26
TORSDOF 9
ENDMDL
MODEL 7
REMARK VINA RESULT:     -10.0      2.736      5.721
REMARK  Name = 213040
REMARK  9 active torsions:
REMARK  status: ('A' for Active; 'I' for Inactive)
REMARK    1  A    between atoms: N_2  and  C_10
REMARK    2  A    between atoms: C_8  and  C_26
REMARK    3  A    between atoms: C_10  and  C_11
REMARK    4  A    between atoms: C_11  and  O_12
REMARK    5  A    between atoms: C_11  and  C_14
REMARK    6  A    between atoms: C_14  and  O_15
REMARK    7  A    between atoms: O_15  and  C_17
REMARK    8  A    between atoms: C_26  and  C_27
REMARK    9  A    between atoms: C_26  and  C_33
REMARK                            x       y       z     vdW  Elec       q    Type
REMARK                         _______ _______ _______ _____ _____    ______ ____
ROOT
ATOM      1  O   UNL     1      32.672  -5.636 -20.240  0.00  0.00    -0.274 OA
ATOM      2  N   UNL     1      32.186 -10.568 -20.837  0.00  0.00    +0.391 N 
ATOM      3  N   UNL     1      32.590  -7.753 -21.191  0.00  0.00    -0.283 N 
ATOM      4  C   UNL     1      32.216  -9.667 -19.675  0.00  0.00    -0.055 C 
ATOM      5  C   UNL     1      31.628  -9.877 -22.009  0.00  0.00    -0.055 C 
ATOM      6  C   UNL     1      33.053  -8.423 -19.976  0.00  0.00    +0.071 C 
ATOM      7  C   UNL     1      32.450  -8.634 -22.354  0.00  0.00    +0.071 C 
ATOM      8  C   UNL     1      32.439  -6.368 -21.206  0.00  0.00    +0.233 C 
ATOM      9  H   UNL     1      33.143 -10.847 -21.052  0.00  0.00    -0.079 HD
ENDROOT
BRANCH   2  10
ATOM     10  C   UNL     1      31.413 -11.771 -20.533  0.00  0.00    -0.043 C 
BRANCH  10  11
ATOM     11  C   UNL     1      32.307 -12.998 -20.345  0.00  0.00    +0.133 C 
BRANCH  11  12
ATOM     12  O   UNL     1      31.515 -14.167 -20.573  0.00  0.00    -0.383 OA
ATOM     13  H   UNL     1      31.499 -14.709 -19.769  0.00  0.00    +0.210 HD
ENDBRANCH  11  12
BRANCH  11  14
ATOM     14  C   UNL     1      33.501 -13.027 -21.297  0.00  0.00    +0.232 C 
BRANCH  14  15
ATOM     15  O   UNL     1      34.152 -14.288 -21.183  0.00  0.00    -0.473 OA
BRANCH  15  17
ATOM     16  N   UNL     1      35.340 -18.354 -23.500  0.00  0.00    -0.244 NA
ATOM     17  C   UNL     1      34.224 -15.049 -22.318  0.00  0.00    +0.140 C 
ATOM     18  C   UNL     1      34.765 -16.345 -22.299  0.00  0.00    +0.052 C 
ATOM     19  C   UNL     1      33.741 -14.504 -23.505  0.00  0.00    +0.037 C 
ATOM     20  C   UNL     1      34.827 -17.109 -23.484  0.00  0.00    +0.084 C 
ATOM     21  C   UNL     1      33.799 -15.251 -24.675  0.00  0.00    +0.005 C 
ATOM     22  C   UNL     1      35.257 -16.917 -21.119  0.00  0.00    +0.006 C 
ATOM     23  C   UNL     1      34.338 -16.539 -24.657  0.00  0.00    +0.019 C 
ATOM     24  C   UNL     1      35.786 -18.200 -21.133  0.00  0.00    +0.021 C 
ATOM     25  C   UNL     1      35.803 -18.870 -22.340  0.00  0.00    +0.099 C 
ENDBRANCH  15  17
ENDBRANCH  14  15
ENDBRANCH  11  14
ENDBRANCH  10  11
ENDBRANCH   2  10
BRANCH   8  26
ATOM     26  C   UNL     1      31.953  -5.756 -22.495  0.00  0.00    +0.121 C 
BRANCH  26  27
ATOM     27  C   UNL     1      31.406  -4.359 -22.287  0.00  0.00    -0.010 C 
ATOM     28  C   UNL     1      32.154  -3.250 -22.683  0.00  0.00    -0.003 C 
ATOM     29  C   UNL     1      30.153  -4.181 -21.700  0.00  0.00    -0.003 C 
ATOM     30  C   UNL     1      31.649  -1.964 -22.492  0.00  0.00    -0.000 C 
ATOM     31  C   UNL     1      29.648  -2.895 -21.509  0.00  0.00    -0.000 C 
ATOM     32  C   UNL     1      30.397  -1.786 -21.905  0.00  0.00    -0.000 C 
ENDBRANCH  26  27
BRANCH  26  33
ATOM     33  C   UNL     1      32.983  -5.838 -23.605  0.00  0.00    -0.010 C 
ATOM     34  C   UNL     1      34.315  -6.113 -23.302  0.00  0.00    -0.003 C 
ATOM     35  C   UNL     1      32.596  -5.640 -24.931  0.00  0.00    -0.003 C 
ATOM     36  C   UNL     1      35.262  -6.190 -24.323  0.00  0.00    -0.000 C 
ATOM     37  C   UNL     1      33.542  -5.717 -25.953  0.00  0.00    -0.000 C 
ATOM     38  C   UNL     1      34.876  -5.992 -25.648  0.00  0.00    -0.000 C 
ENDBRANCH  26  33
ENDBRANCH   8  26
TORSDOF 9
ENDMDL
MODEL 8
REMARK VINA RESULT:      -9.8      2.477      4.946
REMARK  Name = 213040
REMARK  9 active torsions:
REMARK  status: ('A' for Active; 'I' for Inactive)
REMARK    1  A    between atoms: N_2  and  C_10
REMARK    2  A    between atoms: C_8  and  C_26
REMARK    3  A    between atoms: C_10  and  C_11
REMARK    4  A    between atoms: C_11  and  O_12
REMARK    5  A    between atoms: C_11  and  C_14
REMARK    6  A    between atoms: C_14  and  O_15
REMARK    7  A    between atoms: O_15  and  C_17
REMARK    8  A    between atoms: C_26  and  C_27
REMARK    9  A    between atoms: C_26  and  C_33
REMARK                            x       y       z     vdW  Elec       q    Type
REMARK                         _______ _______ _______ _____ _____    ______ ____
ROOT
ATOM      1  O   UNL     1      30.727  -6.632 -23.940  0.00  0.00    -0.274 OA
ATOM      2  N   UNL     1      33.588 -10.648 -23.165  0.00  0.00    +0.391 N 
ATOM      3  N   UNL     1      32.446  -8.021 -23.226  0.00  0.00    -0.283 N 
ATOM      4  C   UNL     1      32.263 -10.425 -23.763  0.00  0.00    -0.055 C 
ATOM      5  C   UNL     1      34.444  -9.469 -23.356  0.00  0.00    -0.055 C 
ATOM      6  C   UNL     1      31.588  -9.202 -23.142  0.00  0.00    +0.071 C 
ATOM      7  C   UNL     1      33.810  -8.225 -22.730  0.00  0.00    +0.071 C 
ATOM      8  C   UNL     1      31.910  -6.801 -23.634  0.00  0.00    +0.233 C 
ATOM      9  H   UNL     1      33.466 -10.801 -22.163  0.00  0.00    -0.079 HD
ENDROOT
BRANCH   2  10
ATOM     10  C   UNL     1      34.216 -11.838 -23.738  0.00  0.00    -0.043 C 
BRANCH  10  11
ATOM     11  C   UNL     1      34.217 -13.016 -22.761  0.00  0.00    +0.133 C 
BRANCH  11  12
ATOM     12  O   UNL     1      33.269 -12.738 -21.726  0.00  0.00    -0.383 OA
ATOM     13  H   UNL     1      33.492 -11.894 -21.302  0.00  0.00    +0.210 HD
ENDBRANCH  11  12
BRANCH  11  14
ATOM     14  C   UNL     1      33.844 -14.345 -23.416  0.00  0.00    +0.232 C 
BRANCH  14  15
ATOM     15  O   UNL     1      34.937 -15.247 -23.282  0.00  0.00    -0.473 OA
BRANCH  15  17
ATOM     16  N   UNL     1      35.122 -19.906 -22.026  0.00  0.00    -0.244 NA
ATOM     17  C   UNL     1      34.677 -16.570 -23.521  0.00  0.00    +0.140 C 
ATOM     18  C   UNL     1      35.054 -17.568 -22.608  0.00  0.00    +0.052 C 
ATOM     19  C   UNL     1      34.021 -16.906 -24.702  0.00  0.00    +0.037 C 
ATOM     20  C   UNL     1      34.774 -18.925 -22.879  0.00  0.00    +0.084 C 
ATOM     21  C   UNL     1      33.742 -18.239 -24.975  0.00  0.00    +0.005 C 
ATOM     22  C   UNL     1      35.714 -17.257 -21.412  0.00  0.00    +0.006 C 
ATOM     23  C   UNL     1      34.118 -19.233 -24.068  0.00  0.00    +0.019 C 
ATOM     24  C   UNL     1      36.075 -18.267 -20.531  0.00  0.00    +0.021 C 
ATOM     25  C   UNL     1      35.757 -19.564 -20.882  0.00  0.00    +0.099 C 
ENDBRANCH  15  17
ENDBRANCH  14  15
ENDBRANCH  11  14
ENDBRANCH  10  11
ENDBRANCH   2  10
BRANCH   8  26
ATOM     26  C   UNL     1      32.863  -5.634 -23.699  0.00  0.00    +0.121 C 
BRANCH  26  27
ATOM     27  C   UNL     1      33.578  -5.561 -25.032  0.00  0.00    -0.010 C 
ATOM     28  C   UNL     1      34.971  -5.500 -25.074  0.00  0.00    -0.003 C 
ATOM     29  C   UNL     1      32.844  -5.558 -26.219  0.00  0.00    -0.003 C 
ATOM     30  C   UNL     1      35.630  -5.433 -26.302  0.00  0.00    -0.000 C 
ATOM     31  C   UNL     1      33.502  -5.492 -27.446  0.00  0.00    -0.000 C 
ATOM     32  C   UNL     1      34.896  -5.429 -27.488  0.00  0.00    -0.000 C 
ENDBRANCH  26  27
BRANCH  26  33
ATOM     33  C   UNL     1      32.212  -4.325 -23.295  0.00  0.00    -0.010 C 
ATOM     34  C   UNL     1      32.313  -3.210 -24.125  0.00  0.00    -0.003 C 
ATOM     35  C   UNL     1      31.511  -4.238 -22.092  0.00  0.00    -0.003 C 
ATOM     36  C   UNL     1      31.713  -2.007 -23.753  0.00  0.00    -0.000 C 
ATOM     37  C   UNL     1      30.911  -3.035 -21.719  0.00  0.00    -0.000 C 
ATOM     38  C   UNL     1      31.012  -1.919 -22.551  0.00  0.00    -0.000 C 
ENDBRANCH  26  33
ENDBRANCH   8  26
TORSDOF 9
ENDMDL
MODEL 9
REMARK VINA RESULT:      -9.7      3.171      6.132
REMARK  Name = 213040
REMARK  9 active torsions:
REMARK  status: ('A' for Active; 'I' for Inactive)
REMARK    1  A    between atoms: N_2  and  C_10
REMARK    2  A    between atoms: C_8  and  C_26
REMARK    3  A    between atoms: C_10  and  C_11
REMARK    4  A    between atoms: C_11  and  O_12
REMARK    5  A    between atoms: C_11  and  C_14
REMARK    6  A    between atoms: C_14  and  O_15
REMARK    7  A    between atoms: O_15  and  C_17
REMARK    8  A    between atoms: C_26  and  C_27
REMARK    9  A    between atoms: C_26  and  C_33
REMARK                            x       y       z     vdW  Elec       q    Type
REMARK                         _______ _______ _______ _____ _____    ______ ____
ROOT
ATOM      1  O   UNL     1      31.654  -6.817 -25.267  0.00  0.00    -0.274 OA
ATOM      2  N   UNL     1      31.715  -9.512 -21.066  0.00  0.00    +0.391 N 
ATOM      3  N   UNL     1      31.668  -7.421 -23.024  0.00  0.00    -0.283 N 
ATOM      4  C   UNL     1      31.591  -9.832 -22.496  0.00  0.00    -0.055 C 
ATOM      5  C   UNL     1      32.524  -8.299 -20.879  0.00  0.00    -0.055 C 
ATOM      6  C   UNL     1      30.948  -8.673 -23.256  0.00  0.00    +0.071 C 
ATOM      7  C   UNL     1      31.903  -7.109 -21.612  0.00  0.00    +0.071 C 
ATOM      8  C   UNL     1      31.963  -6.581 -24.096  0.00  0.00    +0.233 C 
ATOM      9  H   UNL     1      30.782  -9.338 -20.693  0.00  0.00    -0.079 HD
ENDROOT
BRANCH   2  10
ATOM     10  C   UNL     1      32.299 -10.638 -20.337  0.00  0.00    -0.043 C 
BRANCH  10  11
ATOM     11  C   UNL     1      31.336 -11.822 -20.238  0.00  0.00    +0.133 C 
BRANCH  11  12
ATOM     12  O   UNL     1      30.210 -11.552 -21.079  0.00  0.00    -0.383 OA
ATOM     13  H   UNL     1      30.260 -10.639 -21.403  0.00  0.00    +0.210 HD
ENDBRANCH  11  12
BRANCH  11  14
ATOM     14  C   UNL     1      31.960 -13.147 -20.673  0.00  0.00    +0.232 C 
BRANCH  14  15
ATOM     15  O   UNL     1      33.151 -12.877 -21.405  0.00  0.00    -0.473 OA
BRANCH  15  17
ATOM     16  N   UNL     1      35.029 -16.869 -23.367  0.00  0.00    -0.244 NA
ATOM     17  C   UNL     1      33.409 -13.683 -22.481  0.00  0.00    +0.140 C 
ATOM     18  C   UNL     1      34.109 -14.892 -22.340  0.00  0.00    +0.052 C 
ATOM     19  C   UNL     1      32.955 -13.272 -23.732  0.00  0.00    +0.037 C 
ATOM     20  C   UNL     1      34.362 -15.704 -23.467  0.00  0.00    +0.084 C 
ATOM     21  C   UNL     1      33.200 -14.067 -24.844  0.00  0.00    +0.005 C 
ATOM     22  C   UNL     1      34.576 -15.329 -21.094  0.00  0.00    +0.006 C 
ATOM     23  C   UNL     1      33.897 -15.270 -24.705  0.00  0.00    +0.019 C 
ATOM     24  C   UNL     1      35.265 -16.528 -20.988  0.00  0.00    +0.021 C 
ATOM     25  C   UNL     1      35.463 -17.255 -22.146  0.00  0.00    +0.099 C 
ENDBRANCH  15  17
ENDBRANCH  14  15
ENDBRANCH  11  14
ENDBRANCH  10  11
ENDBRANCH   2  10
BRANCH   8  26
ATOM     26  C   UNL     1      32.712  -5.313 -23.773  0.00  0.00    +0.121 C 
BRANCH  26  27
ATOM     27  C   UNL     1      33.813  -5.035 -24.776  0.00  0.00    -0.010 C 
ATOM     28  C   UNL     1      34.943  -5.853 -24.816  0.00  0.00    -0.003 C 
ATOM     29  C   UNL     1      33.697  -3.963 -25.661  0.00  0.00    -0.003 C 
ATOM     30  C   UNL     1      35.956  -5.597 -25.740  0.00  0.00    -0.000 C 
ATOM     31  C   UNL     1      34.710  -3.707 -26.585  0.00  0.00    -0.000 C 
ATOM     32  C   UNL     1      35.841  -4.525 -26.624  0.00  0.00    -0.000 C 
ENDBRANCH  26  27
BRANCH  26  33
ATOM     33  C   UNL     1      31.791  -4.130 -23.550  0.00  0.00    -0.010 C 
ATOM     34  C   UNL     1      30.891  -3.749 -24.544  0.00  0.00    -0.003 C 
ATOM     35  C   UNL     1      31.842  -3.423 -22.348  0.00  0.00    -0.003 C 
ATOM     36  C   UNL     1      30.042  -2.662 -24.339  0.00  0.00    -0.000 C 
ATOM     37  C   UNL     1      30.993  -2.335 -22.142  0.00  0.00    -0.000 C 
ATOM     38  C   UNL     1      30.093  -1.955 -23.138  0.00  0.00    -0.000 C 
ENDBRANCH  26  33
ENDBRANCH   8  26
TORSDOF 9
ENDMDL
