MODEL 1
REMARK VINA RESULT:     -12.4      0.000      0.000
REMARK  Name = 54726191
REMARK  4 active torsions:
REMARK  status: ('A' for Active; 'I' for Inactive)
REMARK    1  A    between atoms: C_15  and  O_31
REMARK    2  A    between atoms: C_16  and  C_20
REMARK    3  A    between atoms: N_19  and  C_22
REMARK    4  A    between atoms: C_22  and  C_25
REMARK                            x       y       z     vdW  Elec       q    Type
REMARK                         _______ _______ _______ _____ _____    ______ ____
ROOT
ATOM      1  O   UNL     1      37.249 -22.949 -14.999  0.00  0.00    -0.336 OA
ATOM      2  O   UNL     1      33.446 -23.828 -17.612  0.00  0.00    -0.268 OA
ATOM      3  O   UNL     1      33.708 -20.124 -21.094  0.00  0.00    -0.283 OA
ATOM      4  N   UNL     1      35.172 -23.251 -16.181  0.00  0.00    -0.253 N 
ATOM      5  N   UNL     1      36.141 -21.489 -18.154  0.00  0.00    -0.275 N 
ATOM      6  C   UNL     1      36.292 -22.352 -15.883  0.00  0.00    +0.215 C 
ATOM      7  C   UNL     1      34.618 -24.058 -15.080  0.00  0.00    +0.080 C 
ATOM      8  C   UNL     1      35.718 -24.566 -14.148  0.00  0.00    +0.052 C 
ATOM      9  C   UNL     1      37.056 -22.017 -17.153  0.00  0.00    +0.147 C 
ATOM     10  C   UNL     1      36.681 -23.449 -13.796  0.00  0.00    +0.146 C 
ATOM     11  C   UNL     1      34.421 -23.122 -17.359  0.00  0.00    +0.267 C 
ATOM     12  C   UNL     1      34.865 -22.037 -18.312  0.00  0.00    +0.143 C 
ATOM     13  C   UNL     1      33.552 -23.263 -14.315  0.00  0.00    +0.022 C 
ATOM     14  C   UNL     1      36.561 -20.499 -19.033  0.00  0.00    +0.074 C 
ATOM     15  C   UNL     1      34.009 -21.622 -19.272  0.00  0.00    +0.191 C 
ATOM     16  C   UNL     1      35.821 -19.995 -20.028  0.00  0.00    +0.110 C 
ATOM     17  C   UNL     1      34.451 -20.540 -20.210  0.00  0.00    +0.236 C 
ENDROOT
BRANCH  16  20
ATOM     18  O   UNL     1      37.618 -18.775 -20.923  0.00  0.00    -0.270 OA
ATOM     19  N   UNL     1      35.445 -18.224 -21.567  0.00  0.00    -0.297 N 
ATOM     20  C   UNL     1      36.399 -18.950 -20.872  0.00  0.00    +0.251 C 
ATOM     21  H   UNL     1      34.497 -18.460 -21.441  0.00  0.00    +0.150 HD
BRANCH  19  22
ATOM     22  C   UNL     1      35.767 -17.138 -22.464  0.00  0.00    +0.119 C 
BRANCH  22  25
ATOM     23  F   UNL     1      34.537 -15.569 -24.471  0.00  0.00    -0.204 F 
ATOM     24  F   UNL     1      32.780 -12.504 -21.323  0.00  0.00    -0.204 F 
ATOM     25  C   UNL     1      34.971 -15.902 -22.161  0.00  0.00    +0.025 C 
ATOM     26  C   UNL     1      34.390 -15.174 -23.200  0.00  0.00    +0.140 C 
ATOM     27  C   UNL     1      34.811 -15.484 -20.840  0.00  0.00    +0.002 C 
ATOM     28  C   UNL     1      33.649 -14.025 -22.916  0.00  0.00    +0.059 C 
ATOM     29  C   UNL     1      34.071 -14.335 -20.558  0.00  0.00    +0.030 C 
ATOM     30  C   UNL     1      33.490 -13.606 -21.595  0.00  0.00    +0.142 C 
ENDBRANCH  22  25
ENDBRANCH  19  22
ENDBRANCH  16  20
BRANCH  15  31
ATOM     31  O   UNL     1      32.736 -22.119 -19.441  0.00  0.00    -0.502 OA
ATOM     32  H   UNL     1      32.090 -21.990 -18.775  0.00  0.00    +0.292 HD
ENDBRANCH  15  31
TORSDOF 4
ENDMDL
MODEL 2
REMARK VINA RESULT:     -11.0      3.272      4.796
REMARK  Name = 54726191
REMARK  4 active torsions:
REMARK  status: ('A' for Active; 'I' for Inactive)
REMARK    1  A    between atoms: C_15  and  O_31
REMARK    2  A    between atoms: C_16  and  C_20
REMARK    3  A    between atoms: N_19  and  C_22
REMARK    4  A    between atoms: C_22  and  C_25
REMARK                            x       y       z     vdW  Elec       q    Type
REMARK                         _______ _______ _______ _____ _____    ______ ____
ROOT
ATOM      1  O   UNL     1      37.820 -24.809 -13.230  0.00  0.00    -0.336 OA
ATOM      2  O   UNL     1      33.193 -24.675 -12.432  0.00  0.00    -0.268 OA
ATOM      3  O   UNL     1      31.465 -22.576 -16.736  0.00  0.00    -0.283 OA
ATOM      4  N   UNL     1      35.485 -24.514 -12.718  0.00  0.00    -0.253 N 
ATOM      5  N   UNL     1      35.048 -23.964 -15.446  0.00  0.00    -0.275 N 
ATOM      6  C   UNL     1      36.607 -24.135 -13.584  0.00  0.00    +0.215 C 
ATOM      7  C   UNL     1      35.743 -24.663 -11.275  0.00  0.00    +0.080 C 
ATOM      8  C   UNL     1      37.103 -25.308 -11.011  0.00  0.00    +0.052 C 
ATOM      9  C   UNL     1      36.322 -24.528 -15.024  0.00  0.00    +0.147 C 
ATOM     10  C   UNL     1      38.178 -24.660 -11.862  0.00  0.00    +0.146 C 
ATOM     11  C   UNL     1      34.156 -24.413 -13.153  0.00  0.00    +0.267 C 
ATOM     12  C   UNL     1      33.957 -23.935 -14.573  0.00  0.00    +0.143 C 
ATOM     13  C   UNL     1      35.611 -23.311 -10.563  0.00  0.00    +0.022 C 
ATOM     14  C   UNL     1      34.872 -23.538 -16.756  0.00  0.00    +0.074 C 
ATOM     15  C   UNL     1      32.740 -23.482 -14.945  0.00  0.00    +0.191 C 
ATOM     16  C   UNL     1      33.725 -23.068 -17.260  0.00  0.00    +0.110 C 
ATOM     17  C   UNL     1      32.550 -23.003 -16.352  0.00  0.00    +0.236 C 
ENDROOT
BRANCH  16  20
ATOM     18  O   UNL     1      33.922 -23.453 -19.569  0.00  0.00    -0.270 OA
ATOM     19  N   UNL     1      33.386 -21.309 -18.822  0.00  0.00    -0.297 N 
ATOM     20  C   UNL     1      33.692 -22.651 -18.661  0.00  0.00    +0.251 C 
ATOM     21  H   UNL     1      33.222 -20.769 -18.015  0.00  0.00    +0.150 HD
BRANCH  19  22
ATOM     22  C   UNL     1      33.295 -20.662 -20.111  0.00  0.00    +0.119 C 
BRANCH  22  25
ATOM     23  F   UNL     1      33.659 -19.346 -22.589  0.00  0.00    -0.204 F 
ATOM     24  F   UNL     1      38.235 -18.503 -21.734  0.00  0.00    -0.204 F 
ATOM     25  C   UNL     1      34.611 -20.086 -20.545  0.00  0.00    +0.025 C 
ATOM     26  C   UNL     1      34.722 -19.449 -21.781  0.00  0.00    +0.140 C 
ATOM     27  C   UNL     1      35.724 -20.188 -19.710  0.00  0.00    +0.002 C 
ATOM     28  C   UNL     1      35.947 -18.915 -22.183  0.00  0.00    +0.059 C 
ATOM     29  C   UNL     1      36.949 -19.653 -20.112  0.00  0.00    +0.030 C 
ATOM     30  C   UNL     1      37.060 -19.017 -21.348  0.00  0.00    +0.142 C 
ENDBRANCH  22  25
ENDBRANCH  19  22
ENDBRANCH  16  20
BRANCH  15  31
ATOM     31  O   UNL     1      31.650 -23.414 -14.105  0.00  0.00    -0.502 OA
ATOM     32  H   UNL     1      31.408 -24.159 -13.591  0.00  0.00    +0.292 HD
ENDBRANCH  15  31
TORSDOF 4
ENDMDL
MODEL 3
REMARK VINA RESULT:     -10.9      6.317     12.020
REMARK  Name = 54726191
REMARK  4 active torsions:
REMARK  status: ('A' for Active; 'I' for Inactive)
REMARK    1  A    between atoms: C_15  and  O_31
REMARK    2  A    between atoms: C_16  and  C_20
REMARK    3  A    between atoms: N_19  and  C_22
REMARK    4  A    between atoms: C_22  and  C_25
REMARK                            x       y       z     vdW  Elec       q    Type
REMARK                         _______ _______ _______ _____ _____    ______ ____
ROOT
ATOM      1  O   UNL     1      33.453  -6.759 -24.155  0.00  0.00    -0.336 OA
ATOM      2  O   UNL     1      32.068  -8.920 -20.221  0.00  0.00    -0.268 OA
ATOM      3  O   UNL     1      31.963 -13.789 -21.702  0.00  0.00    -0.283 OA
ATOM      4  N   UNL     1      32.507  -7.832 -22.217  0.00  0.00    -0.253 N 
ATOM      5  N   UNL     1      33.239 -10.309 -23.341  0.00  0.00    -0.275 N 
ATOM      6  C   UNL     1      32.807  -7.933 -23.649  0.00  0.00    +0.215 C 
ATOM      7  C   UNL     1      32.003  -6.545 -21.703  0.00  0.00    +0.080 C 
ATOM      8  C   UNL     1      32.696  -5.361 -22.378  0.00  0.00    +0.052 C 
ATOM      9  C   UNL     1      33.770  -9.079 -23.909  0.00  0.00    +0.147 C 
ATOM     10  C   UNL     1      32.748  -5.555 -23.880  0.00  0.00    +0.146 C 
ATOM     11  C   UNL     1      32.369  -8.972 -21.413  0.00  0.00    +0.267 C 
ATOM     12  C   UNL     1      32.591 -10.299 -22.103  0.00  0.00    +0.143 C 
ATOM     13  C   UNL     1      30.479  -6.468 -21.852  0.00  0.00    +0.022 C 
ATOM     14  C   UNL     1      33.457 -11.524 -23.975  0.00  0.00    +0.074 C 
ATOM     15  C   UNL     1      32.142 -11.426 -21.507  0.00  0.00    +0.191 C 
ATOM     16  C   UNL     1      33.069 -12.715 -23.503  0.00  0.00    +0.110 C 
ATOM     17  C   UNL     1      32.358 -12.739 -22.198  0.00  0.00    +0.236 C 
ENDROOT
BRANCH  16  20
ATOM     18  O   UNL     1      32.859 -14.089 -25.396  0.00  0.00    -0.270 OA
ATOM     19  N   UNL     1      34.248 -14.773 -23.652  0.00  0.00    -0.297 N 
ATOM     20  C   UNL     1      33.367 -13.912 -24.288  0.00  0.00    +0.251 C 
ATOM     21  H   UNL     1      34.587 -14.519 -22.763  0.00  0.00    +0.150 HD
BRANCH  19  22
ATOM     22  C   UNL     1      34.695 -16.022 -24.225  0.00  0.00    +0.119 C 
BRANCH  22  25
ATOM     23  F   UNL     1      34.158 -18.762 -24.685  0.00  0.00    -0.204 F 
ATOM     24  F   UNL     1      35.449 -19.989 -20.302  0.00  0.00    -0.204 F 
ATOM     25  C   UNL     1      34.895 -17.081 -23.180  0.00  0.00    +0.025 C 
ATOM     26  C   UNL     1      34.611 -18.415 -23.473  0.00  0.00    +0.140 C 
ATOM     27  C   UNL     1      35.367 -16.729 -21.916  0.00  0.00    +0.002 C 
ATOM     28  C   UNL     1      34.798 -19.397 -22.500  0.00  0.00    +0.059 C 
ATOM     29  C   UNL     1      35.554 -17.712 -20.943  0.00  0.00    +0.030 C 
ATOM     30  C   UNL     1      35.269 -19.046 -21.235  0.00  0.00    +0.142 C 
ENDBRANCH  22  25
ENDBRANCH  19  22
ENDBRANCH  16  20
BRANCH  15  31
ATOM     31  O   UNL     1      31.477 -11.452 -20.302  0.00  0.00    -0.502 OA
ATOM     32  H   UNL     1      30.969 -10.714 -20.031  0.00  0.00    +0.292 HD
ENDBRANCH  15  31
TORSDOF 4
ENDMDL
MODEL 4
REMARK VINA RESULT:     -10.5      5.266      8.845
REMARK  Name = 54726191
REMARK  4 active torsions:
REMARK  status: ('A' for Active; 'I' for Inactive)
REMARK    1  A    between atoms: C_15  and  O_31
REMARK    2  A    between atoms: C_16  and  C_20
REMARK    3  A    between atoms: N_19  and  C_22
REMARK    4  A    between atoms: C_22  and  C_25
REMARK                            x       y       z     vdW  Elec       q    Type
REMARK                         _______ _______ _______ _____ _____    ______ ____
ROOT
ATOM      1  O   UNL     1      35.688 -17.859 -20.529  0.00  0.00    -0.336 OA
ATOM      2  O   UNL     1      34.850 -15.806 -24.671  0.00  0.00    -0.268 OA
ATOM      3  O   UNL     1      31.979 -11.835 -23.291  0.00  0.00    -0.283 OA
ATOM      4  N   UNL     1      35.055 -16.954 -22.670  0.00  0.00    -0.253 N 
ATOM      5  N   UNL     1      34.113 -14.665 -21.326  0.00  0.00    -0.275 N 
ATOM      6  C   UNL     1      34.775 -17.006 -21.231  0.00  0.00    +0.215 C 
ATOM      7  C   UNL     1      35.420 -18.209 -23.351  0.00  0.00    +0.080 C 
ATOM      8  C   UNL     1      36.319 -19.083 -22.475  0.00  0.00    +0.052 C 
ATOM      9  C   UNL     1      34.936 -15.629 -20.610  0.00  0.00    +0.147 C 
ATOM     10  C   UNL     1      35.769 -19.173 -21.065  0.00  0.00    +0.146 C 
ATOM     11  C   UNL     1      34.673 -15.856 -23.453  0.00  0.00    +0.267 C 
ATOM     12  C   UNL     1      34.001 -14.719 -22.718  0.00  0.00    +0.143 C 
ATOM     13  C   UNL     1      34.162 -18.963 -23.798  0.00  0.00    +0.022 C 
ATOM     14  C   UNL     1      33.508 -13.619 -20.643  0.00  0.00    +0.074 C 
ATOM     15  C   UNL     1      33.302 -13.806 -23.428  0.00  0.00    +0.191 C 
ATOM     16  C   UNL     1      32.788 -12.646 -21.216  0.00  0.00    +0.110 C 
ATOM     17  C   UNL     1      32.630 -12.686 -22.693  0.00  0.00    +0.236 C 
ENDROOT
BRANCH  16  20
ATOM     18  O   UNL     1      31.876 -11.852 -19.202  0.00  0.00    -0.270 OA
ATOM     19  N   UNL     1      32.084 -10.386 -21.005  0.00  0.00    -0.297 N 
ATOM     20  C   UNL     1      32.206 -11.609 -20.364  0.00  0.00    +0.251 C 
ATOM     21  H   UNL     1      32.385 -10.318 -21.939  0.00  0.00    +0.150 HD
BRANCH  19  22
ATOM     22  C   UNL     1      31.537  -9.208 -20.372  0.00  0.00    +0.119 C 
BRANCH  22  25
ATOM     23  F   UNL     1      33.010  -6.979 -19.441  0.00  0.00    -0.204 F 
ATOM     24  F   UNL     1      32.368  -4.578 -23.467  0.00  0.00    -0.204 F 
ATOM     25  C   UNL     1      31.759  -7.973 -21.196  0.00  0.00    +0.025 C 
ATOM     26  C   UNL     1      32.496  -6.908 -20.676  0.00  0.00    +0.140 C 
ATOM     27  C   UNL     1      31.228  -7.891 -22.484  0.00  0.00    +0.002 C 
ATOM     28  C   UNL     1      32.701  -5.762 -21.443  0.00  0.00    +0.059 C 
ATOM     29  C   UNL     1      31.434  -6.744 -23.251  0.00  0.00    +0.030 C 
ATOM     30  C   UNL     1      32.170  -5.679 -22.731  0.00  0.00    +0.142 C 
ENDBRANCH  22  25
ENDBRANCH  19  22
ENDBRANCH  16  20
BRANCH  15  31
ATOM     31  O   UNL     1      33.148 -13.842 -24.795  0.00  0.00    -0.502 OA
ATOM     32  H   UNL     1      33.010 -14.661 -25.230  0.00  0.00    +0.292 HD
ENDBRANCH  15  31
TORSDOF 4
ENDMDL
MODEL 5
REMARK VINA RESULT:     -10.4      4.442      9.798
REMARK  Name = 54726191
REMARK  4 active torsions:
REMARK  status: ('A' for Active; 'I' for Inactive)
REMARK    1  A    between atoms: C_15  and  O_31
REMARK    2  A    between atoms: C_16  and  C_20
REMARK    3  A    between atoms: N_19  and  C_22
REMARK    4  A    between atoms: C_22  and  C_25
REMARK                            x       y       z     vdW  Elec       q    Type
REMARK                         _______ _______ _______ _____ _____    ______ ____
ROOT
ATOM      1  O   UNL     1      31.939 -11.235 -18.840  0.00  0.00    -0.336 OA
ATOM      2  O   UNL     1      32.075 -11.814 -23.499  0.00  0.00    -0.268 OA
ATOM      3  O   UNL     1      35.053 -15.919 -23.942  0.00  0.00    -0.283 OA
ATOM      4  N   UNL     1      32.209 -11.379 -21.229  0.00  0.00    -0.253 N 
ATOM      5  N   UNL     1      33.309 -13.946 -20.861  0.00  0.00    -0.275 N 
ATOM      6  C   UNL     1      32.713 -11.784 -19.913  0.00  0.00    +0.215 C 
ATOM      7  C   UNL     1      31.765  -9.984 -21.402  0.00  0.00    +0.080 C 
ATOM      8  C   UNL     1      31.032  -9.471 -20.162  0.00  0.00    +0.052 C 
ATOM      9  C   UNL     1      32.627 -13.293 -19.753  0.00  0.00    +0.147 C 
ATOM     10  C   UNL     1      31.799  -9.822 -18.902  0.00  0.00    +0.146 C 
ATOM     11  C   UNL     1      32.442 -12.153 -22.375  0.00  0.00    +0.267 C 
ATOM     12  C   UNL     1      33.201 -13.443 -22.160  0.00  0.00    +0.143 C 
ATOM     13  C   UNL     1      32.951  -9.085 -21.771  0.00  0.00    +0.022 C 
ATOM     14  C   UNL     1      33.994 -15.136 -20.656  0.00  0.00    +0.074 C 
ATOM     15  C   UNL     1      33.762 -14.054 -23.226  0.00  0.00    +0.191 C 
ATOM     16  C   UNL     1      34.596 -15.848 -21.617  0.00  0.00    +0.110 C 
ATOM     17  C   UNL     1      34.520 -15.329 -23.007  0.00  0.00    +0.236 C 
ENDROOT
BRANCH  16  20
ATOM     18  O   UNL     1      36.086 -17.110 -20.312  0.00  0.00    -0.270 OA
ATOM     19  N   UNL     1      34.935 -18.160 -22.047  0.00  0.00    -0.297 N 
ATOM     20  C   UNL     1      35.286 -17.083 -21.247  0.00  0.00    +0.251 C 
ATOM     21  H   UNL     1      34.280 -18.012 -22.767  0.00  0.00    +0.150 HD
BRANCH  19  22
ATOM     22  C   UNL     1      35.482 -19.487 -21.880  0.00  0.00    +0.119 C 
BRANCH  22  25
ATOM     23  F   UNL     1      36.882 -21.120 -20.041  0.00  0.00    -0.204 F 
ATOM     24  F   UNL     1      32.928 -22.311 -17.732  0.00  0.00    -0.204 F 
ATOM     25  C   UNL     1      34.803 -20.241 -20.774  0.00  0.00    +0.025 C 
ATOM     26  C   UNL     1      35.553 -21.029 -19.901  0.00  0.00    +0.140 C 
ATOM     27  C   UNL     1      33.419 -20.151 -20.619  0.00  0.00    +0.002 C 
ATOM     28  C   UNL     1      34.919 -21.728 -18.873  0.00  0.00    +0.059 C 
ATOM     29  C   UNL     1      32.786 -20.851 -19.591  0.00  0.00    +0.030 C 
ATOM     30  C   UNL     1      33.535 -21.640 -18.719  0.00  0.00    +0.142 C 
ENDBRANCH  22  25
ENDBRANCH  19  22
ENDBRANCH  16  20
BRANCH  15  31
ATOM     31  O   UNL     1      33.699 -13.574 -24.515  0.00  0.00    -0.502 OA
ATOM     32  H   UNL     1      34.390 -13.761 -25.119  0.00  0.00    +0.292 HD
ENDBRANCH  15  31
TORSDOF 4
ENDMDL
MODEL 6
REMARK VINA RESULT:     -10.3      1.908      2.574
REMARK  Name = 54726191
REMARK  4 active torsions:
REMARK  status: ('A' for Active; 'I' for Inactive)
REMARK    1  A    between atoms: C_15  and  O_31
REMARK    2  A    between atoms: C_16  and  C_20
REMARK    3  A    between atoms: N_19  and  C_22
REMARK    4  A    between atoms: C_22  and  C_25
REMARK                            x       y       z     vdW  Elec       q    Type
REMARK                         _______ _______ _______ _____ _____    ______ ____
ROOT
ATOM      1  O   UNL     1      35.982 -23.683 -13.557  0.00  0.00    -0.336 OA
ATOM      2  O   UNL     1      32.185 -23.853 -16.317  0.00  0.00    -0.268 OA
ATOM      3  O   UNL     1      33.585 -20.852 -20.184  0.00  0.00    -0.283 OA
ATOM      4  N   UNL     1      33.948 -23.573 -14.843  0.00  0.00    -0.253 N 
ATOM      5  N   UNL     1      35.437 -22.413 -16.934  0.00  0.00    -0.275 N 
ATOM      6  C   UNL     1      35.259 -22.975 -14.572  0.00  0.00    +0.215 C 
ATOM      7  C   UNL     1      33.152 -24.048 -13.697  0.00  0.00    +0.080 C 
ATOM      8  C   UNL     1      34.034 -24.703 -12.634  0.00  0.00    +0.052 C 
ATOM      9  C   UNL     1      36.133 -23.029 -15.814  0.00  0.00    +0.147 C 
ATOM     10  C   UNL     1      35.253 -23.848 -12.348  0.00  0.00    +0.146 C 
ATOM     11  C   UNL     1      33.306 -23.406 -16.079  0.00  0.00    +0.267 C 
ATOM     12  C   UNL     1      34.067 -22.616 -17.119  0.00  0.00    +0.143 C 
ATOM     13  C   UNL     1      32.317 -22.902 -13.111  0.00  0.00    +0.022 C 
ATOM     14  C   UNL     1      36.146 -21.699 -17.891  0.00  0.00    +0.074 C 
ATOM     15  C   UNL     1      33.395 -22.119 -18.181  0.00  0.00    +0.191 C 
ATOM     16  C   UNL     1      35.611 -21.152 -18.989  0.00  0.00    +0.110 C 
ATOM     17  C   UNL     1      34.152 -21.330 -19.205  0.00  0.00    +0.236 C 
ENDROOT
BRANCH  16  20
ATOM     18  O   UNL     1      37.599 -20.857 -20.206  0.00  0.00    -0.270 OA
ATOM     19  N   UNL     1      35.924 -19.242 -20.367  0.00  0.00    -0.297 N 
ATOM     20  C   UNL     1      36.485 -20.422 -19.906  0.00  0.00    +0.251 C 
ATOM     21  H   UNL     1      35.022 -19.001 -20.053  0.00  0.00    +0.150 HD
BRANCH  19  22
ATOM     22  C   UNL     1      36.593 -18.345 -21.282  0.00  0.00    +0.119 C 
BRANCH  22  25
ATOM     23  F   UNL     1      35.216 -20.099 -23.024  0.00  0.00    -0.204 F 
ATOM     24  F   UNL     1      33.157 -16.536 -25.359  0.00  0.00    -0.204 F 
ATOM     25  C   UNL     1      35.677 -17.864 -22.369  0.00  0.00    +0.025 C 
ATOM     26  C   UNL     1      35.028 -18.784 -23.194  0.00  0.00    +0.140 C 
ATOM     27  C   UNL     1      35.474 -16.497 -22.554  0.00  0.00    +0.002 C 
ATOM     28  C   UNL     1      34.177 -18.335 -24.205  0.00  0.00    +0.059 C 
ATOM     29  C   UNL     1      34.622 -16.048 -23.564  0.00  0.00    +0.030 C 
ATOM     30  C   UNL     1      33.974 -16.967 -24.390  0.00  0.00    +0.142 C 
ENDBRANCH  22  25
ENDBRANCH  19  22
ENDBRANCH  16  20
BRANCH  15  31
ATOM     31  O   UNL     1      32.042 -22.276 -18.382  0.00  0.00    -0.502 OA
ATOM     32  H   UNL     1      31.586 -22.985 -17.973  0.00  0.00    +0.292 HD
ENDBRANCH  15  31
TORSDOF 4
ENDMDL
MODEL 7
REMARK VINA RESULT:     -10.2      5.232      8.744
REMARK  Name = 54726191
REMARK  4 active torsions:
REMARK  status: ('A' for Active; 'I' for Inactive)
REMARK    1  A    between atoms: C_15  and  O_31
REMARK    2  A    between atoms: C_16  and  C_20
REMARK    3  A    between atoms: N_19  and  C_22
REMARK    4  A    between atoms: C_22  and  C_25
REMARK                            x       y       z     vdW  Elec       q    Type
REMARK                         _______ _______ _______ _____ _____    ______ ____
ROOT
ATOM      1  O   UNL     1      35.494 -17.719 -20.513  0.00  0.00    -0.336 OA
ATOM      2  O   UNL     1      35.088 -16.633 -25.066  0.00  0.00    -0.268 OA
ATOM      3  O   UNL     1      32.534 -12.235 -24.853  0.00  0.00    -0.283 OA
ATOM      4  N   UNL     1      35.071 -17.293 -22.847  0.00  0.00    -0.253 N 
ATOM      5  N   UNL     1      34.276 -14.686 -22.136  0.00  0.00    -0.275 N 
ATOM      6  C   UNL     1      34.707 -16.985 -21.460  0.00  0.00    +0.215 C 
ATOM      7  C   UNL     1      35.353 -18.698 -23.193  0.00  0.00    +0.080 C 
ATOM      8  C   UNL     1      36.114 -19.410 -22.075  0.00  0.00    +0.052 C 
ATOM      9  C   UNL     1      34.963 -15.517 -21.159  0.00  0.00    +0.147 C 
ATOM     10  C   UNL     1      35.480 -19.124 -20.728  0.00  0.00    +0.146 C 
ATOM     11  C   UNL     1      34.840 -16.382 -23.887  0.00  0.00    +0.267 C 
ATOM     12  C   UNL     1      34.238 -15.055 -23.483  0.00  0.00    +0.143 C 
ATOM     13  C   UNL     1      34.056 -19.434 -23.551  0.00  0.00    +0.022 C 
ATOM     14  C   UNL     1      33.736 -13.464 -21.759  0.00  0.00    +0.074 C 
ATOM     15  C   UNL     1      33.670 -14.281 -24.434  0.00  0.00    +0.191 C 
ATOM     16  C   UNL     1      33.145 -12.598 -22.592  0.00  0.00    +0.110 C 
ATOM     17  C   UNL     1      33.067 -12.970 -24.029  0.00  0.00    +0.236 C 
ENDROOT
BRANCH  16  20
ATOM     18  O   UNL     1      31.926 -11.341 -21.027  0.00  0.00    -0.270 OA
ATOM     19  N   UNL     1      32.981 -10.236 -22.789  0.00  0.00    -0.297 N 
ATOM     20  C   UNL     1      32.618 -11.348 -22.046  0.00  0.00    +0.251 C 
ATOM     21  H   UNL     1      33.540 -10.372 -23.588  0.00  0.00    +0.150 HD
BRANCH  19  22
ATOM     22  C   UNL     1      32.582  -8.888 -22.452  0.00  0.00    +0.119 C 
BRANCH  22  25
ATOM     23  F   UNL     1      31.475  -7.535 -24.677  0.00  0.00    -0.204 F 
ATOM     24  F   UNL     1      35.427  -5.042 -25.420  0.00  0.00    -0.204 F 
ATOM     25  C   UNL     1      33.339  -7.863 -23.244  0.00  0.00    +0.025 C 
ATOM     26  C   UNL     1      32.733  -7.232 -24.332  0.00  0.00    +0.140 C 
ATOM     27  C   UNL     1      34.650  -7.540 -22.892  0.00  0.00    +0.002 C 
ATOM     28  C   UNL     1      33.439  -6.279 -25.066  0.00  0.00    +0.059 C 
ATOM     29  C   UNL     1      35.355  -6.587 -23.627  0.00  0.00    +0.030 C 
ATOM     30  C   UNL     1      34.750  -5.956 -24.715  0.00  0.00    +0.142 C 
ENDBRANCH  22  25
ENDBRANCH  19  22
ENDBRANCH  16  20
BRANCH  15  31
ATOM     31  O   UNL     1      33.590 -14.624 -25.765  0.00  0.00    -0.502 OA
ATOM     32  H   UNL     1      33.348 -15.496 -26.011  0.00  0.00    +0.292 HD
ENDBRANCH  15  31
TORSDOF 4
ENDMDL
MODEL 8
REMARK VINA RESULT:     -10.1      4.012      9.349
REMARK  Name = 54726191
REMARK  4 active torsions:
REMARK  status: ('A' for Active; 'I' for Inactive)
REMARK    1  A    between atoms: C_15  and  O_31
REMARK    2  A    between atoms: C_16  and  C_20
REMARK    3  A    between atoms: N_19  and  C_22
REMARK    4  A    between atoms: C_22  and  C_25
REMARK                            x       y       z     vdW  Elec       q    Type
REMARK                         _______ _______ _______ _____ _____    ______ ____
ROOT
ATOM      1  O   UNL     1      32.857 -12.604 -20.204  0.00  0.00    -0.336 OA
ATOM      2  O   UNL     1      33.018 -14.619 -24.444  0.00  0.00    -0.268 OA
ATOM      3  O   UNL     1      36.168 -18.530 -23.608  0.00  0.00    -0.283 OA
ATOM      4  N   UNL     1      33.133 -13.485 -22.429  0.00  0.00    -0.253 N 
ATOM      5  N   UNL     1      34.341 -15.758 -21.283  0.00  0.00    -0.275 N 
ATOM      6  C   UNL     1      33.654 -13.432 -21.059  0.00  0.00    +0.215 C 
ATOM      7  C   UNL     1      32.630 -12.235 -23.027  0.00  0.00    +0.080 C 
ATOM      8  C   UNL     1      31.876 -11.386 -22.003  0.00  0.00    +0.052 C 
ATOM      9  C   UNL     1      33.631 -14.816 -20.430  0.00  0.00    +0.147 C 
ATOM     10  C   UNL     1      32.657 -11.290 -20.707  0.00  0.00    +0.146 C 
ATOM     11  C   UNL     1      33.399 -14.571 -23.274  0.00  0.00    +0.267 C 
ATOM     12  C   UNL     1      34.212 -15.695 -22.674  0.00  0.00    +0.143 C 
ATOM     13  C   UNL     1      33.777 -11.451 -23.677  0.00  0.00    +0.022 C 
ATOM     14  C   UNL     1      35.076 -16.793 -20.723  0.00  0.00    +0.074 C 
ATOM     15  C   UNL     1      34.798 -16.589 -23.500  0.00  0.00    +0.191 C 
ATOM     16  C   UNL     1      35.708 -17.747 -21.418  0.00  0.00    +0.110 C 
ATOM     17  C   UNL     1      35.610 -17.697 -22.900  0.00  0.00    +0.236 C 
ENDROOT
BRANCH  16  20
ATOM     18  O   UNL     1      37.664 -18.674 -20.505  0.00  0.00    -0.270 OA
ATOM     19  N   UNL     1      35.646 -19.815 -20.249  0.00  0.00    -0.297 N 
ATOM     20  C   UNL     1      36.449 -18.774 -20.686  0.00  0.00    +0.251 C 
ATOM     21  H   UNL     1      34.684 -19.780 -20.457  0.00  0.00    +0.150 HD
BRANCH  19  22
ATOM     22  C   UNL     1      36.146 -20.948 -19.505  0.00  0.00    +0.119 C 
BRANCH  22  25
ATOM     23  F   UNL     1      36.675 -22.361 -17.111  0.00  0.00    -0.204 F 
ATOM     24  F   UNL     1      32.109 -23.406 -16.446  0.00  0.00    -0.204 F 
ATOM     25  C   UNL     1      35.071 -21.604 -18.688  0.00  0.00    +0.025 C 
ATOM     26  C   UNL     1      35.401 -22.286 -17.517  0.00  0.00    +0.140 C 
ATOM     27  C   UNL     1      33.741 -21.530 -19.102  0.00  0.00    +0.002 C 
ATOM     28  C   UNL     1      34.400 -22.895 -16.759  0.00  0.00    +0.059 C 
ATOM     29  C   UNL     1      32.740 -22.139 -18.344  0.00  0.00    +0.030 C 
ATOM     30  C   UNL     1      33.069 -22.822 -17.173  0.00  0.00    +0.142 C 
ENDBRANCH  22  25
ENDBRANCH  19  22
ENDBRANCH  16  20
BRANCH  15  31
ATOM     31  O   UNL     1      34.715 -16.544 -24.873  0.00  0.00    -0.502 OA
ATOM     32  H   UNL     1      33.879 -16.471 -25.290  0.00  0.00    +0.292 HD
ENDBRANCH  15  31
TORSDOF 4
ENDMDL
MODEL 9
REMARK VINA RESULT:     -10.0      8.171     14.175
REMARK  Name = 54726191
REMARK  4 active torsions:
REMARK  status: ('A' for Active; 'I' for Inactive)
REMARK    1  A    between atoms: C_15  and  O_31
REMARK    2  A    between atoms: C_16  and  C_20
REMARK    3  A    between atoms: N_19  and  C_22
REMARK    4  A    between atoms: C_22  and  C_25
REMARK                            x       y       z     vdW  Elec       q    Type
REMARK                         _______ _______ _______ _____ _____    ______ ____
ROOT
ATOM      1  O   UNL     1      30.817  -5.335 -24.664  0.00  0.00    -0.336 OA
ATOM      2  O   UNL     1      33.055  -4.930 -20.554  0.00  0.00    -0.268 OA
ATOM      3  O   UNL     1      32.402  -9.569 -18.562  0.00  0.00    -0.283 OA
ATOM      4  N   UNL     1      31.746  -5.049 -22.460  0.00  0.00    -0.253 N 
ATOM      5  N   UNL     1      31.657  -7.848 -22.156  0.00  0.00    -0.275 N 
ATOM      6  C   UNL     1      30.890  -5.860 -23.333  0.00  0.00    +0.215 C 
ATOM      7  C   UNL     1      31.658  -3.582 -22.572  0.00  0.00    +0.080 C 
ATOM      8  C   UNL     1      31.489  -3.139 -24.026  0.00  0.00    +0.052 C 
ATOM      9  C   UNL     1      31.455  -7.263 -23.473  0.00  0.00    +0.147 C 
ATOM     10  C   UNL     1      30.427  -3.970 -24.719  0.00  0.00    +0.146 C 
ATOM     11  C   UNL     1      32.372  -5.597 -21.332  0.00  0.00    +0.267 C 
ATOM     12  C   UNL     1      32.148  -7.073 -21.101  0.00  0.00    +0.143 C 
ATOM     13  C   UNL     1      30.532  -3.041 -21.682  0.00  0.00    +0.022 C 
ATOM     14  C   UNL     1      31.459  -9.207 -21.955  0.00  0.00    +0.074 C 
ATOM     15  C   UNL     1      32.413  -7.590 -19.881  0.00  0.00    +0.191 C 
ATOM     16  C   UNL     1      31.680  -9.851 -20.803  0.00  0.00    +0.110 C 
ATOM     17  C   UNL     1      32.182  -9.053 -19.654  0.00  0.00    +0.236 C 
ENDROOT
BRANCH  16  20
ATOM     18  O   UNL     1      30.321 -11.751 -21.050  0.00  0.00    -0.270 OA
ATOM     19  N   UNL     1      32.518 -12.021 -20.315  0.00  0.00    -0.297 N 
ATOM     20  C   UNL     1      31.421 -11.289 -20.742  0.00  0.00    +0.251 C 
ATOM     21  H   UNL     1      33.346 -11.535 -20.097  0.00  0.00    +0.150 HD
BRANCH  19  22
ATOM     22  C   UNL     1      32.509 -13.459 -20.172  0.00  0.00    +0.119 C 
BRANCH  22  25
ATOM     23  F   UNL     1      34.644 -15.252 -19.690  0.00  0.00    -0.204 F 
ATOM     24  F   UNL     1      35.361 -16.005 -24.306  0.00  0.00    -0.204 F 
ATOM     25  C   UNL     1      33.270 -14.139 -21.273  0.00  0.00    +0.025 C 
ATOM     26  C   UNL     1      34.313 -15.013 -20.966  0.00  0.00    +0.140 C 
ATOM     27  C   UNL     1      32.933 -13.896 -22.605  0.00  0.00    +0.002 C 
ATOM     28  C   UNL     1      35.020 -15.643 -21.991  0.00  0.00    +0.059 C 
ATOM     29  C   UNL     1      33.639 -14.527 -23.629  0.00  0.00    +0.030 C 
ATOM     30  C   UNL     1      34.683 -15.400 -23.323  0.00  0.00    +0.142 C 
ENDBRANCH  22  25
ENDBRANCH  19  22
ENDBRANCH  16  20
BRANCH  15  31
ATOM     31  O   UNL     1      32.873  -6.853 -18.812  0.00  0.00    -0.502 OA
ATOM     32  H   UNL     1      32.336  -6.746 -18.052  0.00  0.00    +0.292 HD
ENDBRANCH  15  31
TORSDOF 4
ENDMDL
