MODEL 1
REMARK VINA RESULT:     -12.6      0.000      0.000
REMARK  Name = 24794406
REMARK  5 active torsions:
REMARK  status: ('A' for Active; 'I' for Inactive)
REMARK    1  A    between atoms: C_1  and  S_24
REMARK    2  A    between atoms: C_2  and  N_8
REMARK    3  A    between atoms: C_9  and  C_11
REMARK    4  A    between atoms: C_12  and  N_18
REMARK    5  A    between atoms: S_24  and  N_28
REMARK                            x       y       z     vdW  Elec       q    Type
REMARK                         _______ _______ _______ _____ _____    ______ ____
ROOT
ATOM      1  C   UNL     1      32.680 -23.993 -14.194  0.00  0.00    +0.139 C 
ATOM      2  C   UNL     1      31.882 -23.603 -15.269  0.00  0.00    +0.070 C 
ATOM      3  C   UNL     1      32.117 -24.688 -13.123  0.00  0.00    +0.021 C 
ATOM      4  C   UNL     1      30.520 -23.906 -15.273  0.00  0.00    +0.016 C 
ATOM      5  C   UNL     1      30.756 -24.993 -13.128  0.00  0.00    +0.001 C 
ATOM      6  C   UNL     1      29.958 -24.602 -14.204  0.00  0.00    +0.001 C 
ENDROOT
BRANCH   2   8
ATOM      7  O   UNL     1      33.572 -24.569 -17.549  0.00  0.00    -0.270 OA
ATOM      8  N   UNL     1      32.428 -22.895 -16.368  0.00  0.00    -0.279 N 
ATOM      9  C   UNL     1      33.217 -23.387 -17.418  0.00  0.00    +0.250 C 
ATOM     10  H   UNL     1      32.228 -21.932 -16.399  0.00  0.00    +0.155 HD
BRANCH   9  11
ATOM     11  C   UNL     1      33.656 -22.404 -18.395  0.00  0.00    +0.054 C 
ATOM     12  C   UNL     1      34.497 -20.518 -20.271  0.00  0.00    +0.058 C 
ATOM     13  C   UNL     1      32.759 -21.450 -18.875  0.00  0.00    +0.006 C 
ATOM     14  C   UNL     1      34.973 -22.415 -18.854  0.00  0.00    +0.006 C 
ATOM     15  C   UNL     1      33.179 -20.507 -19.814  0.00  0.00    +0.015 C 
ATOM     16  C   UNL     1      35.394 -21.473 -19.792  0.00  0.00    +0.015 C 
BRANCH  12  18
ATOM     17  O   UNL     1      36.803 -18.796 -19.991  0.00  0.00    -0.269 OA
ATOM     18  N   UNL     1      34.934 -19.538 -21.246  0.00  0.00    -0.233 N 
ATOM     19  C   UNL     1      36.109 -18.779 -21.008  0.00  0.00    +0.257 C 
ATOM     20  C   UNL     1      34.193 -19.317 -22.410  0.00  0.00    +0.072 C 
ATOM     21  C   UNL     1      36.515 -17.823 -22.085  0.00  0.00    +0.059 C 
ATOM     22  C   UNL     1      34.559 -18.432 -23.344  0.00  0.00    +0.017 C 
ATOM     23  C   UNL     1      35.760 -17.669 -23.175  0.00  0.00    +0.006 C 
ENDBRANCH  12  18
ENDBRANCH   9  11
ENDBRANCH   2   8
BRANCH   1  24
ATOM     24  S   UNL     1      34.394 -23.631 -14.150  0.00  0.00    +0.076 S 
ATOM     25  O   UNL     1      34.819 -23.691 -12.758  0.00  0.00    -0.150 OA
ATOM     26  O   UNL     1      34.626 -22.410 -14.907  0.00  0.00    -0.150 OA
BRANCH  24  28
ATOM     27 CL   UNL     1      40.729 -26.174 -13.860  0.00  0.00    -0.081 Cl
ATOM     28  N   UNL     1      35.083 -24.970 -14.983  0.00  0.00    -0.199 N 
ATOM     29  N   UNL     1      37.294 -24.264 -14.512  0.00  0.00    -0.227 NA
ATOM     30  C   UNL     1      36.456 -25.306 -14.712  0.00  0.00    +0.147 C 
ATOM     31  C   UNL     1      36.844 -26.635 -14.668  0.00  0.00    +0.036 C 
ATOM     32  C   UNL     1      38.180 -26.913 -14.400  0.00  0.00    +0.016 C 
ATOM     33  C   UNL     1      38.585 -24.574 -14.255  0.00  0.00    +0.112 C 
ATOM     34  C   UNL     1      39.074 -25.868 -14.189  0.00  0.00    +0.077 C 
ATOM     35  H   UNL     1      34.553 -25.492 -15.628  0.00  0.00    +0.175 HD
ENDBRANCH  24  28
ENDBRANCH   1  24
TORSDOF 5
ENDMDL
MODEL 2
REMARK VINA RESULT:     -12.4      1.344      1.685
REMARK  Name = 24794406
REMARK  5 active torsions:
REMARK  status: ('A' for Active; 'I' for Inactive)
REMARK    1  A    between atoms: C_1  and  S_24
REMARK    2  A    between atoms: C_2  and  N_8
REMARK    3  A    between atoms: C_9  and  C_11
REMARK    4  A    between atoms: C_12  and  N_18
REMARK    5  A    between atoms: S_24  and  N_28
REMARK                            x       y       z     vdW  Elec       q    Type
REMARK                         _______ _______ _______ _____ _____    ______ ____
ROOT
ATOM      1  C   UNL     1      33.266 -23.858 -14.701  0.00  0.00    +0.139 C 
ATOM      2  C   UNL     1      32.364 -23.420 -15.670  0.00  0.00    +0.070 C 
ATOM      3  C   UNL     1      32.828 -24.680 -13.662  0.00  0.00    +0.021 C 
ATOM      4  C   UNL     1      31.024 -23.802 -15.600  0.00  0.00    +0.016 C 
ATOM      5  C   UNL     1      31.488 -25.063 -13.592  0.00  0.00    +0.001 C 
ATOM      6  C   UNL     1      30.587 -24.624 -14.562  0.00  0.00    +0.001 C 
ENDROOT
BRANCH   2   8
ATOM      7  O   UNL     1      33.700 -24.110 -18.264  0.00  0.00    -0.270 OA
ATOM      8  N   UNL     1      32.781 -22.585 -16.735  0.00  0.00    -0.279 N 
ATOM      9  C   UNL     1      33.406 -22.949 -17.937  0.00  0.00    +0.250 C 
ATOM     10  H   UNL     1      32.612 -21.623 -16.617  0.00  0.00    +0.155 HD
BRANCH   9  11
ATOM     11  C   UNL     1      33.744 -21.855 -18.833  0.00  0.00    +0.054 C 
ATOM     12  C   UNL     1      34.389 -19.756 -20.554  0.00  0.00    +0.058 C 
ATOM     13  C   UNL     1      32.731 -21.081 -19.399  0.00  0.00    +0.006 C 
ATOM     14  C   UNL     1      35.078 -21.580 -19.129  0.00  0.00    +0.006 C 
ATOM     15  C   UNL     1      33.054 -20.031 -20.259  0.00  0.00    +0.015 C 
ATOM     16  C   UNL     1      35.401 -20.532 -19.989  0.00  0.00    +0.015 C 
BRANCH  12  18
ATOM     17  O   UNL     1      34.584 -19.954 -23.433  0.00  0.00    -0.269 OA
ATOM     18  N   UNL     1      34.724 -18.665 -21.448  0.00  0.00    -0.233 N 
ATOM     19  C   UNL     1      34.749 -18.881 -22.850  0.00  0.00    +0.257 C 
ATOM     20  C   UNL     1      35.048 -17.405 -20.939  0.00  0.00    +0.072 C 
ATOM     21  C   UNL     1      35.060 -17.692 -23.703  0.00  0.00    +0.059 C 
ATOM     22  C   UNL     1      35.355 -16.365 -21.721  0.00  0.00    +0.017 C 
ATOM     23  C   UNL     1      35.353 -16.515 -23.145  0.00  0.00    +0.006 C 
ENDBRANCH  12  18
ENDBRANCH   9  11
ENDBRANCH   2   8
BRANCH   1  24
ATOM     24  S   UNL     1      34.956 -23.401 -14.753  0.00  0.00    +0.076 S 
ATOM     25  O   UNL     1      35.023 -21.953 -14.615  0.00  0.00    -0.150 OA
ATOM     26  O   UNL     1      35.567 -24.029 -15.916  0.00  0.00    -0.150 OA
BRANCH  24  28
ATOM     27 CL   UNL     1      40.900 -26.594 -13.678  0.00  0.00    -0.081 Cl
ATOM     28  N   UNL     1      35.582 -24.110 -13.315  0.00  0.00    -0.199 N 
ATOM     29  N   UNL     1      37.206 -25.357 -14.506  0.00  0.00    -0.227 NA
ATOM     30  C   UNL     1      36.892 -24.705 -13.365  0.00  0.00    +0.147 C 
ATOM     31  C   UNL     1      37.744 -24.586 -12.279  0.00  0.00    +0.036 C 
ATOM     32  C   UNL     1      39.001 -25.174 -12.371  0.00  0.00    +0.016 C 
ATOM     33  C   UNL     1      38.435 -25.916 -14.559  0.00  0.00    +0.112 C 
ATOM     34  C   UNL     1      39.361 -25.854 -13.530  0.00  0.00    +0.077 C 
ATOM     35  H   UNL     1      35.059 -24.110 -12.481  0.00  0.00    +0.175 HD
ENDBRANCH  24  28
ENDBRANCH   1  24
TORSDOF 5
ENDMDL
MODEL 3
REMARK VINA RESULT:     -10.1     11.204     16.804
REMARK  Name = 24794406
REMARK  5 active torsions:
REMARK  status: ('A' for Active; 'I' for Inactive)
REMARK    1  A    between atoms: C_1  and  S_24
REMARK    2  A    between atoms: C_2  and  N_8
REMARK    3  A    between atoms: C_9  and  C_11
REMARK    4  A    between atoms: C_12  and  N_18
REMARK    5  A    between atoms: S_24  and  N_28
REMARK                            x       y       z     vdW  Elec       q    Type
REMARK                         _______ _______ _______ _____ _____    ______ ____
ROOT
ATOM      1  C   UNL     1      32.138  -6.734 -22.748  0.00  0.00    +0.139 C 
ATOM      2  C   UNL     1      32.620  -7.583 -21.753  0.00  0.00    +0.070 C 
ATOM      3  C   UNL     1      31.910  -5.387 -22.464  0.00  0.00    +0.021 C 
ATOM      4  C   UNL     1      32.874  -7.087 -20.474  0.00  0.00    +0.016 C 
ATOM      5  C   UNL     1      32.165  -4.890 -21.185  0.00  0.00    +0.001 C 
ATOM      6  C   UNL     1      32.647  -5.741 -20.191  0.00  0.00    +0.001 C 
ENDROOT
BRANCH   2   8
ATOM      7  O   UNL     1      30.724  -9.906 -21.802  0.00  0.00    -0.270 OA
ATOM      8  N   UNL     1      32.859  -8.955 -22.014  0.00  0.00    -0.279 N 
ATOM      9  C   UNL     1      31.940 -10.015 -22.026  0.00  0.00    +0.250 C 
ATOM     10  H   UNL     1      33.793  -9.197 -22.211  0.00  0.00    +0.155 HD
BRANCH   9  11
ATOM     11  C   UNL     1      32.493 -11.330 -22.302  0.00  0.00    +0.054 C 
ATOM     12  C   UNL     1      33.555 -13.855 -22.835  0.00  0.00    +0.058 C 
ATOM     13  C   UNL     1      33.382 -11.504 -23.364  0.00  0.00    +0.006 C 
ATOM     14  C   UNL     1      32.136 -12.419 -21.508  0.00  0.00    +0.006 C 
ATOM     15  C   UNL     1      33.912 -12.766 -23.630  0.00  0.00    +0.015 C 
ATOM     16  C   UNL     1      32.666 -13.681 -21.774  0.00  0.00    +0.015 C 
BRANCH  12  18
ATOM     17  O   UNL     1      33.118 -15.376 -25.255  0.00  0.00    -0.269 OA
ATOM     18  N   UNL     1      34.107 -15.167 -23.111  0.00  0.00    -0.233 N 
ATOM     19  C   UNL     1      33.850 -15.795 -24.357  0.00  0.00    +0.257 C 
ATOM     20  C   UNL     1      34.872 -15.831 -22.149  0.00  0.00    +0.072 C 
ATOM     21  C   UNL     1      34.495 -17.126 -24.578  0.00  0.00    +0.059 C 
ATOM     22  C   UNL     1      35.411 -17.037 -22.358  0.00  0.00    +0.017 C 
ATOM     23  C   UNL     1      35.219 -17.698 -23.614  0.00  0.00    +0.006 C 
ENDBRANCH  12  18
ENDBRANCH   9  11
ENDBRANCH   2   8
BRANCH   1  24
ATOM     24  S   UNL     1      31.807  -7.317 -24.366  0.00  0.00    +0.076 S 
ATOM     25  O   UNL     1      30.415  -7.746 -24.401  0.00  0.00    -0.150 OA
ATOM     26  O   UNL     1      32.847  -8.265 -24.735  0.00  0.00    -0.150 OA
BRANCH  24  28
ATOM     27 CL   UNL     1      37.342  -4.546 -27.259  0.00  0.00    -0.081 Cl
ATOM     28  N   UNL     1      31.956  -5.891 -25.318  0.00  0.00    -0.199 N 
ATOM     29  N   UNL     1      34.302  -5.799 -25.010  0.00  0.00    -0.227 NA
ATOM     30  C   UNL     1      33.256  -5.548 -25.829  0.00  0.00    +0.147 C 
ATOM     31  C   UNL     1      33.376  -4.994 -27.093  0.00  0.00    +0.036 C 
ATOM     32  C   UNL     1      34.653  -4.680 -27.547  0.00  0.00    +0.016 C 
ATOM     33  C   UNL     1      35.527  -5.480 -25.485  0.00  0.00    +0.112 C 
ATOM     34  C   UNL     1      35.754  -4.925 -26.733  0.00  0.00    +0.077 C 
ATOM     35  H   UNL     1      31.173  -5.325 -25.508  0.00  0.00    +0.175 HD
ENDBRANCH  24  28
ENDBRANCH   1  24
TORSDOF 5
ENDMDL
MODEL 4
REMARK VINA RESULT:     -10.1     11.970     17.648
REMARK  Name = 24794406
REMARK  5 active torsions:
REMARK  status: ('A' for Active; 'I' for Inactive)
REMARK    1  A    between atoms: C_1  and  S_24
REMARK    2  A    between atoms: C_2  and  N_8
REMARK    3  A    between atoms: C_9  and  C_11
REMARK    4  A    between atoms: C_12  and  N_18
REMARK    5  A    between atoms: S_24  and  N_28
REMARK                            x       y       z     vdW  Elec       q    Type
REMARK                         _______ _______ _______ _____ _____    ______ ____
ROOT
ATOM      1  C   UNL     1      32.494  -5.823 -23.144  0.00  0.00    +0.139 C 
ATOM      2  C   UNL     1      32.014  -6.804 -22.277  0.00  0.00    +0.070 C 
ATOM      3  C   UNL     1      32.165  -4.484 -22.934  0.00  0.00    +0.021 C 
ATOM      4  C   UNL     1      31.203  -6.446 -21.200  0.00  0.00    +0.016 C 
ATOM      5  C   UNL     1      31.355  -4.126 -21.856  0.00  0.00    +0.001 C 
ATOM      6  C   UNL     1      30.874  -5.108 -20.989  0.00  0.00    +0.001 C 
ENDROOT
BRANCH   2   8
ATOM      7  O   UNL     1      30.244  -9.132 -22.935  0.00  0.00    -0.270 OA
ATOM      8  N   UNL     1      32.333  -8.171 -22.468  0.00  0.00    -0.279 N 
ATOM      9  C   UNL     1      31.471  -9.233 -22.776  0.00  0.00    +0.250 C 
ATOM     10  H   UNL     1      33.284  -8.406 -22.371  0.00  0.00    +0.155 HD
BRANCH   9  11
ATOM     11  C   UNL     1      32.093 -10.543 -22.884  0.00  0.00    +0.054 C 
ATOM     12  C   UNL     1      33.286 -13.057 -23.089  0.00  0.00    +0.058 C 
ATOM     13  C   UNL     1      31.567 -11.625 -22.177  0.00  0.00    +0.006 C 
ATOM     14  C   UNL     1      33.215 -10.719 -23.692  0.00  0.00    +0.006 C 
ATOM     15  C   UNL     1      32.164 -12.881 -22.279  0.00  0.00    +0.015 C 
ATOM     16  C   UNL     1      33.812 -11.975 -23.795  0.00  0.00    +0.015 C 
BRANCH  12  18
ATOM     17  O   UNL     1      33.187 -14.768 -25.418  0.00  0.00    -0.269 OA
ATOM     18  N   UNL     1      33.906 -14.363 -23.196  0.00  0.00    -0.233 N 
ATOM     19  C   UNL     1      33.818 -15.090 -24.411  0.00  0.00    +0.257 C 
ATOM     20  C   UNL     1      34.570 -14.924 -22.102  0.00  0.00    +0.072 C 
ATOM     21  C   UNL     1      34.524 -16.408 -24.452  0.00  0.00    +0.059 C 
ATOM     22  C   UNL     1      35.166 -16.121 -22.153  0.00  0.00    +0.017 C 
ATOM     23  C   UNL     1      35.146 -16.879 -23.368  0.00  0.00    +0.006 C 
ENDBRANCH  12  18
ENDBRANCH   9  11
ENDBRANCH   2   8
BRANCH   1  24
ATOM     24  S   UNL     1      33.515  -6.231 -24.508  0.00  0.00    +0.076 S 
ATOM     25  O   UNL     1      32.710  -7.005 -25.443  0.00  0.00    -0.150 OA
ATOM     26  O   UNL     1      34.754  -6.803 -24.002  0.00  0.00    -0.150 OA
BRANCH  24  28
ATOM     27 CL   UNL     1      37.249  -4.623 -30.000  0.00  0.00    -0.081 Cl
ATOM     28  N   UNL     1      33.832  -4.693 -25.215  0.00  0.00    -0.199 N 
ATOM     29  N   UNL     1      35.674  -5.519 -26.453  0.00  0.00    -0.227 NA
ATOM     30  C   UNL     1      34.644  -4.644 -26.401  0.00  0.00    +0.147 C 
ATOM     31  C   UNL     1      34.347  -3.736 -27.403  0.00  0.00    +0.036 C 
ATOM     32  C   UNL     1      35.158  -3.725 -28.534  0.00  0.00    +0.016 C 
ATOM     33  C   UNL     1      36.439  -5.479 -27.566  0.00  0.00    +0.112 C 
ATOM     34  C   UNL     1      36.226  -4.610 -28.624  0.00  0.00    +0.077 C 
ATOM     35  H   UNL     1      33.468  -3.869 -24.818  0.00  0.00    +0.175 HD
ENDBRANCH  24  28
ENDBRANCH   1  24
TORSDOF 5
ENDMDL
MODEL 5
REMARK VINA RESULT:      -9.9     12.110     17.811
REMARK  Name = 24794406
REMARK  5 active torsions:
REMARK  status: ('A' for Active; 'I' for Inactive)
REMARK    1  A    between atoms: C_1  and  S_24
REMARK    2  A    between atoms: C_2  and  N_8
REMARK    3  A    between atoms: C_9  and  C_11
REMARK    4  A    between atoms: C_12  and  N_18
REMARK    5  A    between atoms: S_24  and  N_28
REMARK                            x       y       z     vdW  Elec       q    Type
REMARK                         _______ _______ _______ _____ _____    ______ ____
ROOT
ATOM      1  C   UNL     1      32.821  -6.140 -23.016  0.00  0.00    +0.139 C 
ATOM      2  C   UNL     1      32.465  -7.111 -22.079  0.00  0.00    +0.070 C 
ATOM      3  C   UNL     1      32.542  -4.796 -22.767  0.00  0.00    +0.021 C 
ATOM      4  C   UNL     1      31.829  -6.738 -20.895  0.00  0.00    +0.016 C 
ATOM      5  C   UNL     1      31.907  -4.423 -21.582  0.00  0.00    +0.001 C 
ATOM      6  C   UNL     1      31.551  -5.395 -20.646  0.00  0.00    +0.001 C 
ENDROOT
BRANCH   2   8
ATOM      7  O   UNL     1      30.703  -9.279 -23.166  0.00  0.00    -0.270 OA
ATOM      8  N   UNL     1      32.736  -8.483 -22.307  0.00  0.00    -0.279 N 
ATOM      9  C   UNL     1      31.880  -9.468 -22.819  0.00  0.00    +0.250 C 
ATOM     10  H   UNL     1      33.644  -8.784 -22.075  0.00  0.00    +0.155 HD
BRANCH   9  11
ATOM     11  C   UNL     1      32.438 -10.807 -22.913  0.00  0.00    +0.054 C 
ATOM     12  C   UNL     1      33.510 -13.377 -23.090  0.00  0.00    +0.058 C 
ATOM     13  C   UNL     1      31.797 -11.875 -22.285  0.00  0.00    +0.006 C 
ATOM     14  C   UNL     1      33.615 -11.025 -23.628  0.00  0.00    +0.006 C 
ATOM     15  C   UNL     1      32.333 -13.160 -22.373  0.00  0.00    +0.015 C 
ATOM     16  C   UNL     1      34.152 -12.309 -23.717  0.00  0.00    +0.015 C 
BRANCH  12  18
ATOM     17  O   UNL     1      33.244 -15.145 -25.363  0.00  0.00    -0.269 OA
ATOM     18  N   UNL     1      34.067 -14.713 -23.182  0.00  0.00    -0.233 N 
ATOM     19  C   UNL     1      33.900 -15.468 -24.371  0.00  0.00    +0.257 C 
ATOM     20  C   UNL     1      34.748 -15.273 -22.099  0.00  0.00    +0.072 C 
ATOM     21  C   UNL     1      34.545 -16.817 -24.401  0.00  0.00    +0.059 C 
ATOM     22  C   UNL     1      35.288 -16.496 -22.138  0.00  0.00    +0.017 C 
ATOM     23  C   UNL     1      35.187 -17.286 -23.328  0.00  0.00    +0.006 C 
ENDBRANCH  12  18
ENDBRANCH   9  11
ENDBRANCH   2   8
BRANCH   1  24
ATOM     24  S   UNL     1      33.620  -6.567 -24.515  0.00  0.00    +0.076 S 
ATOM     25  O   UNL     1      32.598  -7.039 -25.439  0.00  0.00    -0.150 OA
ATOM     26  O   UNL     1      34.747  -7.436 -24.205  0.00  0.00    -0.150 OA
BRANCH  24  28
ATOM     27 CL   UNL     1      31.757  -2.943 -29.999  0.00  0.00    -0.081 Cl
ATOM     28  N   UNL     1      34.198  -5.047 -25.080  0.00  0.00    -0.199 N 
ATOM     29  N   UNL     1      33.279  -5.377 -27.238  0.00  0.00    -0.227 NA
ATOM     30  C   UNL     1      33.604  -4.493 -26.268  0.00  0.00    +0.147 C 
ATOM     31  C   UNL     1      33.397  -3.127 -26.362  0.00  0.00    +0.036 C 
ATOM     32  C   UNL     1      32.818  -2.635 -27.527  0.00  0.00    +0.016 C 
ATOM     33  C   UNL     1      32.719  -4.862 -28.355  0.00  0.00    +0.112 C 
ATOM     34  C   UNL     1      32.470  -3.513 -28.548  0.00  0.00    +0.077 C 
ATOM     35  H   UNL     1      34.915  -4.570 -24.604  0.00  0.00    +0.175 HD
ENDBRANCH  24  28
ENDBRANCH   1  24
TORSDOF 5
ENDMDL
MODEL 6
REMARK VINA RESULT:      -9.6     11.324     15.704
REMARK  Name = 24794406
REMARK  5 active torsions:
REMARK  status: ('A' for Active; 'I' for Inactive)
REMARK    1  A    between atoms: C_1  and  S_24
REMARK    2  A    between atoms: C_2  and  N_8
REMARK    3  A    between atoms: C_9  and  C_11
REMARK    4  A    between atoms: C_12  and  N_18
REMARK    5  A    between atoms: S_24  and  N_28
REMARK                            x       y       z     vdW  Elec       q    Type
REMARK                         _______ _______ _______ _____ _____    ______ ____
ROOT
ATOM      1  C   UNL     1      31.948  -9.938 -20.696  0.00  0.00    +0.139 C 
ATOM      2  C   UNL     1      32.267  -8.580 -20.711  0.00  0.00    +0.070 C 
ATOM      3  C   UNL     1      31.392 -10.511 -19.552  0.00  0.00    +0.021 C 
ATOM      4  C   UNL     1      32.032  -7.796 -19.582  0.00  0.00    +0.016 C 
ATOM      5  C   UNL     1      31.156  -9.726 -18.423  0.00  0.00    +0.001 C 
ATOM      6  C   UNL     1      31.476  -8.368 -18.439  0.00  0.00    +0.001 C 
ENDROOT
BRANCH   2   8
ATOM      7  O   UNL     1      30.982  -6.948 -22.873  0.00  0.00    -0.270 OA
ATOM      8  N   UNL     1      32.834  -7.974 -21.859  0.00  0.00    -0.279 N 
ATOM      9  C   UNL     1      32.194  -7.215 -22.851  0.00  0.00    +0.250 C 
ATOM     10  H   UNL     1      33.802  -8.102 -21.978  0.00  0.00    +0.155 HD
BRANCH   9  11
ATOM     11  C   UNL     1      33.043  -6.743 -23.933  0.00  0.00    +0.054 C 
ATOM     12  C   UNL     1      34.672  -5.836 -26.008  0.00  0.00    +0.058 C 
ATOM     13  C   UNL     1      34.405  -6.539 -23.712  0.00  0.00    +0.006 C 
ATOM     14  C   UNL     1      32.496  -6.493 -25.192  0.00  0.00    +0.006 C 
ATOM     15  C   UNL     1      35.219  -6.085 -24.750  0.00  0.00    +0.015 C 
ATOM     16  C   UNL     1      33.310  -6.040 -26.229  0.00  0.00    +0.015 C 
BRANCH  12  18
ATOM     17  O   UNL     1      35.149  -3.061 -26.669  0.00  0.00    -0.269 OA
ATOM     18  N   UNL     1      35.518  -5.365 -27.087  0.00  0.00    -0.233 N 
ATOM     19  C   UNL     1      35.703  -3.972 -27.285  0.00  0.00    +0.257 C 
ATOM     20  C   UNL     1      36.137  -6.272 -27.951  0.00  0.00    +0.072 C 
ATOM     21  C   UNL     1      36.628  -3.572 -28.390  0.00  0.00    +0.059 C 
ATOM     22  C   UNL     1      36.934  -5.888 -28.954  0.00  0.00    +0.017 C 
ATOM     23  C   UNL     1      37.190  -4.497 -29.173  0.00  0.00    +0.006 C 
ENDBRANCH  12  18
ENDBRANCH   9  11
ENDBRANCH   2   8
BRANCH   1  24
ATOM     24  S   UNL     1      32.227 -10.957 -22.093  0.00  0.00    +0.076 S 
ATOM     25  O   UNL     1      33.472 -10.523 -22.712  0.00  0.00    -0.150 OA
ATOM     26  O   UNL     1      31.012 -10.983 -22.895  0.00  0.00    -0.150 OA
BRANCH  24  28
ATOM     27 CL   UNL     1      35.010 -16.589 -24.781  0.00  0.00    -0.081 Cl
ATOM     28  N   UNL     1      32.488 -12.504 -21.384  0.00  0.00    -0.199 N 
ATOM     29  N   UNL     1      32.795 -13.539 -23.492  0.00  0.00    -0.227 NA
ATOM     30  C   UNL     1      33.126 -13.518 -22.181  0.00  0.00    +0.147 C 
ATOM     31  C   UNL     1      34.020 -14.397 -21.592  0.00  0.00    +0.036 C 
ATOM     32  C   UNL     1      34.614 -15.360 -22.401  0.00  0.00    +0.016 C 
ATOM     33  C   UNL     1      33.393 -14.489 -24.246  0.00  0.00    +0.112 C 
ATOM     34  C   UNL     1      34.300 -15.413 -23.755  0.00  0.00    +0.077 C 
ATOM     35  H   UNL     1      32.209 -12.690 -20.459  0.00  0.00    +0.175 HD
ENDBRANCH  24  28
ENDBRANCH   1  24
TORSDOF 5
ENDMDL
