MODEL 1
REMARK VINA RESULT:     -10.7      0.000      0.000
REMARK  Name = 445950
REMARK  8 active torsions:
REMARK  status: ('A' for Active; 'I' for Inactive)
REMARK    1  A    between atoms: N_1  and  C_20
REMARK    2  A    between atoms: N_3  and  C_13
REMARK    3  A    between atoms: C_19  and  O_25
REMARK    4  A    between atoms: O_25  and  C_26
REMARK    5  A    between atoms: C_26  and  C_27
REMARK    6  A    between atoms: C_27  and  O_28
REMARK    7  A    between atoms: C_27  and  C_30
REMARK    8  A    between atoms: C_30  and  N_31
REMARK                            x       y       z     vdW  Elec       q    Type
REMARK                         _______ _______ _______ _____ _____    ______ ____
ROOT
ATOM      1  N   UNL     1      36.414 -21.452 -18.136  0.00  0.00    -0.301 N 
ATOM      2  H   UNL     1      37.356 -21.250 -18.341  0.00  0.00    +0.153 HD
ATOM      3  N   UNL     1      35.604 -19.095 -22.215  0.00  0.00    -0.298 N 
ATOM      4  N   UNL     1      34.183 -21.172 -18.919  0.00  0.00    -0.233 NA
ATOM      5  N   UNL     1      33.774 -19.984 -20.976  0.00  0.00    -0.233 NA
ATOM      6  C   UNL     1      35.507 -20.958 -19.094  0.00  0.00    +0.113 C 
ATOM      7  C   UNL     1      36.026 -20.271 -20.177  0.00  0.00    +0.122 C 
ATOM      8  C   UNL     1      35.106 -19.803 -21.093  0.00  0.00    +0.113 C 
ATOM      9  C   UNL     1      33.388 -20.667 -19.881  0.00  0.00    +0.252 C 
ATOM     10  H   UNL     1      36.503 -19.379 -22.495  0.00  0.00    +0.153 HD
ENDROOT
BRANCH   3  13
ATOM     11  F   UNL     1      35.801 -16.429 -21.451  0.00  0.00    -0.203 F 
ATOM     12  F   UNL     1      34.286 -19.643 -24.602  0.00  0.00    -0.203 F 
ATOM     13  C   UNL     1      35.061 -18.068 -23.002  0.00  0.00    +0.105 C 
ATOM     14  C   UNL     1      35.173 -16.734 -22.595  0.00  0.00    +0.156 C 
ATOM     15  C   UNL     1      34.401 -18.370 -24.197  0.00  0.00    +0.156 C 
ATOM     16  C   UNL     1      34.630 -15.714 -23.377  0.00  0.00    +0.031 C 
ATOM     17  C   UNL     1      33.860 -17.349 -24.979  0.00  0.00    +0.031 C 
ATOM     18  C   UNL     1      33.975 -16.022 -24.569  0.00  0.00    +0.005 C 
ENDBRANCH   3  13
BRANCH   1  20
ATOM     19  C   UNL     1      35.896 -23.612 -14.582  0.00  0.00    +0.139 C 
ATOM     20  C   UNL     1      36.239 -22.179 -16.940  0.00  0.00    +0.049 C 
ATOM     21  C   UNL     1      34.841 -23.503 -15.482  0.00  0.00    +0.038 C 
ATOM     22  C   UNL     1      37.120 -23.011 -14.850  0.00  0.00    +0.038 C 
ATOM     23  C   UNL     1      35.013 -22.784 -16.665  0.00  0.00    +0.018 C 
ATOM     24  C   UNL     1      37.293 -22.292 -16.033  0.00  0.00    +0.018 C 
BRANCH  19  25
ATOM     25  O   UNL     1      35.725 -24.319 -13.421  0.00  0.00    -0.473 OA
BRANCH  25  26
ATOM     26  C   UNL     1      36.306 -23.767 -12.244  0.00  0.00    +0.232 C 
BRANCH  26  27
ATOM     27  C   UNL     1      37.436 -24.681 -11.775  0.00  0.00    +0.133 C 
BRANCH  27  28
ATOM     28  O   UNL     1      37.547 -24.579 -10.353  0.00  0.00    -0.383 OA
ATOM     29  H   UNL     1      38.030 -25.347 -10.010  0.00  0.00    +0.210 HD
ENDBRANCH  27  28
BRANCH  27  30
ATOM     30  C   UNL     1      37.212 -26.152 -12.133  0.00  0.00    -0.044 C 
BRANCH  30  31
ATOM     31  N   UNL     1      38.155 -26.621 -13.139  0.00  0.00    +0.386 N 
ATOM     32  C   UNL     1      39.222 -25.639 -13.345  0.00  0.00    -0.101 C 
ATOM     33  C   UNL     1      37.468 -26.895 -14.404  0.00  0.00    -0.101 C 
ATOM     34  H   UNL     1      38.572 -27.488 -12.802  0.00  0.00    -0.080 HD
ENDBRANCH  30  31
ENDBRANCH  27  30
ENDBRANCH  26  27
ENDBRANCH  25  26
ENDBRANCH  19  25
ENDBRANCH   1  20
TORSDOF 8
ENDMDL
MODEL 2
REMARK VINA RESULT:     -10.7      0.075      1.512
REMARK  Name = 445950
REMARK  8 active torsions:
REMARK  status: ('A' for Active; 'I' for Inactive)
REMARK    1  A    between atoms: N_1  and  C_20
REMARK    2  A    between atoms: N_3  and  C_13
REMARK    3  A    between atoms: C_19  and  O_25
REMARK    4  A    between atoms: O_25  and  C_26
REMARK    5  A    between atoms: C_26  and  C_27
REMARK    6  A    between atoms: C_27  and  O_28
REMARK    7  A    between atoms: C_27  and  C_30
REMARK    8  A    between atoms: C_30  and  N_31
REMARK                            x       y       z     vdW  Elec       q    Type
REMARK                         _______ _______ _______ _____ _____    ______ ____
ROOT
ATOM      1  N   UNL     1      36.372 -21.481 -18.149  0.00  0.00    -0.301 N 
ATOM      2  H   UNL     1      37.315 -21.279 -18.346  0.00  0.00    +0.153 HD
ATOM      3  N   UNL     1      35.590 -19.079 -22.207  0.00  0.00    -0.298 N 
ATOM      4  N   UNL     1      34.146 -21.191 -18.944  0.00  0.00    -0.233 NA
ATOM      5  N   UNL     1      33.751 -19.980 -20.990  0.00  0.00    -0.233 NA
ATOM      6  C   UNL     1      35.471 -20.976 -19.108  0.00  0.00    +0.113 C 
ATOM      7  C   UNL     1      35.998 -20.278 -20.179  0.00  0.00    +0.122 C 
ATOM      8  C   UNL     1      35.084 -19.799 -21.096  0.00  0.00    +0.113 C 
ATOM      9  C   UNL     1      33.358 -20.675 -19.905  0.00  0.00    +0.252 C 
ATOM     10  H   UNL     1      36.491 -19.361 -22.485  0.00  0.00    +0.153 HD
ENDROOT
BRANCH   3  13
ATOM     11  F   UNL     1      34.282 -19.601 -24.605  0.00  0.00    -0.203 F 
ATOM     12  F   UNL     1      35.792 -16.420 -21.418  0.00  0.00    -0.203 F 
ATOM     13  C   UNL     1      35.053 -18.043 -22.987  0.00  0.00    +0.105 C 
ATOM     14  C   UNL     1      34.401 -18.332 -24.189  0.00  0.00    +0.156 C 
ATOM     15  C   UNL     1      35.170 -16.714 -22.568  0.00  0.00    +0.156 C 
ATOM     16  C   UNL     1      33.870 -17.301 -24.966  0.00  0.00    +0.031 C 
ATOM     17  C   UNL     1      34.639 -15.684 -23.345  0.00  0.00    +0.031 C 
ATOM     18  C   UNL     1      33.989 -15.977 -24.543  0.00  0.00    +0.005 C 
ENDBRANCH   3  13
BRANCH   1  20
ATOM     19  C   UNL     1      35.828 -23.679 -14.622  0.00  0.00    +0.139 C 
ATOM     20  C   UNL     1      36.188 -22.221 -16.962  0.00  0.00    +0.049 C 
ATOM     21  C   UNL     1      34.776 -23.551 -15.523  0.00  0.00    +0.038 C 
ATOM     22  C   UNL     1      37.058 -23.086 -14.881  0.00  0.00    +0.038 C 
ATOM     23  C   UNL     1      34.957 -22.819 -16.697  0.00  0.00    +0.018 C 
ATOM     24  C   UNL     1      37.239 -22.354 -16.054  0.00  0.00    +0.018 C 
BRANCH  19  25
ATOM     25  O   UNL     1      35.649 -24.399 -13.470  0.00  0.00    -0.473 OA
BRANCH  25  26
ATOM     26  C   UNL     1      36.154 -23.822 -12.270  0.00  0.00    +0.232 C 
BRANCH  26  27
ATOM     27  C   UNL     1      37.342 -24.649 -11.786  0.00  0.00    +0.133 C 
BRANCH  27  28
ATOM     28  O   UNL     1      37.450 -24.509 -10.367  0.00  0.00    -0.383 OA
ATOM     29  H   UNL     1      36.567 -24.379  -9.987  0.00  0.00    +0.210 HD
ENDBRANCH  27  28
BRANCH  27  30
ATOM     30  C   UNL     1      37.215 -26.139 -12.111  0.00  0.00    -0.044 C 
BRANCH  30  31
ATOM     31  N   UNL     1      38.200 -26.572 -13.092  0.00  0.00    +0.386 N 
ATOM     32  C   UNL     1      39.223 -25.542 -13.288  0.00  0.00    -0.101 C 
ATOM     33  C   UNL     1      37.554 -26.892 -14.367  0.00  0.00    -0.101 C 
ATOM     34  H   UNL     1      38.651 -27.415 -12.737  0.00  0.00    -0.080 HD
ENDBRANCH  30  31
ENDBRANCH  27  30
ENDBRANCH  26  27
ENDBRANCH  25  26
ENDBRANCH  19  25
ENDBRANCH   1  20
TORSDOF 8
ENDMDL
MODEL 3
REMARK VINA RESULT:     -10.3      6.768     10.244
REMARK  Name = 445950
REMARK  8 active torsions:
REMARK  status: ('A' for Active; 'I' for Inactive)
REMARK    1  A    between atoms: N_1  and  C_20
REMARK    2  A    between atoms: N_3  and  C_13
REMARK    3  A    between atoms: C_19  and  O_25
REMARK    4  A    between atoms: O_25  and  C_26
REMARK    5  A    between atoms: C_26  and  C_27
REMARK    6  A    between atoms: C_27  and  O_28
REMARK    7  A    between atoms: C_27  and  C_30
REMARK    8  A    between atoms: C_30  and  N_31
REMARK                            x       y       z     vdW  Elec       q    Type
REMARK                         _______ _______ _______ _____ _____    ______ ____
ROOT
ATOM      1  N   UNL     1      34.132 -13.338 -23.680  0.00  0.00    -0.301 N 
ATOM      2  H   UNL     1      34.684 -12.918 -24.378  0.00  0.00    +0.153 HD
ATOM      3  N   UNL     1      32.181  -8.985 -23.386  0.00  0.00    -0.298 N 
ATOM      4  N   UNL     1      32.384 -12.927 -22.117  0.00  0.00    -0.233 NA
ATOM      5  N   UNL     1      31.400 -10.732 -21.968  0.00  0.00    -0.233 NA
ATOM      6  C   UNL     1      33.199 -12.463 -23.091  0.00  0.00    +0.113 C 
ATOM      7  C   UNL     1      33.168 -11.156 -23.546  0.00  0.00    +0.122 C 
ATOM      8  C   UNL     1      32.241 -10.330 -22.944  0.00  0.00    +0.113 C 
ATOM      9  C   UNL     1      31.524 -12.024 -21.609  0.00  0.00    +0.252 C 
ATOM     10  H   UNL     1      32.432  -8.867 -24.330  0.00  0.00    +0.153 HD
ENDROOT
BRANCH   3  13
ATOM     11  F   UNL     1      33.353  -8.253 -20.973  0.00  0.00    -0.203 F 
ATOM     12  F   UNL     1      30.289  -7.253 -24.461  0.00  0.00    -0.203 F 
ATOM     13  C   UNL     1      31.832  -7.790 -22.738  0.00  0.00    +0.105 C 
ATOM     14  C   UNL     1      32.437  -7.445 -21.524  0.00  0.00    +0.156 C 
ATOM     15  C   UNL     1      30.876  -6.938 -23.298  0.00  0.00    +0.156 C 
ATOM     16  C   UNL     1      32.088  -6.259 -20.878  0.00  0.00    +0.031 C 
ATOM     17  C   UNL     1      30.529  -5.751 -22.652  0.00  0.00    +0.031 C 
ATOM     18  C   UNL     1      31.134  -5.412 -21.443  0.00  0.00    +0.005 C 
ENDBRANCH   3  13
BRANCH   1  20
ATOM     19  C   UNL     1      35.019 -17.386 -23.049  0.00  0.00    +0.139 C 
ATOM     20  C   UNL     1      34.431 -14.701 -23.467  0.00  0.00    +0.049 C 
ATOM     21  C   UNL     1      35.211 -16.470 -22.020  0.00  0.00    +0.038 C 
ATOM     22  C   UNL     1      34.535 -16.972 -24.285  0.00  0.00    +0.038 C 
ATOM     23  C   UNL     1      34.916 -15.123 -22.230  0.00  0.00    +0.018 C 
ATOM     24  C   UNL     1      34.240 -15.625 -24.495  0.00  0.00    +0.018 C 
BRANCH  19  25
ATOM     25  O   UNL     1      35.308 -18.709 -22.842  0.00  0.00    -0.473 OA
BRANCH  25  26
ATOM     26  C   UNL     1      34.480 -19.409 -21.919  0.00  0.00    +0.232 C 
BRANCH  26  27
ATOM     27  C   UNL     1      35.365 -20.088 -20.878  0.00  0.00    +0.133 C 
BRANCH  27  28
ATOM     28  O   UNL     1      36.274 -19.119 -20.348  0.00  0.00    -0.383 OA
ATOM     29  H   UNL     1      36.072 -18.964 -19.412  0.00  0.00    +0.210 HD
ENDBRANCH  27  28
BRANCH  27  30
ATOM     30  C   UNL     1      34.578 -20.692 -19.713  0.00  0.00    -0.044 C 
BRANCH  30  31
ATOM     31  N   UNL     1      35.130 -21.969 -19.281  0.00  0.00    +0.386 N 
ATOM     32  C   UNL     1      34.075 -22.838 -18.758  0.00  0.00    -0.101 C 
ATOM     33  C   UNL     1      36.169 -21.767 -18.268  0.00  0.00    -0.101 C 
ATOM     34  H   UNL     1      35.552 -22.421 -20.092  0.00  0.00    -0.080 HD
ENDBRANCH  30  31
ENDBRANCH  27  30
ENDBRANCH  26  27
ENDBRANCH  25  26
ENDBRANCH  19  25
ENDBRANCH   1  20
TORSDOF 8
ENDMDL
MODEL 4
REMARK VINA RESULT:     -10.3      6.756     10.281
REMARK  Name = 445950
REMARK  8 active torsions:
REMARK  status: ('A' for Active; 'I' for Inactive)
REMARK    1  A    between atoms: N_1  and  C_20
REMARK    2  A    between atoms: N_3  and  C_13
REMARK    3  A    between atoms: C_19  and  O_25
REMARK    4  A    between atoms: O_25  and  C_26
REMARK    5  A    between atoms: C_26  and  C_27
REMARK    6  A    between atoms: C_27  and  O_28
REMARK    7  A    between atoms: C_27  and  C_30
REMARK    8  A    between atoms: C_30  and  N_31
REMARK                            x       y       z     vdW  Elec       q    Type
REMARK                         _______ _______ _______ _____ _____    ______ ____
ROOT
ATOM      1  N   UNL     1      34.135 -13.349 -23.635  0.00  0.00    -0.301 N 
ATOM      2  H   UNL     1      34.682 -12.927 -24.336  0.00  0.00    +0.153 HD
ATOM      3  N   UNL     1      32.165  -9.006 -23.331  0.00  0.00    -0.298 N 
ATOM      4  N   UNL     1      32.393 -12.946 -22.062  0.00  0.00    -0.233 NA
ATOM      5  N   UNL     1      31.399 -10.756 -21.909  0.00  0.00    -0.233 NA
ATOM      6  C   UNL     1      33.201 -12.478 -23.041  0.00  0.00    +0.113 C 
ATOM      7  C   UNL     1      33.161 -11.172 -23.496  0.00  0.00    +0.122 C 
ATOM      8  C   UNL     1      32.233 -10.350 -22.889  0.00  0.00    +0.113 C 
ATOM      9  C   UNL     1      31.531 -12.047 -21.551  0.00  0.00    +0.252 C 
ATOM     10  H   UNL     1      32.410  -8.887 -24.277  0.00  0.00    +0.153 HD
ENDROOT
BRANCH   3  13
ATOM     11  F   UNL     1      30.220  -7.310 -24.369  0.00  0.00    -0.203 F 
ATOM     12  F   UNL     1      33.387  -8.239 -20.953  0.00  0.00    -0.203 F 
ATOM     13  C   UNL     1      31.814  -7.812 -22.681  0.00  0.00    +0.105 C 
ATOM     14  C   UNL     1      30.833  -6.976 -23.224  0.00  0.00    +0.156 C 
ATOM     15  C   UNL     1      32.445  -7.449 -21.488  0.00  0.00    +0.156 C 
ATOM     16  C   UNL     1      30.487  -5.788 -22.579  0.00  0.00    +0.031 C 
ATOM     17  C   UNL     1      32.098  -6.261 -20.843  0.00  0.00    +0.031 C 
ATOM     18  C   UNL     1      31.119  -5.432 -21.388  0.00  0.00    +0.005 C 
ENDBRANCH   3  13
BRANCH   1  20
ATOM     19  C   UNL     1      35.044 -17.393 -23.008  0.00  0.00    +0.139 C 
ATOM     20  C   UNL     1      34.441 -14.710 -23.423  0.00  0.00    +0.049 C 
ATOM     21  C   UNL     1      35.212 -16.481 -21.971  0.00  0.00    +0.038 C 
ATOM     22  C   UNL     1      34.577 -16.977 -24.249  0.00  0.00    +0.038 C 
ATOM     23  C   UNL     1      34.909 -15.135 -22.180  0.00  0.00    +0.018 C 
ATOM     24  C   UNL     1      34.275 -15.631 -24.458  0.00  0.00    +0.018 C 
BRANCH  19  25
ATOM     25  O   UNL     1      35.341 -18.714 -22.802  0.00  0.00    -0.473 OA
BRANCH  25  26
ATOM     26  C   UNL     1      34.493 -19.430 -21.909  0.00  0.00    +0.232 C 
BRANCH  26  27
ATOM     27  C   UNL     1      35.355 -20.124 -20.858  0.00  0.00    +0.133 C 
BRANCH  27  28
ATOM     28  O   UNL     1      36.265 -19.166 -20.309  0.00  0.00    -0.383 OA
ATOM     29  H   UNL     1      36.669 -19.529 -19.504  0.00  0.00    +0.210 HD
ENDBRANCH  27  28
BRANCH  27  30
ATOM     30  C   UNL     1      34.544 -20.726 -19.710  0.00  0.00    -0.044 C 
BRANCH  30  31
ATOM     31  N   UNL     1      35.100 -21.992 -19.250  0.00  0.00    +0.386 N 
ATOM     32  C   UNL     1      34.046 -22.857 -18.718  0.00  0.00    -0.101 C 
ATOM     33  C   UNL     1      36.130 -21.765 -18.234  0.00  0.00    -0.101 C 
ATOM     34  H   UNL     1      35.530 -22.457 -20.050  0.00  0.00    -0.080 HD
ENDBRANCH  30  31
ENDBRANCH  27  30
ENDBRANCH  26  27
ENDBRANCH  25  26
ENDBRANCH  19  25
ENDBRANCH   1  20
TORSDOF 8
ENDMDL
MODEL 5
REMARK VINA RESULT:     -10.3      7.912     11.788
REMARK  Name = 445950
REMARK  8 active torsions:
REMARK  status: ('A' for Active; 'I' for Inactive)
REMARK    1  A    between atoms: N_1  and  C_20
REMARK    2  A    between atoms: N_3  and  C_13
REMARK    3  A    between atoms: C_19  and  O_25
REMARK    4  A    between atoms: O_25  and  C_26
REMARK    5  A    between atoms: C_26  and  C_27
REMARK    6  A    between atoms: C_27  and  O_28
REMARK    7  A    between atoms: C_27  and  C_30
REMARK    8  A    between atoms: C_30  and  N_31
REMARK                            x       y       z     vdW  Elec       q    Type
REMARK                         _______ _______ _______ _____ _____    ______ ____
ROOT
ATOM      1  N   UNL     1      32.657 -12.319 -22.721  0.00  0.00    -0.301 N 
ATOM      2  H   UNL     1      31.771 -12.437 -22.309  0.00  0.00    +0.153 HD
ATOM      3  N   UNL     1      31.695  -7.674 -22.141  0.00  0.00    -0.298 N 
ATOM      4  N   UNL     1      34.242 -10.685 -23.420  0.00  0.00    -0.233 NA
ATOM      5  N   UNL     1      33.757  -8.343 -23.127  0.00  0.00    -0.233 NA
ATOM      6  C   UNL     1      33.042 -10.972 -22.864  0.00  0.00    +0.113 C 
ATOM      7  C   UNL     1      32.160 -10.001 -22.424  0.00  0.00    +0.122 C 
ATOM      8  C   UNL     1      32.574  -8.694 -22.582  0.00  0.00    +0.113 C 
ATOM      9  C   UNL     1      34.530  -9.374 -23.518  0.00  0.00    +0.252 C 
ATOM     10  H   UNL     1      31.126  -7.941 -21.384  0.00  0.00    +0.153 HD
ENDROOT
BRANCH   3  13
ATOM     11  F   UNL     1      32.368  -5.495 -20.549  0.00  0.00    -0.203 F 
ATOM     12  F   UNL     1      30.576  -7.136 -24.630  0.00  0.00    -0.203 F 
ATOM     13  C   UNL     1      31.479  -6.357 -22.576  0.00  0.00    +0.105 C 
ATOM     14  C   UNL     1      31.826  -5.279 -21.756  0.00  0.00    +0.156 C 
ATOM     15  C   UNL     1      30.914  -6.114 -23.831  0.00  0.00    +0.156 C 
ATOM     16  C   UNL     1      31.609  -3.969 -22.188  0.00  0.00    +0.031 C 
ATOM     17  C   UNL     1      30.698  -4.805 -24.263  0.00  0.00    +0.031 C 
ATOM     18  C   UNL     1      31.046  -3.733 -23.442  0.00  0.00    +0.005 C 
ENDBRANCH   3  13
BRANCH   1  20
ATOM     19  C   UNL     1      34.544 -15.931 -23.701  0.00  0.00    +0.139 C 
ATOM     20  C   UNL     1      33.292 -13.535 -23.052  0.00  0.00    +0.049 C 
ATOM     21  C   UNL     1      33.719 -15.311 -24.633  0.00  0.00    +0.038 C 
ATOM     22  C   UNL     1      34.750 -15.365 -22.448  0.00  0.00    +0.038 C 
ATOM     23  C   UNL     1      33.091 -14.108 -24.307  0.00  0.00    +0.018 C 
ATOM     24  C   UNL     1      34.121 -14.163 -22.122  0.00  0.00    +0.018 C 
BRANCH  19  25
ATOM     25  O   UNL     1      35.161 -17.112 -24.023  0.00  0.00    -0.473 OA
BRANCH  25  26
ATOM     26  C   UNL     1      34.525 -18.308 -23.584  0.00  0.00    +0.232 C 
BRANCH  26  27
ATOM     27  C   UNL     1      35.399 -18.972 -22.524  0.00  0.00    +0.133 C 
BRANCH  27  28
ATOM     28  O   UNL     1      36.641 -18.266 -22.447  0.00  0.00    -0.383 OA
ATOM     29  H   UNL     1      37.044 -18.416 -21.578  0.00  0.00    +0.210 HD
ENDBRANCH  27  28
BRANCH  27  30
ATOM     30  C   UNL     1      34.765 -18.978 -21.132  0.00  0.00    -0.044 C 
BRANCH  30  31
ATOM     31  N   UNL     1      34.511 -20.329 -20.651  0.00  0.00    +0.386 N 
ATOM     32  C   UNL     1      33.221 -20.398 -19.962  0.00  0.00    -0.101 C 
ATOM     33  C   UNL     1      35.586 -20.770 -19.758  0.00  0.00    -0.101 C 
ATOM     34  H   UNL     1      34.484 -20.952 -21.457  0.00  0.00    -0.080 HD
ENDBRANCH  30  31
ENDBRANCH  27  30
ENDBRANCH  26  27
ENDBRANCH  25  26
ENDBRANCH  19  25
ENDBRANCH   1  20
TORSDOF 8
ENDMDL
MODEL 6
REMARK VINA RESULT:     -10.1      4.848     11.275
REMARK  Name = 445950
REMARK  8 active torsions:
REMARK  status: ('A' for Active; 'I' for Inactive)
REMARK    1  A    between atoms: N_1  and  C_20
REMARK    2  A    between atoms: N_3  and  C_13
REMARK    3  A    between atoms: C_19  and  O_25
REMARK    4  A    between atoms: O_25  and  C_26
REMARK    5  A    between atoms: C_26  and  C_27
REMARK    6  A    between atoms: C_27  and  O_28
REMARK    7  A    between atoms: C_27  and  C_30
REMARK    8  A    between atoms: C_30  and  N_31
REMARK                            x       y       z     vdW  Elec       q    Type
REMARK                         _______ _______ _______ _____ _____    ______ ____
ROOT
ATOM      1  N   UNL     1      36.841 -20.321 -18.758  0.00  0.00    -0.301 N 
ATOM      2  H   UNL     1      37.668 -19.886 -18.445  0.00  0.00    +0.153 HD
ATOM      3  N   UNL     1      37.214 -22.726 -14.645  0.00  0.00    -0.298 N 
ATOM      4  N   UNL     1      35.208 -21.958 -18.191  0.00  0.00    -0.233 NA
ATOM      5  N   UNL     1      35.395 -23.171 -16.117  0.00  0.00    -0.233 NA
ATOM      6  C   UNL     1      36.340 -21.292 -17.869  0.00  0.00    +0.113 C 
ATOM      7  C   UNL     1      37.043 -21.515 -16.698  0.00  0.00    +0.122 C 
ATOM      8  C   UNL     1      36.520 -22.473 -15.853  0.00  0.00    +0.113 C 
ATOM      9  C   UNL     1      34.799 -22.867 -17.285  0.00  0.00    +0.252 C 
ATOM     10  H   UNL     1      37.694 -21.944 -14.292  0.00  0.00    +0.153 HD
ENDROOT
BRANCH   3  13
ATOM     11  F   UNL     1      35.349 -23.360 -12.682  0.00  0.00    -0.203 F 
ATOM     12  F   UNL     1      39.357 -24.468 -14.976  0.00  0.00    -0.203 F 
ATOM     13  C   UNL     1      37.348 -23.879 -13.854  0.00  0.00    +0.105 C 
ATOM     14  C   UNL     1      36.397 -24.174 -12.873  0.00  0.00    +0.156 C 
ATOM     15  C   UNL     1      38.436 -24.737 -14.040  0.00  0.00    +0.156 C 
ATOM     16  C   UNL     1      36.532 -25.318 -12.085  0.00  0.00    +0.031 C 
ATOM     17  C   UNL     1      38.571 -25.881 -13.252  0.00  0.00    +0.031 C 
ATOM     18  C   UNL     1      37.619 -26.171 -12.276  0.00  0.00    +0.005 C 
ENDBRANCH   3  13
BRANCH   1  20
ATOM     19  C   UNL     1      35.507 -18.915 -22.474  0.00  0.00    +0.139 C 
ATOM     20  C   UNL     1      36.392 -19.848 -20.009  0.00  0.00    +0.049 C 
ATOM     21  C   UNL     1      34.690 -19.751 -21.720  0.00  0.00    +0.038 C 
ATOM     22  C   UNL     1      36.762 -18.541 -22.007  0.00  0.00    +0.038 C 
ATOM     23  C   UNL     1      35.134 -20.219 -20.483  0.00  0.00    +0.018 C 
ATOM     24  C   UNL     1      37.206 -19.009 -20.770  0.00  0.00    +0.018 C 
BRANCH  19  25
ATOM     25  O   UNL     1      35.070 -18.455 -23.688  0.00  0.00    -0.473 OA
BRANCH  25  26
ATOM     26  C   UNL     1      34.119 -17.396 -23.667  0.00  0.00    +0.232 C 
BRANCH  26  27
ATOM     27  C   UNL     1      34.773 -16.133 -24.221  0.00  0.00    +0.133 C 
BRANCH  27  28
ATOM     28  O   UNL     1      34.009 -15.674 -25.340  0.00  0.00    -0.383 OA
ATOM     29  H   UNL     1      33.837 -16.417 -25.940  0.00  0.00    +0.210 HD
ENDBRANCH  27  28
BRANCH  27  30
ATOM     30  C   UNL     1      34.856 -14.997 -23.200  0.00  0.00    -0.044 C 
BRANCH  30  31
ATOM     31  N   UNL     1      33.627 -14.217 -23.148  0.00  0.00    +0.386 N 
ATOM     32  C   UNL     1      33.829 -12.893 -23.740  0.00  0.00    -0.101 C 
ATOM     33  C   UNL     1      33.156 -14.087 -21.767  0.00  0.00    -0.101 C 
ATOM     34  H   UNL     1      32.916 -14.710 -23.687  0.00  0.00    -0.080 HD
ENDBRANCH  30  31
ENDBRANCH  27  30
ENDBRANCH  26  27
ENDBRANCH  25  26
ENDBRANCH  19  25
ENDBRANCH   1  20
TORSDOF 8
ENDMDL
MODEL 7
REMARK VINA RESULT:      -9.9      5.718      8.916
REMARK  Name = 445950
REMARK  8 active torsions:
REMARK  status: ('A' for Active; 'I' for Inactive)
REMARK    1  A    between atoms: N_1  and  C_20
REMARK    2  A    between atoms: N_3  and  C_13
REMARK    3  A    between atoms: C_19  and  O_25
REMARK    4  A    between atoms: O_25  and  C_26
REMARK    5  A    between atoms: C_26  and  C_27
REMARK    6  A    between atoms: C_27  and  O_28
REMARK    7  A    between atoms: C_27  and  C_30
REMARK    8  A    between atoms: C_30  and  N_31
REMARK                            x       y       z     vdW  Elec       q    Type
REMARK                         _______ _______ _______ _____ _____    ______ ____
ROOT
ATOM      1  N   UNL     1      34.718 -14.834 -23.310  0.00  0.00    -0.301 N 
ATOM      2  H   UNL     1      35.271 -14.617 -24.095  0.00  0.00    +0.153 HD
ATOM      3  N   UNL     1      33.352 -10.271 -23.705  0.00  0.00    -0.298 N 
ATOM      4  N   UNL     1      33.142 -13.932 -21.769  0.00  0.00    -0.233 NA
ATOM      5  N   UNL     1      32.453 -11.631 -21.968  0.00  0.00    -0.233 NA
ATOM      6  C   UNL     1      33.943 -13.753 -22.845  0.00  0.00    +0.113 C 
ATOM      7  C   UNL     1      34.046 -12.551 -23.521  0.00  0.00    +0.122 C 
ATOM      8  C   UNL     1      33.272 -11.517 -23.035  0.00  0.00    +0.113 C 
ATOM      9  C   UNL     1      32.438 -12.848 -21.392  0.00  0.00    +0.252 C 
ATOM     10  H   UNL     1      33.553 -10.350 -24.665  0.00  0.00    +0.153 HD
ENDROOT
BRANCH   3  13
ATOM     11  F   UNL     1      30.843  -9.213 -23.141  0.00  0.00    -0.203 F 
ATOM     12  F   UNL     1      35.547  -8.599 -23.358  0.00  0.00    -0.203 F 
ATOM     13  C   UNL     1      33.200  -8.947 -23.263  0.00  0.00    +0.105 C 
ATOM     14  C   UNL     1      31.927  -8.439 -22.987  0.00  0.00    +0.156 C 
ATOM     15  C   UNL     1      34.320  -8.127 -23.099  0.00  0.00    +0.156 C 
ATOM     16  C   UNL     1      31.776  -7.122 -22.550  0.00  0.00    +0.031 C 
ATOM     17  C   UNL     1      34.168  -6.811 -22.662  0.00  0.00    +0.031 C 
ATOM     18  C   UNL     1      32.897  -6.309 -22.387  0.00  0.00    +0.005 C 
ENDBRANCH   3  13
BRANCH   1  20
ATOM     19  C   UNL     1      35.129 -18.799 -22.014  0.00  0.00    +0.139 C 
ATOM     20  C   UNL     1      34.856 -16.168 -22.873  0.00  0.00    +0.049 C 
ATOM     21  C   UNL     1      35.353 -17.756 -21.121  0.00  0.00    +0.038 C 
ATOM     22  C   UNL     1      34.769 -18.539 -23.331  0.00  0.00    +0.038 C 
ATOM     23  C   UNL     1      35.217 -16.436 -21.553  0.00  0.00    +0.018 C 
ATOM     24  C   UNL     1      34.633 -17.220 -23.762  0.00  0.00    +0.018 C 
BRANCH  19  25
ATOM     25  O   UNL     1      35.263 -20.094 -21.589  0.00  0.00    -0.473 OA
BRANCH  25  26
ATOM     26  C   UNL     1      34.742 -20.403 -20.300  0.00  0.00    +0.232 C 
BRANCH  26  27
ATOM     27  C   UNL     1      35.816 -21.129 -19.494  0.00  0.00    +0.133 C 
BRANCH  27  28
ATOM     28  O   UNL     1      36.781 -20.171 -19.050  0.00  0.00    -0.383 OA
ATOM     29  H   UNL     1      37.558 -20.633 -18.699  0.00  0.00    +0.210 HD
ENDBRANCH  27  28
BRANCH  27  30
ATOM     30  C   UNL     1      35.265 -21.857 -18.267  0.00  0.00    -0.044 C 
BRANCH  30  31
ATOM     31  N   UNL     1      33.993 -22.512 -18.544  0.00  0.00    +0.386 N 
ATOM     32  C   UNL     1      33.281 -22.806 -17.298  0.00  0.00    -0.101 C 
ATOM     33  C   UNL     1      34.201 -23.742 -19.311  0.00  0.00    -0.101 C 
ATOM     34  H   UNL     1      33.424 -21.875 -19.101  0.00  0.00    -0.080 HD
ENDBRANCH  30  31
ENDBRANCH  27  30
ENDBRANCH  26  27
ENDBRANCH  25  26
ENDBRANCH  19  25
ENDBRANCH   1  20
TORSDOF 8
ENDMDL
MODEL 8
REMARK VINA RESULT:      -9.8      2.357      3.961
REMARK  Name = 445950
REMARK  8 active torsions:
REMARK  status: ('A' for Active; 'I' for Inactive)
REMARK    1  A    between atoms: N_1  and  C_20
REMARK    2  A    between atoms: N_3  and  C_13
REMARK    3  A    between atoms: C_19  and  O_25
REMARK    4  A    between atoms: O_25  and  C_26
REMARK    5  A    between atoms: C_26  and  C_27
REMARK    6  A    between atoms: C_27  and  O_28
REMARK    7  A    between atoms: C_27  and  C_30
REMARK    8  A    between atoms: C_30  and  N_31
REMARK                            x       y       z     vdW  Elec       q    Type
REMARK                         _______ _______ _______ _____ _____    ______ ____
ROOT
ATOM      1  N   UNL     1      35.698 -21.629 -18.281  0.00  0.00    -0.301 N 
ATOM      2  H   UNL     1      36.665 -21.493 -18.405  0.00  0.00    +0.153 HD
ATOM      3  N   UNL     1      35.382 -18.958 -22.232  0.00  0.00    -0.298 N 
ATOM      4  N   UNL     1      33.561 -21.119 -19.198  0.00  0.00    -0.233 NA
ATOM      5  N   UNL     1      33.401 -19.773 -21.190  0.00  0.00    -0.233 NA
ATOM      6  C   UNL     1      34.907 -21.003 -19.264  0.00  0.00    +0.113 C 
ATOM      7  C   UNL     1      35.558 -20.293 -20.256  0.00  0.00    +0.122 C 
ATOM      8  C   UNL     1      34.748 -19.694 -21.200  0.00  0.00    +0.113 C 
ATOM      9  C   UNL     1      32.882 -20.491 -20.176  0.00  0.00    +0.252 C 
ATOM     10  H   UNL     1      36.275 -19.296 -22.468  0.00  0.00    +0.153 HD
ENDROOT
BRANCH   3  13
ATOM     11  F   UNL     1      34.197 -19.244 -24.731  0.00  0.00    -0.203 F 
ATOM     12  F   UNL     1      35.740 -16.370 -21.280  0.00  0.00    -0.203 F 
ATOM     13  C   UNL     1      34.981 -17.841 -22.982  0.00  0.00    +0.105 C 
ATOM     14  C   UNL     1      34.388 -18.012 -24.237  0.00  0.00    +0.156 C 
ATOM     15  C   UNL     1      35.174 -16.551 -22.481  0.00  0.00    +0.156 C 
ATOM     16  C   UNL     1      33.992 -16.902 -24.984  0.00  0.00    +0.031 C 
ATOM     17  C   UNL     1      34.777 -15.441 -23.228  0.00  0.00    +0.031 C 
ATOM     18  C   UNL     1      34.186 -15.617 -24.478  0.00  0.00    +0.005 C 
ENDBRANCH   3  13
BRANCH   1  20
ATOM     19  C   UNL     1      34.745 -23.964 -14.933  0.00  0.00    +0.139 C 
ATOM     20  C   UNL     1      35.378 -22.415 -17.154  0.00  0.00    +0.049 C 
ATOM     21  C   UNL     1      35.947 -23.265 -14.966  0.00  0.00    +0.038 C 
ATOM     22  C   UNL     1      33.856 -23.895 -15.999  0.00  0.00    +0.038 C 
ATOM     23  C   UNL     1      36.265 -22.488 -16.080  0.00  0.00    +0.018 C 
ATOM     24  C   UNL     1      34.173 -23.118 -17.114  0.00  0.00    +0.018 C 
BRANCH  19  25
ATOM     25  O   UNL     1      34.434 -24.726 -13.838  0.00  0.00    -0.473 OA
BRANCH  25  26
ATOM     26  C   UNL     1      33.398 -24.238 -12.991  0.00  0.00    +0.232 C 
BRANCH  26  27
ATOM     27  C   UNL     1      32.081 -24.897 -13.393  0.00  0.00    +0.133 C 
BRANCH  27  28
ATOM     28  O   UNL     1      31.620 -25.701 -12.303  0.00  0.00    -0.383 OA
ATOM     29  H   UNL     1      31.746 -26.639 -12.518  0.00  0.00    +0.210 HD
ENDBRANCH  27  28
BRANCH  27  30
ATOM     30  C   UNL     1      30.983 -23.891 -13.743  0.00  0.00    -0.044 C 
BRANCH  30  31
ATOM     31  N   UNL     1      30.358 -24.187 -15.026  0.00  0.00    +0.386 N 
ATOM     32  C   UNL     1      30.303 -22.987 -15.863  0.00  0.00    -0.101 C 
ATOM     33  C   UNL     1      29.012 -24.731 -14.832  0.00  0.00    -0.101 C 
ATOM     34  H   UNL     1      30.926 -24.888 -15.500  0.00  0.00    -0.080 HD
ENDBRANCH  30  31
ENDBRANCH  27  30
ENDBRANCH  26  27
ENDBRANCH  25  26
ENDBRANCH  19  25
ENDBRANCH   1  20
TORSDOF 8
ENDMDL
MODEL 9
REMARK VINA RESULT:      -9.8      7.401     13.589
REMARK  Name = 445950
REMARK  8 active torsions:
REMARK  status: ('A' for Active; 'I' for Inactive)
REMARK    1  A    between atoms: N_1  and  C_20
REMARK    2  A    between atoms: N_3  and  C_13
REMARK    3  A    between atoms: C_19  and  O_25
REMARK    4  A    between atoms: O_25  and  C_26
REMARK    5  A    between atoms: C_26  and  C_27
REMARK    6  A    between atoms: C_27  and  O_28
REMARK    7  A    between atoms: C_27  and  C_30
REMARK    8  A    between atoms: C_30  and  N_31
REMARK                            x       y       z     vdW  Elec       q    Type
REMARK                         _______ _______ _______ _____ _____    ______ ____
ROOT
ATOM      1  N   UNL     1      33.557 -13.870 -23.154  0.00  0.00    -0.301 N 
ATOM      2  H   UNL     1      33.548 -14.314 -24.032  0.00  0.00    +0.153 HD
ATOM      3  N   UNL     1      35.483 -17.998 -21.707  0.00  0.00    -0.298 N 
ATOM      4  N   UNL     1      34.150 -14.163 -20.866  0.00  0.00    -0.233 NA
ATOM      5  N   UNL     1      35.121 -16.244 -20.137  0.00  0.00    -0.233 NA
ATOM      6  C   UNL     1      34.086 -14.667 -22.120  0.00  0.00    +0.113 C 
ATOM      7  C   UNL     1      34.518 -15.940 -22.447  0.00  0.00    +0.122 C 
ATOM      8  C   UNL     1      35.030 -16.689 -21.407  0.00  0.00    +0.113 C 
ATOM      9  C   UNL     1      34.669 -14.991 -19.941  0.00  0.00    +0.252 C 
ATOM     10  H   UNL     1      35.825 -18.098 -22.624  0.00  0.00    +0.153 HD
ENDROOT
BRANCH   3  13
ATOM     11  F   UNL     1      33.220 -19.559 -21.294  0.00  0.00    -0.203 F 
ATOM     12  F   UNL     1      37.860 -18.868 -20.554  0.00  0.00    -0.203 F 
ATOM     13  C   UNL     1      35.538 -19.177 -20.948  0.00  0.00    +0.105 C 
ATOM     14  C   UNL     1      34.385 -19.944 -20.755  0.00  0.00    +0.156 C 
ATOM     15  C   UNL     1      36.745 -19.592 -20.378  0.00  0.00    +0.156 C 
ATOM     16  C   UNL     1      34.439 -21.115 -19.997  0.00  0.00    +0.031 C 
ATOM     17  C   UNL     1      36.799 -20.763 -19.621  0.00  0.00    +0.031 C 
ATOM     18  C   UNL     1      35.647 -21.524 -19.432  0.00  0.00    +0.005 C 
ENDBRANCH   3  13
BRANCH   1  20
ATOM     19  C   UNL     1      32.013  -9.973 -23.229  0.00  0.00    +0.139 C 
ATOM     20  C   UNL     1      33.037 -12.559 -23.179  0.00  0.00    +0.049 C 
ATOM     21  C   UNL     1      31.445 -10.923 -22.386  0.00  0.00    +0.038 C 
ATOM     22  C   UNL     1      33.089 -10.304 -24.045  0.00  0.00    +0.038 C 
ATOM     23  C   UNL     1      31.958 -12.220 -22.362  0.00  0.00    +0.018 C 
ATOM     24  C   UNL     1      33.602 -11.600 -24.020  0.00  0.00    +0.018 C 
BRANCH  19  25
ATOM     25  O   UNL     1      31.509  -8.700 -23.252  0.00  0.00    -0.473 OA
BRANCH  25  26
ATOM     26  C   UNL     1      31.877  -7.885 -24.360  0.00  0.00    +0.232 C 
BRANCH  26  27
ATOM     27  C   UNL     1      31.851  -6.421 -23.926  0.00  0.00    +0.133 C 
BRANCH  27  28
ATOM     28  O   UNL     1      30.767  -6.235 -23.012  0.00  0.00    -0.383 OA
ATOM     29  H   UNL     1      30.723  -5.302 -22.749  0.00  0.00    +0.210 HD
ENDBRANCH  27  28
BRANCH  27  30
ATOM     30  C   UNL     1      33.140  -5.971 -23.238  0.00  0.00    -0.044 C 
BRANCH  30  31
ATOM     31  N   UNL     1      33.847  -7.083 -22.616  0.00  0.00    +0.386 N 
ATOM     32  C   UNL     1      33.673  -7.058 -21.163  0.00  0.00    -0.101 C 
ATOM     33  C   UNL     1      35.271  -7.045 -22.957  0.00  0.00    -0.101 C 
ATOM     34  H   UNL     1      33.451  -7.950 -22.977  0.00  0.00    -0.080 HD
ENDBRANCH  30  31
ENDBRANCH  27  30
ENDBRANCH  26  27
ENDBRANCH  25  26
ENDBRANCH  19  25
ENDBRANCH   1  20
TORSDOF 8
ENDMDL
