MODEL 1
REMARK VINA RESULT:     -11.2      0.000      0.000
REMARK  Name = 54682555
REMARK  3 active torsions:
REMARK  status: ('A' for Active; 'I' for Inactive)
REMARK    1  A    between atoms: C_4  and  C_19
REMARK    2  A    between atoms: C_5  and  C_9
REMARK    3  A    between atoms: C_6  and  O_25
REMARK                            x       y       z     vdW  Elec       q    Type
REMARK                         _______ _______ _______ _____ _____    ______ ____
ROOT
ATOM      1  O   UNL     1      34.970 -15.913 -20.738  0.00  0.00    -0.418 OA
ATOM      2  O   UNL     1      34.568 -13.837 -19.848  0.00  0.00    -0.244 OA
ATOM      3  C   UNL     1      34.822 -16.406 -22.029  0.00  0.00    +0.182 C 
ATOM      4  C   UNL     1      34.130 -14.252 -22.169  0.00  0.00    +0.113 C 
ATOM      5  C   UNL     1      35.140 -17.668 -22.336  0.00  0.00    +0.041 C 
ATOM      6  C   UNL     1      34.308 -15.373 -22.865  0.00  0.00    +0.175 C 
ATOM      7  C   UNL     1      34.561 -14.603 -20.799  0.00  0.00    +0.349 C 
ENDROOT
BRANCH   5   9
ATOM      8  C   UNL     1      34.849 -19.586 -20.732  0.00  0.00    +0.000 C 
ATOM      9  C   UNL     1      35.668 -18.671 -21.413  0.00  0.00    +0.003 C 
ATOM     10  C   UNL     1      35.442 -20.525 -19.855  0.00  0.00    +0.000 C 
ATOM     11  C   UNL     1      37.052 -18.682 -21.232  0.00  0.00    +0.000 C 
ATOM     12  C   UNL     1      33.455 -19.590 -20.902  0.00  0.00    +0.000 C 
ATOM     13  C   UNL     1      36.836 -20.522 -19.685  0.00  0.00    +0.000 C 
ATOM     14  C   UNL     1      34.623 -21.440 -19.173  0.00  0.00    +0.000 C 
ATOM     15  C   UNL     1      37.634 -19.605 -20.370  0.00  0.00    +0.000 C 
ATOM     16  C   UNL     1      32.657 -20.506 -20.217  0.00  0.00    +0.000 C 
ATOM     17  C   UNL     1      33.239 -21.429 -19.354  0.00  0.00    +0.000 C 
ENDBRANCH   5   9
BRANCH   4  19
ATOM     18 CL   UNL     1      31.995  -8.977 -23.983  0.00  0.00    -0.082 Cl
ATOM     19  C   UNL     1      33.608 -12.961 -22.614  0.00  0.00    +0.009 C 
ATOM     20  C   UNL     1      32.414 -12.472 -22.083  0.00  0.00    +0.001 C 
ATOM     21  C   UNL     1      34.303 -12.218 -23.567  0.00  0.00    +0.001 C 
ATOM     22  C   UNL     1      31.915 -11.240 -22.506  0.00  0.00    +0.011 C 
ATOM     23  C   UNL     1      33.805 -10.986 -23.991  0.00  0.00    +0.011 C 
ATOM     24  C   UNL     1      32.610 -10.497 -23.460  0.00  0.00    +0.058 C 
ENDBRANCH   4  19
BRANCH   6  25
ATOM     25  O   UNL     1      34.020 -15.559 -24.187  0.00  0.00    -0.503 OA
ATOM     26  H   UNL     1      34.454 -15.042 -24.838  0.00  0.00    +0.292 HD
ENDBRANCH   6  25
TORSDOF 3
ENDMDL
MODEL 2
REMARK VINA RESULT:     -10.8      4.593     10.701
REMARK  Name = 54682555
REMARK  3 active torsions:
REMARK  status: ('A' for Active; 'I' for Inactive)
REMARK    1  A    between atoms: C_4  and  C_19
REMARK    2  A    between atoms: C_5  and  C_9
REMARK    3  A    between atoms: C_6  and  O_25
REMARK                            x       y       z     vdW  Elec       q    Type
REMARK                         _______ _______ _______ _____ _____    ______ ____
ROOT
ATOM      1  O   UNL     1      32.340  -9.712 -22.464  0.00  0.00    -0.418 OA
ATOM      2  O   UNL     1      31.299 -11.735 -22.168  0.00  0.00    -0.244 OA
ATOM      3  C   UNL     1      33.547  -9.377 -23.066  0.00  0.00    +0.182 C 
ATOM      4  C   UNL     1      33.434 -11.632 -23.257  0.00  0.00    +0.113 C 
ATOM      5  C   UNL     1      33.959  -8.107 -23.147  0.00  0.00    +0.041 C 
ATOM      6  C   UNL     1      34.182 -10.565 -23.530  0.00  0.00    +0.175 C 
ATOM      7  C   UNL     1      32.246 -11.078 -22.573  0.00  0.00    +0.349 C 
ENDROOT
BRANCH   5   9
ATOM      8  C   UNL     1      32.692  -5.958 -23.488  0.00  0.00    +0.000 C 
ATOM      9  C   UNL     1      33.242  -6.936 -22.644  0.00  0.00    +0.003 C 
ATOM     10  C   UNL     1      32.014  -4.855 -22.918  0.00  0.00    +0.000 C 
ATOM     11  C   UNL     1      33.126  -6.828 -21.257  0.00  0.00    +0.000 C 
ATOM     12  C   UNL     1      32.800  -6.052 -24.885  0.00  0.00    +0.000 C 
ATOM     13  C   UNL     1      31.906  -4.762 -21.521  0.00  0.00    +0.000 C 
ATOM     14  C   UNL     1      31.464  -3.876 -23.763  0.00  0.00    +0.000 C 
ATOM     15  C   UNL     1      32.459  -5.743 -20.698  0.00  0.00    +0.000 C 
ATOM     16  C   UNL     1      32.247  -5.071 -25.709  0.00  0.00    +0.000 C 
ATOM     17  C   UNL     1      31.581  -3.985 -25.149  0.00  0.00    +0.000 C 
ENDBRANCH   5   9
BRANCH   4  19
ATOM     18 CL   UNL     1      34.528 -17.398 -24.371  0.00  0.00    -0.082 Cl
ATOM     19  C   UNL     1      33.702 -13.043 -23.530  0.00  0.00    +0.009 C 
ATOM     20  C   UNL     1      34.450 -13.799 -22.627  0.00  0.00    +0.001 C 
ATOM     21  C   UNL     1      33.209 -13.634 -24.693  0.00  0.00    +0.001 C 
ATOM     22  C   UNL     1      34.706 -15.145 -22.886  0.00  0.00    +0.011 C 
ATOM     23  C   UNL     1      33.465 -14.981 -24.953  0.00  0.00    +0.011 C 
ATOM     24  C   UNL     1      34.213 -15.736 -24.050  0.00  0.00    +0.058 C 
ENDBRANCH   4  19
BRANCH   6  25
ATOM     25  O   UNL     1      35.405 -10.568 -24.137  0.00  0.00    -0.503 OA
ATOM     26  H   UNL     1      35.580 -11.170 -24.835  0.00  0.00    +0.292 HD
ENDBRANCH   6  25
TORSDOF 3
ENDMDL
MODEL 3
REMARK VINA RESULT:     -10.7      3.515      5.931
REMARK  Name = 54682555
REMARK  3 active torsions:
REMARK  status: ('A' for Active; 'I' for Inactive)
REMARK    1  A    between atoms: C_4  and  C_19
REMARK    2  A    between atoms: C_5  and  C_9
REMARK    3  A    between atoms: C_6  and  O_25
REMARK                            x       y       z     vdW  Elec       q    Type
REMARK                         _______ _______ _______ _____ _____    ______ ____
ROOT
ATOM      1  O   UNL     1      33.794 -11.008 -23.399  0.00  0.00    -0.418 OA
ATOM      2  O   UNL     1      34.713  -8.918 -23.621  0.00  0.00    -0.244 OA
ATOM      3  C   UNL     1      32.556 -11.424 -22.922  0.00  0.00    +0.182 C 
ATOM      4  C   UNL     1      32.512  -9.169 -22.701  0.00  0.00    +0.113 C 
ATOM      5  C   UNL     1      32.214 -12.717 -22.900  0.00  0.00    +0.041 C 
ATOM      6  C   UNL     1      31.811 -10.284 -22.505  0.00  0.00    +0.175 C 
ATOM      7  C   UNL     1      33.789  -9.640 -23.279  0.00  0.00    +0.349 C 
ENDROOT
BRANCH   5   9
ATOM      8  C   UNL     1      33.776 -14.644 -22.471  0.00  0.00    +0.000 C 
ATOM      9  C   UNL     1      33.042 -13.834 -23.352  0.00  0.00    +0.003 C 
ATOM     10  C   UNL     1      34.553 -15.705 -22.992  0.00  0.00    +0.000 C 
ATOM     11  C   UNL     1      33.074 -14.066 -24.728  0.00  0.00    +0.000 C 
ATOM     12  C   UNL     1      33.756 -14.424 -21.084  0.00  0.00    +0.000 C 
ATOM     13  C   UNL     1      34.574 -15.925 -24.379  0.00  0.00    +0.000 C 
ATOM     14  C   UNL     1      35.289 -16.515 -22.111  0.00  0.00    +0.000 C 
ATOM     15  C   UNL     1      33.838 -15.110 -25.240  0.00  0.00    +0.000 C 
ATOM     16  C   UNL     1      34.492 -15.238 -20.223  0.00  0.00    +0.000 C 
ATOM     17  C   UNL     1      35.257 -16.282 -20.735  0.00  0.00    +0.000 C 
ENDBRANCH   5   9
BRANCH   4  19
ATOM     18 CL   UNL     1      31.034  -3.512 -21.477  0.00  0.00    -0.082 Cl
ATOM     19  C   UNL     1      32.151  -7.784 -22.401  0.00  0.00    +0.009 C 
ATOM     20  C   UNL     1      31.219  -7.119 -23.198  0.00  0.00    +0.001 C 
ATOM     21  C   UNL     1      32.736  -7.129 -21.319  0.00  0.00    +0.001 C 
ATOM     22  C   UNL     1      30.874  -5.798 -22.913  0.00  0.00    +0.011 C 
ATOM     23  C   UNL     1      32.391  -5.808 -21.032  0.00  0.00    +0.011 C 
ATOM     24  C   UNL     1      31.460  -5.142 -21.830  0.00  0.00    +0.058 C 
ENDBRANCH   4  19
BRANCH   6  25
ATOM     25  O   UNL     1      30.564 -10.369 -21.956  0.00  0.00    -0.503 OA
ATOM     26  H   UNL     1      30.222 -11.203 -21.697  0.00  0.00    +0.292 HD
ENDBRANCH   6  25
TORSDOF 3
ENDMDL
MODEL 4
REMARK VINA RESULT:     -10.6      4.763     10.944
REMARK  Name = 54682555
REMARK  3 active torsions:
REMARK  status: ('A' for Active; 'I' for Inactive)
REMARK    1  A    between atoms: C_4  and  C_19
REMARK    2  A    between atoms: C_5  and  C_9
REMARK    3  A    between atoms: C_6  and  O_25
REMARK                            x       y       z     vdW  Elec       q    Type
REMARK                         _______ _______ _______ _____ _____    ______ ____
ROOT
ATOM      1  O   UNL     1      32.230  -9.349 -22.654  0.00  0.00    -0.418 OA
ATOM      2  O   UNL     1      31.121 -11.347 -22.460  0.00  0.00    -0.244 OA
ATOM      3  C   UNL     1      33.511  -9.046 -23.101  0.00  0.00    +0.182 C 
ATOM      4  C   UNL     1      33.379 -11.302 -23.268  0.00  0.00    +0.113 C 
ATOM      5  C   UNL     1      33.954  -7.785 -23.150  0.00  0.00    +0.041 C 
ATOM      6  C   UNL     1      34.176 -10.253 -23.460  0.00  0.00    +0.175 C 
ATOM      7  C   UNL     1      32.124 -10.715 -22.751  0.00  0.00    +0.349 C 
ENDROOT
BRANCH   5   9
ATOM      8  C   UNL     1      32.712  -5.664 -23.695  0.00  0.00    +0.000 C 
ATOM      9  C   UNL     1      33.202  -6.593 -22.763  0.00  0.00    +0.003 C 
ATOM     10  C   UNL     1      31.994  -4.535 -23.234  0.00  0.00    +0.000 C 
ATOM     11  C   UNL     1      32.986  -6.412 -21.395  0.00  0.00    +0.000 C 
ATOM     12  C   UNL     1      32.920  -5.830 -25.073  0.00  0.00    +0.000 C 
ATOM     13  C   UNL     1      31.786  -4.368 -21.855  0.00  0.00    +0.000 C 
ATOM     14  C   UNL     1      31.505  -3.605 -24.167  0.00  0.00    +0.000 C 
ATOM     15  C   UNL     1      32.279  -5.302 -20.943  0.00  0.00    +0.000 C 
ATOM     16  C   UNL     1      32.427  -4.897 -25.985  0.00  0.00    +0.000 C 
ATOM     17  C   UNL     1      31.721  -3.787 -25.533  0.00  0.00    +0.000 C 
ENDBRANCH   5   9
BRANCH   4  19
ATOM     18 CL   UNL     1      34.493 -17.105 -24.138  0.00  0.00    -0.082 Cl
ATOM     19  C   UNL     1      33.652 -12.722 -23.481  0.00  0.00    +0.009 C 
ATOM     20  C   UNL     1      33.118 -13.377 -24.591  0.00  0.00    +0.001 C 
ATOM     21  C   UNL     1      34.446 -13.424 -22.574  0.00  0.00    +0.001 C 
ATOM     22  C   UNL     1      33.377 -14.732 -24.795  0.00  0.00    +0.011 C 
ATOM     23  C   UNL     1      34.706 -14.779 -22.777  0.00  0.00    +0.011 C 
ATOM     24  C   UNL     1      34.172 -15.433 -23.887  0.00  0.00    +0.058 C 
ENDBRANCH   4  19
BRANCH   6  25
ATOM     25  O   UNL     1      35.466 -10.289 -23.905  0.00  0.00    -0.503 OA
ATOM     26  H   UNL     1      36.167 -10.436 -23.299  0.00  0.00    +0.292 HD
ENDBRANCH   6  25
TORSDOF 3
ENDMDL
MODEL 5
REMARK VINA RESULT:     -10.5      4.364     10.094
REMARK  Name = 54682555
REMARK  3 active torsions:
REMARK  status: ('A' for Active; 'I' for Inactive)
REMARK    1  A    between atoms: C_4  and  C_19
REMARK    2  A    between atoms: C_5  and  C_9
REMARK    3  A    between atoms: C_6  and  O_25
REMARK                            x       y       z     vdW  Elec       q    Type
REMARK                         _______ _______ _______ _____ _____    ______ ____
ROOT
ATOM      1  O   UNL     1      33.550  -9.846 -22.956  0.00  0.00    -0.418 OA
ATOM      2  O   UNL     1      35.059 -10.960 -24.276  0.00  0.00    -0.244 OA
ATOM      3  C   UNL     1      32.500 -10.305 -22.168  0.00  0.00    +0.182 C 
ATOM      4  C   UNL     1      33.365 -12.183 -23.098  0.00  0.00    +0.113 C 
ATOM      5  C   UNL     1      31.746  -9.465 -21.452  0.00  0.00    +0.041 C 
ATOM      6  C   UNL     1      32.417 -11.722 -22.283  0.00  0.00    +0.175 C 
ATOM      7  C   UNL     1      34.094 -10.970 -23.527  0.00  0.00    +0.349 C 
ENDROOT
BRANCH   5   9
ATOM      8  C   UNL     1      31.506  -7.156 -22.427  0.00  0.00    +0.000 C 
ATOM      9  C   UNL     1      31.899  -8.013 -21.386  0.00  0.00    +0.003 C 
ATOM     10  C   UNL     1      31.691  -5.761 -22.281  0.00  0.00    +0.000 C 
ATOM     11  C   UNL     1      32.467  -7.501 -20.218  0.00  0.00    +0.000 C 
ATOM     12  C   UNL     1      30.934  -7.654 -23.608  0.00  0.00    +0.000 C 
ATOM     13  C   UNL     1      32.263  -5.263 -21.100  0.00  0.00    +0.000 C 
ATOM     14  C   UNL     1      31.299  -4.904 -23.323  0.00  0.00    +0.000 C 
ATOM     15  C   UNL     1      32.648  -6.129 -20.076  0.00  0.00    +0.000 C 
ATOM     16  C   UNL     1      30.550  -6.789 -24.633  0.00  0.00    +0.000 C 
ATOM     17  C   UNL     1      30.732  -5.417 -24.491  0.00  0.00    +0.000 C 
ENDBRANCH   5   9
BRANCH   4  19
ATOM     18 CL   UNL     1      34.476 -17.796 -24.810  0.00  0.00    -0.082 Cl
ATOM     19  C   UNL     1      33.636 -13.556 -23.517  0.00  0.00    +0.009 C 
ATOM     20  C   UNL     1      34.441 -14.380 -22.729  0.00  0.00    +0.001 C 
ATOM     21  C   UNL     1      33.092 -14.044 -24.705  0.00  0.00    +0.001 C 
ATOM     22  C   UNL     1      34.700 -15.691 -23.128  0.00  0.00    +0.011 C 
ATOM     23  C   UNL     1      33.351 -15.355 -25.105  0.00  0.00    +0.011 C 
ATOM     24  C   UNL     1      34.155 -16.178 -24.317  0.00  0.00    +0.058 C 
ENDBRANCH   4  19
BRANCH   6  25
ATOM     25  O   UNL     1      31.461 -12.466 -21.653  0.00  0.00    -0.503 OA
ATOM     26  H   UNL     1      31.635 -13.361 -21.431  0.00  0.00    +0.292 HD
ENDBRANCH   6  25
TORSDOF 3
ENDMDL
MODEL 6
REMARK VINA RESULT:     -10.4      5.703      8.740
REMARK  Name = 54682555
REMARK  3 active torsions:
REMARK  status: ('A' for Active; 'I' for Inactive)
REMARK    1  A    between atoms: C_4  and  C_19
REMARK    2  A    between atoms: C_5  and  C_9
REMARK    3  A    between atoms: C_6  and  O_25
REMARK                            x       y       z     vdW  Elec       q    Type
REMARK                         _______ _______ _______ _____ _____    ______ ____
ROOT
ATOM      1  O   UNL     1      35.696 -22.933 -17.066  0.00  0.00    -0.418 OA
ATOM      2  O   UNL     1      34.462 -22.991 -18.999  0.00  0.00    -0.244 OA
ATOM      3  C   UNL     1      36.595 -21.993 -16.575  0.00  0.00    +0.182 C 
ATOM      4  C   UNL     1      35.937 -21.148 -18.573  0.00  0.00    +0.113 C 
ATOM      5  C   UNL     1      37.198 -22.154 -15.392  0.00  0.00    +0.041 C 
ATOM      6  C   UNL     1      36.718 -20.930 -17.516  0.00  0.00    +0.175 C 
ATOM      7  C   UNL     1      35.278 -22.438 -18.277  0.00  0.00    +0.349 C 
ENDROOT
BRANCH   5   9
ATOM      8  C   UNL     1      37.996 -24.265 -14.275  0.00  0.00    +0.000 C 
ATOM      9  C   UNL     1      37.015 -23.281 -14.479  0.00  0.00    +0.003 C 
ATOM     10  C   UNL     1      37.736 -25.323 -13.373  0.00  0.00    +0.000 C 
ATOM     11  C   UNL     1      35.795 -23.339 -13.803  0.00  0.00    +0.000 C 
ATOM     12  C   UNL     1      39.228 -24.221 -14.947  0.00  0.00    +0.000 C 
ATOM     13  C   UNL     1      36.504 -25.367 -12.701  0.00  0.00    +0.000 C 
ATOM     14  C   UNL     1      38.717 -26.308 -13.169  0.00  0.00    +0.000 C 
ATOM     15  C   UNL     1      35.541 -24.380 -12.915  0.00  0.00    +0.000 C 
ATOM     16  C   UNL     1      40.191 -25.207 -14.733  0.00  0.00    +0.000 C 
ATOM     17  C   UNL     1      39.936 -26.249 -13.846  0.00  0.00    +0.000 C 
ENDBRANCH   5   9
BRANCH   4  19
ATOM     18 CL   UNL     1      35.228 -17.838 -23.494  0.00  0.00    -0.082 Cl
ATOM     19  C   UNL     1      35.764 -20.338 -19.777  0.00  0.00    +0.009 C 
ATOM     20  C   UNL     1      34.531 -20.313 -20.429  0.00  0.00    +0.001 C 
ATOM     21  C   UNL     1      36.831 -19.590 -20.274  0.00  0.00    +0.001 C 
ATOM     22  C   UNL     1      34.365 -19.540 -21.578  0.00  0.00    +0.011 C 
ATOM     23  C   UNL     1      36.666 -18.817 -21.423  0.00  0.00    +0.011 C 
ATOM     24  C   UNL     1      35.433 -18.792 -22.075  0.00  0.00    +0.058 C 
ENDBRANCH   4  19
BRANCH   6  25
ATOM     25  O   UNL     1      37.557 -19.868 -17.335  0.00  0.00    -0.503 OA
ATOM     26  H   UNL     1      37.480 -19.112 -17.884  0.00  0.00    +0.292 HD
ENDBRANCH   6  25
TORSDOF 3
ENDMDL
MODEL 7
REMARK VINA RESULT:     -10.3      3.988      9.959
REMARK  Name = 54682555
REMARK  3 active torsions:
REMARK  status: ('A' for Active; 'I' for Inactive)
REMARK    1  A    between atoms: C_4  and  C_19
REMARK    2  A    between atoms: C_5  and  C_9
REMARK    3  A    between atoms: C_6  and  O_25
REMARK                            x       y       z     vdW  Elec       q    Type
REMARK                         _______ _______ _______ _____ _____    ______ ____
ROOT
ATOM      1  O   UNL     1      33.219 -10.402 -23.586  0.00  0.00    -0.418 OA
ATOM      2  O   UNL     1      34.967 -11.559 -24.518  0.00  0.00    -0.244 OA
ATOM      3  C   UNL     1      32.197 -10.805 -22.734  0.00  0.00    +0.182 C 
ATOM      4  C   UNL     1      33.396 -12.693 -23.103  0.00  0.00    +0.113 C 
ATOM      5  C   UNL     1      31.278  -9.942 -22.289  0.00  0.00    +0.041 C 
ATOM      6  C   UNL     1      32.335 -12.197 -22.468  0.00  0.00    +0.175 C 
ATOM      7  C   UNL     1      33.964 -11.532 -23.821  0.00  0.00    +0.349 C 
ENDROOT
BRANCH   5   9
ATOM      8  C   UNL     1      31.764  -7.523 -21.790  0.00  0.00    +0.000 C 
ATOM      9  C   UNL     1      31.207  -8.518 -22.610  0.00  0.00    +0.003 C 
ATOM     10  C   UNL     1      31.650  -6.166 -22.175  0.00  0.00    +0.000 C 
ATOM     11  C   UNL     1      30.547  -8.180 -23.792  0.00  0.00    +0.000 C 
ATOM     12  C   UNL     1      32.432  -7.845 -20.598  0.00  0.00    +0.000 C 
ATOM     13  C   UNL     1      30.983  -5.843 -23.368  0.00  0.00    +0.000 C 
ATOM     14  C   UNL     1      32.207  -5.170 -21.355  0.00  0.00    +0.000 C 
ATOM     15  C   UNL     1      30.435  -6.845 -24.170  0.00  0.00    +0.000 C 
ATOM     16  C   UNL     1      32.979  -6.844 -19.795  0.00  0.00    +0.000 C 
ATOM     17  C   UNL     1      32.866  -5.509 -20.173  0.00  0.00    +0.000 C 
ENDBRANCH   5   9
BRANCH   4  19
ATOM     18 CL   UNL     1      35.449 -18.300 -23.224  0.00  0.00    -0.082 Cl
ATOM     19  C   UNL     1      33.898 -14.065 -23.133  0.00  0.00    +0.009 C 
ATOM     20  C   UNL     1      33.753 -14.837 -24.286  0.00  0.00    +0.001 C 
ATOM     21  C   UNL     1      34.523 -14.603 -22.008  0.00  0.00    +0.001 C 
ATOM     22  C   UNL     1      34.233 -16.146 -24.315  0.00  0.00    +0.011 C 
ATOM     23  C   UNL     1      35.003 -15.913 -22.036  0.00  0.00    +0.011 C 
ATOM     24  C   UNL     1      34.858 -16.684 -23.189  0.00  0.00    +0.058 C 
ENDBRANCH   4  19
BRANCH   6  25
ATOM     25  O   UNL     1      31.460 -12.898 -21.689  0.00  0.00    -0.503 OA
ATOM     26  H   UNL     1      31.196 -13.761 -21.941  0.00  0.00    +0.292 HD
ENDBRANCH   6  25
TORSDOF 3
ENDMDL
MODEL 8
REMARK VINA RESULT:     -10.2      4.774      9.172
REMARK  Name = 54682555
REMARK  3 active torsions:
REMARK  status: ('A' for Active; 'I' for Inactive)
REMARK    1  A    between atoms: C_4  and  C_19
REMARK    2  A    between atoms: C_5  and  C_9
REMARK    3  A    between atoms: C_6  and  O_25
REMARK                            x       y       z     vdW  Elec       q    Type
REMARK                         _______ _______ _______ _____ _____    ______ ____
ROOT
ATOM      1  O   UNL     1      33.992 -20.530 -20.567  0.00  0.00    -0.418 OA
ATOM      2  O   UNL     1      32.720 -22.050 -19.411  0.00  0.00    -0.244 OA
ATOM      3  C   UNL     1      35.275 -20.043 -20.343  0.00  0.00    +0.182 C 
ATOM      4  C   UNL     1      34.912 -21.476 -18.625  0.00  0.00    +0.113 C 
ATOM      5  C   UNL     1      35.840 -19.159 -21.171  0.00  0.00    +0.041 C 
ATOM      6  C   UNL     1      35.797 -20.635 -19.158  0.00  0.00    +0.175 C 
ATOM      7  C   UNL     1      33.751 -21.408 -19.538  0.00  0.00    +0.349 C 
ENDROOT
BRANCH   5   9
ATOM      8  C   UNL     1      34.954 -17.230 -22.525  0.00  0.00    +0.000 C 
ATOM      9  C   UNL     1      35.233 -18.598 -22.377  0.00  0.00    +0.003 C 
ATOM     10  C   UNL     1      34.364 -16.770 -23.726  0.00  0.00    +0.000 C 
ATOM     11  C   UNL     1      34.935 -19.501 -23.399  0.00  0.00    +0.000 C 
ATOM     12  C   UNL     1      35.248 -16.308 -21.507  0.00  0.00    +0.000 C 
ATOM     13  C   UNL     1      34.071 -17.691 -24.744  0.00  0.00    +0.000 C 
ATOM     14  C   UNL     1      34.084 -15.401 -23.874  0.00  0.00    +0.000 C 
ATOM     15  C   UNL     1      34.355 -19.048 -24.580  0.00  0.00    +0.000 C 
ATOM     16  C   UNL     1      34.964 -14.952 -21.671  0.00  0.00    +0.000 C 
ATOM     17  C   UNL     1      34.383 -14.500 -22.851  0.00  0.00    +0.000 C 
ENDBRANCH   5   9
BRANCH   4  19
ATOM     18 CL   UNL     1      35.336 -24.755 -13.650  0.00  0.00    -0.082 Cl
ATOM     19  C   UNL     1      35.016 -22.279 -17.408  0.00  0.00    +0.009 C 
ATOM     20  C   UNL     1      36.211 -22.304 -16.688  0.00  0.00    +0.001 C 
ATOM     21  C   UNL     1      33.920 -23.019 -16.965  0.00  0.00    +0.001 C 
ATOM     22  C   UNL     1      36.311 -23.069 -15.527  0.00  0.00    +0.011 C 
ATOM     23  C   UNL     1      34.019 -23.784 -15.803  0.00  0.00    +0.011 C 
ATOM     24  C   UNL     1      35.214 -23.810 -15.084  0.00  0.00    +0.058 C 
ENDBRANCH   4  19
BRANCH   6  25
ATOM     25  O   UNL     1      37.028 -20.330 -18.652  0.00  0.00    -0.503 OA
ATOM     26  H   UNL     1      37.226 -19.449 -18.401  0.00  0.00    +0.292 HD
ENDBRANCH   6  25
TORSDOF 3
ENDMDL
MODEL 9
REMARK VINA RESULT:     -10.1      4.277      6.927
REMARK  Name = 54682555
REMARK  3 active torsions:
REMARK  status: ('A' for Active; 'I' for Inactive)
REMARK    1  A    between atoms: C_4  and  C_19
REMARK    2  A    between atoms: C_5  and  C_9
REMARK    3  A    between atoms: C_6  and  O_25
REMARK                            x       y       z     vdW  Elec       q    Type
REMARK                         _______ _______ _______ _____ _____    ______ ____
ROOT
ATOM      1  O   UNL     1      35.252 -21.468 -18.241  0.00  0.00    -0.418 OA
ATOM      2  O   UNL     1      36.888 -20.280 -19.325  0.00  0.00    -0.244 OA
ATOM      3  C   UNL     1      33.896 -21.622 -18.506  0.00  0.00    +0.182 C 
ATOM      4  C   UNL     1      34.632 -20.231 -20.138  0.00  0.00    +0.113 C 
ATOM      5  C   UNL     1      33.117 -22.392 -17.739  0.00  0.00    +0.041 C 
ATOM      6  C   UNL     1      33.558 -20.856 -19.658  0.00  0.00    +0.175 C 
ATOM      7  C   UNL     1      35.722 -20.630 -19.223  0.00  0.00    +0.349 C 
ENDROOT
BRANCH   5   9
ATOM      8  C   UNL     1      32.659 -23.569 -15.562  0.00  0.00    +0.000 C 
ATOM      9  C   UNL     1      33.546 -23.153 -16.567  0.00  0.00    +0.003 C 
ATOM     10  C   UNL     1      33.158 -24.302 -14.459  0.00  0.00    +0.000 C 
ATOM     11  C   UNL     1      34.907 -23.454 -16.486  0.00  0.00    +0.000 C 
ATOM     12  C   UNL     1      31.288 -23.275 -15.627  0.00  0.00    +0.000 C 
ATOM     13  C   UNL     1      34.529 -24.597 -14.393  0.00  0.00    +0.000 C 
ATOM     14  C   UNL     1      32.270 -24.718 -13.452  0.00  0.00    +0.000 C 
ATOM     15  C   UNL     1      35.397 -24.175 -15.402  0.00  0.00    +0.000 C 
ATOM     16  C   UNL     1      30.420 -23.696 -14.619  0.00  0.00    +0.000 C 
ATOM     17  C   UNL     1      30.911 -24.416 -13.534  0.00  0.00    +0.000 C 
ENDBRANCH   5   9
BRANCH   4  19
ATOM     18 CL   UNL     1      35.086 -16.548 -24.817  0.00  0.00    -0.082 Cl
ATOM     19  C   UNL     1      34.743 -19.330 -21.283  0.00  0.00    +0.009 C 
ATOM     20  C   UNL     1      35.229 -18.034 -21.106  0.00  0.00    +0.001 C 
ATOM     21  C   UNL     1      34.363 -19.765 -22.552  0.00  0.00    +0.001 C 
ATOM     22  C   UNL     1      35.335 -17.174 -22.199  0.00  0.00    +0.011 C 
ATOM     23  C   UNL     1      34.469 -18.905 -23.646  0.00  0.00    +0.011 C 
ATOM     24  C   UNL     1      34.956 -17.609 -23.469  0.00  0.00    +0.058 C 
ENDBRANCH   4  19
BRANCH   6  25
ATOM     25  O   UNL     1      32.287 -20.775 -20.152  0.00  0.00    -0.503 OA
ATOM     26  H   UNL     1      31.664 -21.448 -19.956  0.00  0.00    +0.292 HD
ENDBRANCH   6  25
TORSDOF 3
ENDMDL
