MODEL 1
REMARK VINA RESULT:     -12.2      0.000      0.000
REMARK  Name = 3822
REMARK  5 active torsions:
REMARK  status: ('A' for Active; 'I' for Inactive)
REMARK    1  A    between atoms: N_1  and  C_17
REMARK    2  A    between atoms: C_2  and  C_9
REMARK    3  A    between atoms: C_9  and  C_11
REMARK    4  A    between atoms: C_17  and  C_18
REMARK    5  A    between atoms: C_18  and  N_21
REMARK                            x       y       z     vdW  Elec       q    Type
REMARK                         _______ _______ _______ _____ _____    ______ ____
ROOT
ATOM      1  N   UNL     1      36.086 -20.370 -20.228  0.00  0.00    +0.388 N 
ATOM      2  C   UNL     1      35.899 -18.319 -22.322  0.00  0.00    +0.058 C 
ATOM      3  C   UNL     1      37.218 -18.677 -21.638  0.00  0.00    -0.015 C 
ATOM      4  C   UNL     1      34.868 -19.435 -22.168  0.00  0.00    -0.015 C 
ATOM      5  C   UNL     1      37.027 -19.242 -20.228  0.00  0.00    -0.077 C 
ATOM      6  C   UNL     1      34.771 -19.955 -20.731  0.00  0.00    -0.077 C 
ATOM      7  H   UNL     1      36.452 -21.089 -20.852  0.00  0.00    -0.080 HD
ENDROOT
BRANCH   2   9
ATOM      8  O   UNL     1      35.409 -16.755 -20.598  0.00  0.00    -0.291 OA
ATOM      9  C   UNL     1      35.348 -17.026 -21.795  0.00  0.00    +0.172 C 
BRANCH   9  11
ATOM     10  F   UNL     1      32.992 -13.428 -25.357  0.00  0.00    -0.204 F 
ATOM     11  C   UNL     1      34.719 -16.065 -22.746  0.00  0.00    +0.035 C 
ATOM     12  C   UNL     1      34.468 -16.479 -24.035  0.00  0.00    +0.005 C 
ATOM     13  C   UNL     1      34.412 -14.799 -22.299  0.00  0.00    +0.005 C 
ATOM     14  C   UNL     1      33.879 -15.581 -24.925  0.00  0.00    +0.030 C 
ATOM     15  C   UNL     1      33.823 -13.900 -23.189  0.00  0.00    +0.030 C 
ATOM     16  C   UNL     1      33.557 -14.291 -24.502  0.00  0.00    +0.140 C 
ENDBRANCH   9  11
ENDBRANCH   2   9
BRANCH   1  17
ATOM     17  C   UNL     1      35.964 -20.934 -18.883  0.00  0.00    -0.052 C 
BRANCH  17  18
ATOM     18  C   UNL     1      35.391 -22.342 -18.950  0.00  0.00    +0.091 C 
BRANCH  18  21
ATOM     19  O   UNL     1      35.864 -23.134 -16.336  0.00  0.00    -0.267 OA
ATOM     20  O   UNL     1      32.678 -21.909 -19.530  0.00  0.00    -0.246 OA
ATOM     21  N   UNL     1      34.334 -22.520 -17.994  0.00  0.00    -0.251 N 
ATOM     22  N   UNL     1      32.021 -22.466 -17.423  0.00  0.00    -0.306 N 
ATOM     23  C   UNL     1      34.705 -22.930 -16.689  0.00  0.00    +0.265 A 
ATOM     24  C   UNL     1      32.991 -22.274 -18.394  0.00  0.00    +0.330 A 
ATOM     25  C   UNL     1      33.609 -23.111 -15.716  0.00  0.00    +0.072 A 
ATOM     26  C   UNL     1      32.298 -22.873 -16.116  0.00  0.00    +0.065 A 
ATOM     27  C   UNL     1      33.879 -23.518 -14.406  0.00  0.00    +0.006 C 
ATOM     28  C   UNL     1      31.247 -23.039 -15.210  0.00  0.00    +0.017 C 
ATOM     29  C   UNL     1      32.829 -23.685 -13.501  0.00  0.00    +0.000 C 
ATOM     30  C   UNL     1      31.515 -23.445 -13.903  0.00  0.00    +0.001 C 
ATOM     31  H   UNL     1      31.081 -22.304 -17.670  0.00  0.00    +0.170 HD
ENDBRANCH  18  21
ENDBRANCH  17  18
ENDBRANCH   1  17
TORSDOF 5
ENDMDL
MODEL 2
REMARK VINA RESULT:     -12.1      0.694      1.817
REMARK  Name = 3822
REMARK  5 active torsions:
REMARK  status: ('A' for Active; 'I' for Inactive)
REMARK    1  A    between atoms: N_1  and  C_17
REMARK    2  A    between atoms: C_2  and  C_9
REMARK    3  A    between atoms: C_9  and  C_11
REMARK    4  A    between atoms: C_17  and  C_18
REMARK    5  A    between atoms: C_18  and  N_21
REMARK                            x       y       z     vdW  Elec       q    Type
REMARK                         _______ _______ _______ _____ _____    ______ ____
ROOT
ATOM      1  N   UNL     1      36.094 -20.422 -20.183  0.00  0.00    +0.388 N 
ATOM      2  C   UNL     1      35.856 -18.397 -22.296  0.00  0.00    +0.058 C 
ATOM      3  C   UNL     1      37.195 -18.763 -21.657  0.00  0.00    -0.015 C 
ATOM      4  C   UNL     1      34.817 -19.498 -22.089  0.00  0.00    -0.015 C 
ATOM      5  C   UNL     1      37.048 -19.307 -20.233  0.00  0.00    -0.077 C 
ATOM      6  C   UNL     1      34.767 -19.998 -20.642  0.00  0.00    -0.077 C 
ATOM      7  H   UNL     1      36.428 -21.155 -20.810  0.00  0.00    -0.080 HD
ENDROOT
BRANCH   2   9
ATOM      8  O   UNL     1      35.418 -16.819 -20.572  0.00  0.00    -0.291 OA
ATOM      9  C   UNL     1      35.340 -17.090 -21.767  0.00  0.00    +0.172 C 
BRANCH   9  11
ATOM     10  F   UNL     1      33.048 -13.441 -25.318  0.00  0.00    -0.204 F 
ATOM     11  C   UNL     1      34.729 -16.116 -22.716  0.00  0.00    +0.035 C 
ATOM     12  C   UNL     1      34.474 -16.520 -24.007  0.00  0.00    +0.005 C 
ATOM     13  C   UNL     1      34.439 -14.847 -22.264  0.00  0.00    +0.005 C 
ATOM     14  C   UNL     1      33.902 -15.609 -24.894  0.00  0.00    +0.030 C 
ATOM     15  C   UNL     1      33.867 -13.936 -23.151  0.00  0.00    +0.030 C 
ATOM     16  C   UNL     1      33.598 -14.316 -24.466  0.00  0.00    +0.140 C 
ENDBRANCH   9  11
ENDBRANCH   2   9
BRANCH   1  17
ATOM     17  C   UNL     1      36.015 -20.967 -18.826  0.00  0.00    -0.052 C 
BRANCH  17  18
ATOM     18  C   UNL     1      35.326 -22.323 -18.840  0.00  0.00    +0.091 C 
BRANCH  18  21
ATOM     19  O   UNL     1      32.560 -22.370 -18.660  0.00  0.00    -0.267 OA
ATOM     20  O   UNL     1      36.629 -22.817 -16.402  0.00  0.00    -0.246 OA
ATOM     21  N   UNL     1      34.636 -22.569 -17.604  0.00  0.00    -0.251 N 
ATOM     22  N   UNL     1      34.669 -23.037 -15.267  0.00  0.00    -0.306 N 
ATOM     23  C   UNL     1      33.219 -22.565 -17.641  0.00  0.00    +0.265 A 
ATOM     24  C   UNL     1      35.395 -22.808 -16.425  0.00  0.00    +0.330 A 
ATOM     25  C   UNL     1      32.523 -22.818 -16.365  0.00  0.00    +0.072 A 
ATOM     26  C   UNL     1      33.272 -23.046 -15.214  0.00  0.00    +0.065 A 
ATOM     27  C   UNL     1      31.127 -22.829 -16.304  0.00  0.00    +0.006 C 
ATOM     28  C   UNL     1      32.632 -23.286 -13.996  0.00  0.00    +0.017 C 
ATOM     29  C   UNL     1      30.487 -23.069 -15.087  0.00  0.00    +0.000 C 
ATOM     30  C   UNL     1      31.239 -23.298 -13.935  0.00  0.00    +0.001 C 
ATOM     31  H   UNL     1      35.166 -23.204 -14.434  0.00  0.00    +0.170 HD
ENDBRANCH  18  21
ENDBRANCH  17  18
ENDBRANCH   1  17
TORSDOF 5
ENDMDL
MODEL 3
REMARK VINA RESULT:     -11.1      1.048      1.667
REMARK  Name = 3822
REMARK  5 active torsions:
REMARK  status: ('A' for Active; 'I' for Inactive)
REMARK    1  A    between atoms: N_1  and  C_17
REMARK    2  A    between atoms: C_2  and  C_9
REMARK    3  A    between atoms: C_9  and  C_11
REMARK    4  A    between atoms: C_17  and  C_18
REMARK    5  A    between atoms: C_18  and  N_21
REMARK                            x       y       z     vdW  Elec       q    Type
REMARK                         _______ _______ _______ _____ _____    ______ ____
ROOT
ATOM      1  N   UNL     1      36.087 -20.419 -20.262  0.00  0.00    +0.388 N 
ATOM      2  C   UNL     1      35.868 -18.312 -22.296  0.00  0.00    +0.058 C 
ATOM      3  C   UNL     1      37.196 -18.678 -21.632  0.00  0.00    -0.015 C 
ATOM      4  C   UNL     1      34.847 -19.440 -22.165  0.00  0.00    -0.015 C 
ATOM      5  C   UNL     1      37.019 -19.284 -20.237  0.00  0.00    -0.077 C 
ATOM      6  C   UNL     1      34.765 -20.001 -20.743  0.00  0.00    -0.077 C 
ATOM      7  H   UNL     1      36.454 -21.117 -20.908  0.00  0.00    -0.080 HD
ENDROOT
BRANCH   2   9
ATOM      8  O   UNL     1      35.346 -16.817 -20.521  0.00  0.00    -0.291 OA
ATOM      9  C   UNL     1      35.311 -17.038 -21.729  0.00  0.00    +0.172 C 
BRANCH   9  11
ATOM     10  F   UNL     1      33.058 -13.287 -25.197  0.00  0.00    -0.204 F 
ATOM     11  C   UNL     1      34.709 -16.037 -22.654  0.00  0.00    +0.035 C 
ATOM     12  C   UNL     1      34.421 -14.780 -22.172  0.00  0.00    +0.005 C 
ATOM     13  C   UNL     1      34.465 -16.406 -23.959  0.00  0.00    +0.005 C 
ATOM     14  C   UNL     1      33.858 -13.843 -23.038  0.00  0.00    +0.030 C 
ATOM     15  C   UNL     1      33.902 -15.468 -24.825  0.00  0.00    +0.030 C 
ATOM     16  C   UNL     1      33.598 -14.187 -24.365  0.00  0.00    +0.140 C 
ENDBRANCH   9  11
ENDBRANCH   2   9
BRANCH   1  17
ATOM     17  C   UNL     1      35.981 -21.021 -18.932  0.00  0.00    -0.052 C 
BRANCH  17  18
ATOM     18  C   UNL     1      34.911 -22.103 -18.927  0.00  0.00    +0.091 C 
BRANCH  18  21
ATOM     19  O   UNL     1      36.858 -22.409 -16.977  0.00  0.00    -0.267 OA
ATOM     20  O   UNL     1      32.311 -22.673 -18.031  0.00  0.00    -0.246 OA
ATOM     21  N   UNL     1      34.604 -22.525 -17.587  0.00  0.00    -0.251 N 
ATOM     22  N   UNL     1      33.024 -23.192 -15.933  0.00  0.00    -0.306 N 
ATOM     23  C   UNL     1      35.689 -22.646 -16.683  0.00  0.00    +0.265 A 
ATOM     24  C   UNL     1      33.251 -22.788 -17.239  0.00  0.00    +0.330 A 
ATOM     25  C   UNL     1      35.360 -23.081 -15.311  0.00  0.00    +0.072 A 
ATOM     26  C   UNL     1      34.034 -23.342 -14.979  0.00  0.00    +0.065 A 
ATOM     27  C   UNL     1      36.365 -23.233 -14.352  0.00  0.00    +0.006 C 
ATOM     28  C   UNL     1      33.703 -23.756 -13.686  0.00  0.00    +0.017 C 
ATOM     29  C   UNL     1      36.035 -23.647 -13.060  0.00  0.00    +0.000 C 
ATOM     30  C   UNL     1      34.705 -23.907 -12.728  0.00  0.00    +0.001 C 
ATOM     31  H   UNL     1      32.098 -23.383 -15.661  0.00  0.00    +0.170 HD
ENDBRANCH  18  21
ENDBRANCH  17  18
ENDBRANCH   1  17
TORSDOF 5
ENDMDL
MODEL 4
REMARK VINA RESULT:     -11.0      3.949      9.048
REMARK  Name = 3822
REMARK  5 active torsions:
REMARK  status: ('A' for Active; 'I' for Inactive)
REMARK    1  A    between atoms: N_1  and  C_17
REMARK    2  A    between atoms: C_2  and  C_9
REMARK    3  A    between atoms: C_9  and  C_11
REMARK    4  A    between atoms: C_17  and  C_18
REMARK    5  A    between atoms: C_18  and  N_21
REMARK                            x       y       z     vdW  Elec       q    Type
REMARK                         _______ _______ _______ _____ _____    ______ ____
ROOT
ATOM      1  N   UNL     1      33.288 -23.235 -13.915  0.00  0.00    +0.388 N 
ATOM      2  C   UNL     1      30.704 -24.440 -13.212  0.00  0.00    +0.058 C 
ATOM      3  C   UNL     1      32.031 -25.170 -13.012  0.00  0.00    -0.015 C 
ATOM      4  C   UNL     1      30.906 -22.929 -13.322  0.00  0.00    -0.015 C 
ATOM      5  C   UNL     1      33.125 -24.694 -13.971  0.00  0.00    -0.077 C 
ATOM      6  C   UNL     1      32.040 -22.554 -14.280  0.00  0.00    -0.077 C 
ATOM      7  H   UNL     1      33.521 -22.978 -12.955  0.00  0.00    -0.080 HD
ENDROOT
BRANCH   2   9
ATOM      8  O   UNL     1      30.181 -26.091 -14.842  0.00  0.00    -0.291 OA
ATOM      9  C   UNL     1      29.976 -24.956 -14.420  0.00  0.00    +0.172 C 
BRANCH   9  11
ATOM     10  F   UNL     1      26.298 -21.635 -16.994  0.00  0.00    -0.204 F 
ATOM     11  C   UNL     1      28.995 -24.069 -15.107  0.00  0.00    +0.035 C 
ATOM     12  C   UNL     1      28.795 -24.228 -16.460  0.00  0.00    +0.005 C 
ATOM     13  C   UNL     1      28.323 -23.125 -14.363  0.00  0.00    +0.005 C 
ATOM     14  C   UNL     1      27.876 -23.398 -17.103  0.00  0.00    +0.030 C 
ATOM     15  C   UNL     1      27.405 -22.295 -15.006  0.00  0.00    +0.030 C 
ATOM     16  C   UNL     1      27.181 -22.431 -16.376  0.00  0.00    +0.140 C 
ENDBRANCH   9  11
ENDBRANCH   2   9
BRANCH   1  17
ATOM     17  C   UNL     1      34.379 -22.808 -14.792  0.00  0.00    -0.052 C 
BRANCH  17  18
ATOM     18  C   UNL     1      34.359 -23.607 -16.087  0.00  0.00    +0.091 C 
BRANCH  18  21
ATOM     19  O   UNL     1      36.534 -22.367 -17.276  0.00  0.00    -0.267 OA
ATOM     20  O   UNL     1      31.907 -23.033 -17.330  0.00  0.00    -0.246 OA
ATOM     21  N   UNL     1      34.227 -22.744 -17.229  0.00  0.00    -0.251 N 
ATOM     22  N   UNL     1      32.879 -21.678 -18.879  0.00  0.00    -0.306 N 
ATOM     23  C   UNL     1      35.415 -22.168 -17.744  0.00  0.00    +0.265 A 
ATOM     24  C   UNL     1      32.936 -22.521 -17.781  0.00  0.00    +0.330 A 
ATOM     25  C   UNL     1      35.266 -21.283 -18.916  0.00  0.00    +0.072 A 
ATOM     26  C   UNL     1      33.999 -21.065 -19.448  0.00  0.00    +0.065 A 
ATOM     27  C   UNL     1      36.382 -20.666 -19.490  0.00  0.00    +0.006 C 
ATOM     28  C   UNL     1      33.837 -20.229 -20.557  0.00  0.00    +0.017 C 
ATOM     29  C   UNL     1      36.220 -19.831 -20.597  0.00  0.00    +0.000 C 
ATOM     30  C   UNL     1      34.950 -19.614 -21.130  0.00  0.00    +0.001 C 
ATOM     31  H   UNL     1      31.999 -21.502 -19.284  0.00  0.00    +0.170 HD
ENDBRANCH  18  21
ENDBRANCH  17  18
ENDBRANCH   1  17
TORSDOF 5
ENDMDL
MODEL 5
REMARK VINA RESULT:     -11.0      4.172      9.311
REMARK  Name = 3822
REMARK  5 active torsions:
REMARK  status: ('A' for Active; 'I' for Inactive)
REMARK    1  A    between atoms: N_1  and  C_17
REMARK    2  A    between atoms: C_2  and  C_9
REMARK    3  A    between atoms: C_9  and  C_11
REMARK    4  A    between atoms: C_17  and  C_18
REMARK    5  A    between atoms: C_18  and  N_21
REMARK                            x       y       z     vdW  Elec       q    Type
REMARK                         _______ _______ _______ _____ _____    ______ ____
ROOT
ATOM      1  N   UNL     1      35.160 -17.411 -23.229  0.00  0.00    +0.388 N 
ATOM      2  C   UNL     1      35.519 -19.885 -21.687  0.00  0.00    +0.058 C 
ATOM      3  C   UNL     1      35.108 -19.887 -23.159  0.00  0.00    -0.015 C 
ATOM      4  C   UNL     1      36.179 -18.564 -21.292  0.00  0.00    -0.015 C 
ATOM      5  C   UNL     1      34.381 -18.606 -23.578  0.00  0.00    -0.077 C 
ATOM      6  C   UNL     1      35.395 -17.343 -21.782  0.00  0.00    -0.077 C 
ATOM      7  H   UNL     1      36.065 -17.474 -23.695  0.00  0.00    -0.080 HD
ENDROOT
BRANCH   2   9
ATOM      8  O   UNL     1      33.235 -19.707 -21.048  0.00  0.00    -0.291 OA
ATOM      9  C   UNL     1      34.346 -20.166 -20.794  0.00  0.00    +0.172 C 
BRANCH   9  11
ATOM     10  F   UNL     1      35.083 -23.351 -16.267  0.00  0.00    -0.204 F 
ATOM     11  C   UNL     1      34.543 -21.017 -19.586  0.00  0.00    +0.035 C 
ATOM     12  C   UNL     1      35.810 -21.136 -19.061  0.00  0.00    +0.005 C 
ATOM     13  C   UNL     1      33.449 -21.651 -19.039  0.00  0.00    +0.005 C 
ATOM     14  C   UNL     1      35.994 -21.932 -17.930  0.00  0.00    +0.030 C 
ATOM     15  C   UNL     1      33.634 -22.446 -17.908  0.00  0.00    +0.030 C 
ATOM     16  C   UNL     1      34.906 -22.587 -17.353  0.00  0.00    +0.140 C 
ENDBRANCH   9  11
ENDBRANCH   2   9
BRANCH   1  17
ATOM     17  C   UNL     1      34.477 -16.202 -23.693  0.00  0.00    -0.052 C 
BRANCH  17  18
ATOM     18  C   UNL     1      35.043 -14.975 -22.994  0.00  0.00    +0.091 C 
BRANCH  18  21
ATOM     19  O   UNL     1      34.413 -14.171 -20.417  0.00  0.00    -0.267 OA
ATOM     20  O   UNL     1      33.499 -13.726 -24.981  0.00  0.00    -0.246 OA
ATOM     21  N   UNL     1      34.012 -14.013 -22.715  0.00  0.00    -0.251 N 
ATOM     22  N   UNL     1      32.308 -12.522 -23.459  0.00  0.00    -0.306 N 
ATOM     23  C   UNL     1      33.783 -13.686 -21.355  0.00  0.00    +0.265 A 
ATOM     24  C   UNL     1      33.289 -13.441 -23.798  0.00  0.00    +0.330 A 
ATOM     25  C   UNL     1      32.721 -12.699 -21.082  0.00  0.00    +0.072 A 
ATOM     26  C   UNL     1      32.015 -12.147 -22.146  0.00  0.00    +0.065 A 
ATOM     27  C   UNL     1      32.422 -12.318 -19.770  0.00  0.00    +0.006 C 
ATOM     28  C   UNL     1      31.004 -11.211 -21.908  0.00  0.00    +0.017 C 
ATOM     29  C   UNL     1      31.412 -11.383 -19.532  0.00  0.00    +0.000 C 
ATOM     30  C   UNL     1      30.706 -10.830 -20.600  0.00  0.00    +0.001 C 
ATOM     31  H   UNL     1      31.789 -12.110 -24.187  0.00  0.00    +0.170 HD
ENDBRANCH  18  21
ENDBRANCH  17  18
ENDBRANCH   1  17
TORSDOF 5
ENDMDL
MODEL 6
REMARK VINA RESULT:     -11.0      5.690      9.311
REMARK  Name = 3822
REMARK  5 active torsions:
REMARK  status: ('A' for Active; 'I' for Inactive)
REMARK    1  A    between atoms: N_1  and  C_17
REMARK    2  A    between atoms: C_2  and  C_9
REMARK    3  A    between atoms: C_9  and  C_11
REMARK    4  A    between atoms: C_17  and  C_18
REMARK    5  A    between atoms: C_18  and  N_21
REMARK                            x       y       z     vdW  Elec       q    Type
REMARK                         _______ _______ _______ _____ _____    ______ ____
ROOT
ATOM      1  N   UNL     1      32.367 -11.948 -22.566  0.00  0.00    +0.388 N 
ATOM      2  C   UNL     1      31.550  -9.147 -22.900  0.00  0.00    +0.058 C 
ATOM      3  C   UNL     1      32.255  -9.934 -24.005  0.00  0.00    -0.015 C 
ATOM      4  C   UNL     1      30.903 -10.077 -21.875  0.00  0.00    -0.015 C 
ATOM      5  C   UNL     1      33.128 -11.070 -23.465  0.00  0.00    -0.077 C 
ATOM      6  C   UNL     1      31.843 -11.197 -21.419  0.00  0.00    -0.077 C 
ATOM      7  H   UNL     1      31.575 -12.326 -23.087  0.00  0.00    -0.080 HD
ENDROOT
BRANCH   2   9
ATOM      8  O   UNL     1      32.501  -8.085 -20.997  0.00  0.00    -0.291 OA
ATOM      9  C   UNL     1      32.495  -8.200 -22.220  0.00  0.00    +0.172 C 
BRANCH   9  11
ATOM     10  F   UNL     1      36.018  -5.182 -25.327  0.00  0.00    -0.204 F 
ATOM     11  C   UNL     1      33.435  -7.394 -23.050  0.00  0.00    +0.035 C 
ATOM     12  C   UNL     1      32.919  -6.576 -24.029  0.00  0.00    +0.005 C 
ATOM     13  C   UNL     1      34.787  -7.498 -22.805  0.00  0.00    +0.005 C 
ATOM     14  C   UNL     1      33.799  -5.822 -24.805  0.00  0.00    +0.030 C 
ATOM     15  C   UNL     1      35.667  -6.744 -23.581  0.00  0.00    +0.030 C 
ATOM     16  C   UNL     1      35.174  -5.906 -24.581  0.00  0.00    +0.140 C 
ENDBRANCH   9  11
ENDBRANCH   2   9
BRANCH   1  17
ATOM     17  C   UNL     1      33.202 -13.060 -22.110  0.00  0.00    -0.052 C 
BRANCH  17  18
ATOM     18  C   UNL     1      34.219 -13.430 -23.180  0.00  0.00    +0.091 C 
BRANCH  18  21
ATOM     19  O   UNL     1      35.076 -14.958 -21.031  0.00  0.00    -0.267 OA
ATOM     20  O   UNL     1      33.708 -14.925 -25.502  0.00  0.00    -0.246 OA
ATOM     21  N   UNL     1      34.390 -14.854 -23.264  0.00  0.00    -0.251 N 
ATOM     22  N   UNL     1      34.291 -16.887 -24.505  0.00  0.00    -0.306 N 
ATOM     23  C   UNL     1      34.836 -15.522 -22.096  0.00  0.00    +0.265 A 
ATOM     24  C   UNL     1      34.103 -15.514 -24.491  0.00  0.00    +0.330 A 
ATOM     25  C   UNL     1      35.010 -16.985 -22.197  0.00  0.00    +0.072 A 
ATOM     26  C   UNL     1      34.732 -17.622 -23.402  0.00  0.00    +0.065 A 
ATOM     27  C   UNL     1      35.451 -17.727 -21.097  0.00  0.00    +0.006 C 
ATOM     28  C   UNL     1      34.891 -19.006 -23.517  0.00  0.00    +0.017 C 
ATOM     29  C   UNL     1      35.610 -19.110 -21.212  0.00  0.00    +0.000 C 
ATOM     30  C   UNL     1      35.330 -19.747 -22.421  0.00  0.00    +0.001 C 
ATOM     31  H   UNL     1      34.102 -17.371 -25.341  0.00  0.00    +0.170 HD
ENDBRANCH  18  21
ENDBRANCH  17  18
ENDBRANCH   1  17
TORSDOF 5
ENDMDL
MODEL 7
REMARK VINA RESULT:     -10.9      4.131      9.786
REMARK  Name = 3822
REMARK  5 active torsions:
REMARK  status: ('A' for Active; 'I' for Inactive)
REMARK    1  A    between atoms: N_1  and  C_17
REMARK    2  A    between atoms: C_2  and  C_9
REMARK    3  A    between atoms: C_9  and  C_11
REMARK    4  A    between atoms: C_17  and  C_18
REMARK    5  A    between atoms: C_18  and  N_21
REMARK                            x       y       z     vdW  Elec       q    Type
REMARK                         _______ _______ _______ _____ _____    ______ ____
ROOT
ATOM      1  N   UNL     1      35.193 -16.979 -22.900  0.00  0.00    +0.388 N 
ATOM      2  C   UNL     1      35.512 -19.677 -21.785  0.00  0.00    +0.058 C 
ATOM      3  C   UNL     1      35.093 -19.432 -23.234  0.00  0.00    -0.015 C 
ATOM      4  C   UNL     1      36.200 -18.451 -21.186  0.00  0.00    -0.015 C 
ATOM      5  C   UNL     1      34.389 -18.086 -23.433  0.00  0.00    -0.077 C 
ATOM      6  C   UNL     1      35.438 -17.152 -21.464  0.00  0.00    -0.077 C 
ATOM      7  H   UNL     1      36.095 -16.982 -23.378  0.00  0.00    -0.080 HD
ENDROOT
BRANCH   2   9
ATOM      8  O   UNL     1      33.200 -19.721 -21.231  0.00  0.00    -0.291 OA
ATOM      9  C   UNL     1      34.338 -20.078 -20.940  0.00  0.00    +0.172 C 
BRANCH   9  11
ATOM     10  F   UNL     1      35.208 -23.243 -16.423  0.00  0.00    -0.204 F 
ATOM     11  C   UNL     1      34.570 -20.923 -19.734  0.00  0.00    +0.035 C 
ATOM     12  C   UNL     1      33.497 -21.571 -19.163  0.00  0.00    +0.005 C 
ATOM     13  C   UNL     1      35.850 -21.026 -19.235  0.00  0.00    +0.005 C 
ATOM     14  C   UNL     1      33.714 -22.361 -18.035  0.00  0.00    +0.030 C 
ATOM     15  C   UNL     1      36.067 -21.816 -18.107  0.00  0.00    +0.030 C 
ATOM     16  C   UNL     1      35.000 -22.484 -17.506  0.00  0.00    +0.140 C 
ENDBRANCH   9  11
ENDBRANCH   2   9
BRANCH   1  17
ATOM     17  C   UNL     1      34.532 -15.698 -23.155  0.00  0.00    -0.052 C 
BRANCH  17  18
ATOM     18  C   UNL     1      34.922 -14.682 -22.093  0.00  0.00    +0.091 C 
BRANCH  18  21
ATOM     19  O   UNL     1      34.584 -12.500 -23.770  0.00  0.00    -0.267 OA
ATOM     20  O   UNL     1      33.042 -14.811 -20.010  0.00  0.00    -0.246 OA
ATOM     21  N   UNL     1      33.882 -13.709 -21.896  0.00  0.00    -0.251 N 
ATOM     22  N   UNL     1      32.004 -12.898 -20.674  0.00  0.00    -0.306 N 
ATOM     23  C   UNL     1      33.815 -12.638 -22.822  0.00  0.00    +0.265 A 
ATOM     24  C   UNL     1      32.981 -13.871 -20.807  0.00  0.00    +0.330 A 
ATOM     25  C   UNL     1      32.744 -11.645 -22.608  0.00  0.00    +0.072 A 
ATOM     26  C   UNL     1      31.869 -11.807 -21.537  0.00  0.00    +0.065 A 
ATOM     27  C   UNL     1      32.603 -10.552 -23.468  0.00  0.00    +0.006 C 
ATOM     28  C   UNL     1      30.849 -10.878 -21.318  0.00  0.00    +0.017 C 
ATOM     29  C   UNL     1      31.584  -9.623 -23.248  0.00  0.00    +0.000 C 
ATOM     30  C   UNL     1      30.708  -9.787 -22.175  0.00  0.00    +0.001 C 
ATOM     31  H   UNL     1      31.366 -12.981 -19.929  0.00  0.00    +0.170 HD
ENDBRANCH  18  21
ENDBRANCH  17  18
ENDBRANCH   1  17
TORSDOF 5
ENDMDL
MODEL 8
REMARK VINA RESULT:     -10.9      6.166     10.042
REMARK  Name = 3822
REMARK  5 active torsions:
REMARK  status: ('A' for Active; 'I' for Inactive)
REMARK    1  A    between atoms: N_1  and  C_17
REMARK    2  A    between atoms: C_2  and  C_9
REMARK    3  A    between atoms: C_9  and  C_11
REMARK    4  A    between atoms: C_17  and  C_18
REMARK    5  A    between atoms: C_18  and  N_21
REMARK                            x       y       z     vdW  Elec       q    Type
REMARK                         _______ _______ _______ _____ _____    ______ ____
ROOT
ATOM      1  N   UNL     1      32.803 -11.548 -22.517  0.00  0.00    +0.388 N 
ATOM      2  C   UNL     1      32.303  -8.719 -21.904  0.00  0.00    +0.058 C 
ATOM      3  C   UNL     1      31.809  -9.853 -21.006  0.00  0.00    -0.015 C 
ATOM      4  C   UNL     1      33.447  -9.177 -22.807  0.00  0.00    -0.015 C 
ATOM      5  C   UNL     1      31.600 -11.167 -21.764  0.00  0.00    -0.077 C 
ATOM      6  C   UNL     1      33.157 -10.513 -23.496  0.00  0.00    -0.077 C 
ATOM      7  H   UNL     1      33.575 -11.638 -21.857  0.00  0.00    -0.080 HD
ENDROOT
BRANCH   2   9
ATOM      8  O   UNL     1      30.383  -8.893 -23.298  0.00  0.00    -0.291 OA
ATOM      9  C   UNL     1      31.184  -8.154 -22.730  0.00  0.00    +0.172 C 
BRANCH   9  11
ATOM     10  F   UNL     1      30.689  -2.612 -23.196  0.00  0.00    -0.204 F 
ATOM     11  C   UNL     1      31.052  -6.674 -22.855  0.00  0.00    +0.035 C 
ATOM     12  C   UNL     1      31.017  -6.117 -24.113  0.00  0.00    +0.005 C 
ATOM     13  C   UNL     1      30.969  -5.919 -21.706  0.00  0.00    +0.005 C 
ATOM     14  C   UNL     1      30.893  -4.732 -24.230  0.00  0.00    +0.030 C 
ATOM     15  C   UNL     1      30.845  -4.535 -21.822  0.00  0.00    +0.030 C 
ATOM     16  C   UNL     1      30.808  -3.941 -23.084  0.00  0.00    +0.140 C 
ENDBRANCH   9  11
ENDBRANCH   2   9
BRANCH   1  17
ATOM     17  C   UNL     1      32.602 -12.835 -23.183  0.00  0.00    -0.052 C 
BRANCH  17  18
ATOM     18  C   UNL     1      33.857 -13.237 -23.944  0.00  0.00    +0.091 C 
BRANCH  18  21
ATOM     19  O   UNL     1      34.979 -14.341 -21.662  0.00  0.00    -0.267 OA
ATOM     20  O   UNL     1      33.267 -15.120 -25.942  0.00  0.00    -0.246 OA
ATOM     21  N   UNL     1      34.116 -14.645 -23.814  0.00  0.00    -0.251 N 
ATOM     22  N   UNL     1      34.055 -16.856 -24.699  0.00  0.00    -0.306 N 
ATOM     23  C   UNL     1      34.695 -15.086 -22.598  0.00  0.00    +0.265 A 
ATOM     24  C   UNL     1      33.778 -15.512 -24.889  0.00  0.00    +0.330 A 
ATOM     25  C   UNL     1      34.958 -16.533 -22.478  0.00  0.00    +0.072 A 
ATOM     26  C   UNL     1      34.629 -17.375 -23.536  0.00  0.00    +0.065 A 
ATOM     27  C   UNL     1      35.531 -17.060 -21.316  0.00  0.00    +0.006 C 
ATOM     28  C   UNL     1      34.871 -18.749 -23.441  0.00  0.00    +0.017 C 
ATOM     29  C   UNL     1      35.773 -18.432 -21.222  0.00  0.00    +0.000 C 
ATOM     30  C   UNL     1      35.442 -19.274 -22.283  0.00  0.00    +0.001 C 
ATOM     31  H   UNL     1      33.834 -17.482 -25.426  0.00  0.00    +0.170 HD
ENDBRANCH  18  21
ENDBRANCH  17  18
ENDBRANCH   1  17
TORSDOF 5
ENDMDL
MODEL 9
REMARK VINA RESULT:     -10.8      4.026      9.163
REMARK  Name = 3822
REMARK  5 active torsions:
REMARK  status: ('A' for Active; 'I' for Inactive)
REMARK    1  A    between atoms: N_1  and  C_17
REMARK    2  A    between atoms: C_2  and  C_9
REMARK    3  A    between atoms: C_9  and  C_11
REMARK    4  A    between atoms: C_17  and  C_18
REMARK    5  A    between atoms: C_18  and  N_21
REMARK                            x       y       z     vdW  Elec       q    Type
REMARK                         _______ _______ _______ _____ _____    ______ ____
ROOT
ATOM      1  N   UNL     1      33.129 -23.301 -13.858  0.00  0.00    +0.388 N 
ATOM      2  C   UNL     1      30.335 -24.107 -13.441  0.00  0.00    +0.058 C 
ATOM      3  C   UNL     1      31.513 -25.005 -13.065  0.00  0.00    -0.015 C 
ATOM      4  C   UNL     1      30.762 -22.645 -13.563  0.00  0.00    -0.015 C 
ATOM      5  C   UNL     1      32.768 -24.724 -13.897  0.00  0.00    -0.077 C 
ATOM      6  C   UNL     1      32.041 -22.470 -14.386  0.00  0.00    -0.077 C 
ATOM      7  H   UNL     1      33.283 -23.040 -12.883  0.00  0.00    -0.080 HD
ENDROOT
BRANCH   2   9
ATOM      8  O   UNL     1      30.012 -25.628 -15.240  0.00  0.00    -0.291 OA
ATOM      9  C   UNL     1      29.686 -24.566 -14.715  0.00  0.00    +0.172 C 
BRANCH   9  11
ATOM     10  F   UNL     1      25.748 -21.376 -17.058  0.00  0.00    -0.204 F 
ATOM     11  C   UNL     1      28.635 -23.715 -15.340  0.00  0.00    +0.035 C 
ATOM     12  C   UNL     1      27.873 -22.903 -14.530  0.00  0.00    +0.005 C 
ATOM     13  C   UNL     1      28.465 -23.772 -16.706  0.00  0.00    +0.005 C 
ATOM     14  C   UNL     1      26.890 -22.106 -15.116  0.00  0.00    +0.030 C 
ATOM     15  C   UNL     1      27.481 -22.975 -17.291  0.00  0.00    +0.030 C 
ATOM     16  C   UNL     1      26.693 -22.142 -16.496  0.00  0.00    +0.140 C 
ENDBRANCH   9  11
ENDBRANCH   2   9
BRANCH   1  17
ATOM     17  C   UNL     1      34.363 -23.066 -14.608  0.00  0.00    -0.052 C 
BRANCH  17  18
ATOM     18  C   UNL     1      34.274 -23.706 -15.985  0.00  0.00    +0.091 C 
BRANCH  18  21
ATOM     19  O   UNL     1      32.583 -22.616 -17.893  0.00  0.00    -0.267 OA
ATOM     20  O   UNL     1      36.946 -22.877 -16.233  0.00  0.00    -0.246 OA
ATOM     21  N   UNL     1      34.739 -22.808 -17.007  0.00  0.00    -0.251 N 
ATOM     22  N   UNL     1      36.496 -21.586 -18.053  0.00  0.00    -0.306 N 
ATOM     23  C   UNL     1      33.776 -22.320 -17.925  0.00  0.00    +0.265 A 
ATOM     24  C   UNL     1      36.115 -22.453 -17.042  0.00  0.00    +0.330 A 
ATOM     25  C   UNL     1      34.265 -21.401 -18.971  0.00  0.00    +0.072 A 
ATOM     26  C   UNL     1      35.615 -21.062 -19.002  0.00  0.00    +0.065 A 
ATOM     27  C   UNL     1      33.389 -20.872 -19.923  0.00  0.00    +0.006 C 
ATOM     28  C   UNL     1      36.098 -20.193 -19.984  0.00  0.00    +0.017 C 
ATOM     29  C   UNL     1      33.872 -20.005 -20.905  0.00  0.00    +0.000 C 
ATOM     30  C   UNL     1      35.224 -19.666 -20.934  0.00  0.00    +0.001 C 
ATOM     31  H   UNL     1      37.444 -21.322 -18.104  0.00  0.00    +0.170 HD
ENDBRANCH  18  21
ENDBRANCH  17  18
ENDBRANCH   1  17
TORSDOF 5
ENDMDL
