MODEL 1
REMARK VINA RESULT:     -10.4      0.000      0.000
REMARK  Name = 5663
REMARK  4 active torsions:
REMARK  status: ('A' for Active; 'I' for Inactive)
REMARK    1  A    between atoms: N_2  and  C_11
REMARK    2  A    between atoms: C_8  and  C_21
REMARK    3  A    between atoms: C_24  and  O_27
REMARK    4  A    between atoms: C_26  and  O_29
REMARK                            x       y       z     vdW  Elec       q    Type
REMARK                         _______ _______ _______ _____ _____    ______ ____
ROOT
ATOM      1  O   UNL     1      34.585 -17.884 -24.771  0.00  0.00    -0.270 OA
ATOM      2  N   UNL     1      33.465 -13.231 -23.093  0.00  0.00    -0.304 N 
ATOM      3  N   UNL     1      34.286 -15.985 -23.447  0.00  0.00    -0.273 N 
ATOM      4  C   UNL     1      33.343 -14.195 -21.996  0.00  0.00    +0.112 C 
ATOM      5  C   UNL     1      33.979 -13.707 -24.379  0.00  0.00    +0.112 C 
ATOM      6  C   UNL     1      34.371 -15.315 -22.145  0.00  0.00    +0.115 C 
ATOM      7  C   UNL     1      33.718 -15.204 -24.542  0.00  0.00    +0.115 C 
ATOM      8  C   UNL     1      34.654 -17.314 -23.683  0.00  0.00    +0.249 C 
ENDROOT
BRANCH   2  11
ATOM      9  O   UNL     1      31.232  -6.170 -21.087  0.00  0.00    -0.275 OA
ATOM     10  N   UNL     1      32.007  -7.882 -22.407  0.00  0.00    -0.284 N 
ATOM     11  C   UNL     1      33.088 -11.900 -22.924  0.00  0.00    +0.048 C 
ATOM     12  C   UNL     1      32.192 -10.138 -21.522  0.00  0.00    -0.007 C 
ATOM     13  C   UNL     1      32.545 -11.480 -21.708  0.00  0.00    +0.011 C 
ATOM     14  C   UNL     1      31.519  -9.681 -20.261  0.00  0.00    +0.037 C 
ATOM     15  C   UNL     1      32.378  -9.228 -22.571  0.00  0.00    +0.046 C 
ATOM     16  C   UNL     1      33.264 -10.990 -23.965  0.00  0.00    +0.016 C 
ATOM     17  C   UNL     1      31.824  -8.216 -19.985  0.00  0.00    +0.090 C 
ATOM     18  C   UNL     1      32.903  -9.652 -23.794  0.00  0.00    +0.016 C 
ATOM     19  C   UNL     1      31.623  -7.331 -21.200  0.00  0.00    +0.226 C 
ATOM     20  H   UNL     1      32.023  -7.297 -23.199  0.00  0.00    +0.155 HD
ENDBRANCH   2  11
BRANCH   8  21
ATOM     21  C   UNL     1      35.167 -18.105 -22.555  0.00  0.00    +0.057 C 
ATOM     22  C   UNL     1      34.345 -19.043 -21.935  0.00  0.00    +0.045 C 
ATOM     23  C   UNL     1      36.473 -17.910 -22.111  0.00  0.00    +0.008 C 
ATOM     24  C   UNL     1      34.832 -19.792 -20.863  0.00  0.00    +0.173 C 
ATOM     25  C   UNL     1      36.960 -18.659 -21.040  0.00  0.00    +0.040 C 
ATOM     26  C   UNL     1      36.140 -19.600 -20.416  0.00  0.00    +0.172 C 
BRANCH  24  27
ATOM     27  O   UNL     1      34.022 -20.706 -20.262  0.00  0.00    -0.468 OA
ATOM     28  C   UNL     1      32.713 -20.272 -19.898  0.00  0.00    +0.253 C 
ENDBRANCH  24  27
BRANCH  26  29
ATOM     29  O   UNL     1      36.627 -20.326 -19.371  0.00  0.00    -0.468 OA
ATOM     30  C   UNL     1      36.482 -21.742 -19.443  0.00  0.00    +0.253 C 
ENDBRANCH  26  29
ENDBRANCH   8  21
TORSDOF 4
ENDMDL
MODEL 2
REMARK VINA RESULT:      -9.8      1.140      1.784
REMARK  Name = 5663
REMARK  4 active torsions:
REMARK  status: ('A' for Active; 'I' for Inactive)
REMARK    1  A    between atoms: N_2  and  C_11
REMARK    2  A    between atoms: C_8  and  C_21
REMARK    3  A    between atoms: C_24  and  O_27
REMARK    4  A    between atoms: C_26  and  O_29
REMARK                            x       y       z     vdW  Elec       q    Type
REMARK                         _______ _______ _______ _____ _____    ______ ____
ROOT
ATOM      1  O   UNL     1      35.367 -18.261 -24.003  0.00  0.00    -0.270 OA
ATOM      2  N   UNL     1      33.580 -13.910 -22.107  0.00  0.00    -0.304 N 
ATOM      3  N   UNL     1      34.688 -16.544 -22.575  0.00  0.00    -0.273 N 
ATOM      4  C   UNL     1      33.365 -14.994 -21.144  0.00  0.00    +0.112 C 
ATOM      5  C   UNL     1      34.339 -14.206 -23.325  0.00  0.00    +0.112 C 
ATOM      6  C   UNL     1      34.499 -16.016 -21.221  0.00  0.00    +0.115 C 
ATOM      7  C   UNL     1      34.241 -15.690 -23.672  0.00  0.00    +0.115 C 
ATOM      8  C   UNL     1      35.205 -17.809 -22.870  0.00  0.00    +0.249 C 
ENDROOT
BRANCH   2  11
ATOM      9  O   UNL     1      30.986  -6.692 -21.921  0.00  0.00    -0.275 OA
ATOM     10  N   UNL     1      31.463  -8.820 -21.202  0.00  0.00    -0.284 N 
ATOM     11  C   UNL     1      33.065 -12.635 -21.879  0.00  0.00    +0.048 C 
ATOM     12  C   UNL     1      32.649 -10.375 -22.645  0.00  0.00    -0.007 C 
ATOM     13  C   UNL     1      33.191 -11.648 -22.857  0.00  0.00    +0.011 C 
ATOM     14  C   UNL     1      32.855  -9.269 -23.639  0.00  0.00    +0.037 C 
ATOM     15  C   UNL     1      31.992 -10.101 -21.439  0.00  0.00    +0.046 C 
ATOM     16  C   UNL     1      32.415 -12.353 -20.678  0.00  0.00    +0.016 C 
ATOM     17  C   UNL     1      31.712  -8.266 -23.578  0.00  0.00    +0.090 C 
ATOM     18  C   UNL     1      31.883 -11.083 -20.451  0.00  0.00    +0.016 C 
ATOM     19  C   UNL     1      31.385  -7.830 -22.162  0.00  0.00    +0.226 C 
ATOM     20  H   UNL     1      31.127  -8.617 -20.298  0.00  0.00    +0.155 HD
ENDBRANCH   2  11
BRANCH   8  21
ATOM     21  C   UNL     1      35.594 -18.681 -21.751  0.00  0.00    +0.057 C 
ATOM     22  C   UNL     1      34.663 -19.557 -21.199  0.00  0.00    +0.045 C 
ATOM     23  C   UNL     1      36.892 -18.623 -21.248  0.00  0.00    +0.008 C 
ATOM     24  C   UNL     1      35.032 -20.382 -20.135  0.00  0.00    +0.173 C 
ATOM     25  C   UNL     1      37.261 -19.448 -20.186  0.00  0.00    +0.040 C 
ATOM     26  C   UNL     1      36.332 -20.327 -19.629  0.00  0.00    +0.172 C 
BRANCH  24  27
ATOM     27  O   UNL     1      34.116 -21.235 -19.600  0.00  0.00    -0.468 OA
ATOM     28  C   UNL     1      32.777 -20.759 -19.486  0.00  0.00    +0.253 C 
ENDBRANCH  24  27
BRANCH  26  29
ATOM     29  O   UNL     1      36.704 -21.128 -18.592  0.00  0.00    -0.468 OA
ATOM     30  C   UNL     1      37.212 -20.484 -17.426  0.00  0.00    +0.253 C 
ENDBRANCH  26  29
ENDBRANCH   8  21
TORSDOF 4
ENDMDL
MODEL 3
REMARK VINA RESULT:      -9.8      3.771      6.115
REMARK  Name = 5663
REMARK  4 active torsions:
REMARK  status: ('A' for Active; 'I' for Inactive)
REMARK    1  A    between atoms: N_2  and  C_11
REMARK    2  A    between atoms: C_8  and  C_21
REMARK    3  A    between atoms: C_24  and  O_27
REMARK    4  A    between atoms: C_26  and  O_29
REMARK                            x       y       z     vdW  Elec       q    Type
REMARK                         _______ _______ _______ _____ _____    ______ ____
ROOT
ATOM      1  O   UNL     1      31.190 -12.262 -20.651  0.00  0.00    -0.270 OA
ATOM      2  N   UNL     1      32.686  -8.357 -23.521  0.00  0.00    -0.304 N 
ATOM      3  N   UNL     1      32.317 -10.890 -22.166  0.00  0.00    -0.273 N 
ATOM      4  C   UNL     1      33.831  -9.224 -23.227  0.00  0.00    +0.112 C 
ATOM      5  C   UNL     1      31.358  -8.792 -23.078  0.00  0.00    +0.112 C 
ATOM      6  C   UNL     1      33.394 -10.685 -23.139  0.00  0.00    +0.115 C 
ATOM      7  C   UNL     1      31.472  -9.734 -21.881  0.00  0.00    +0.115 C 
ATOM      8  C   UNL     1      32.091 -12.082 -21.469  0.00  0.00    +0.249 C 
ENDROOT
BRANCH   2  11
ATOM      9  O   UNL     1      34.649  -2.047 -27.418  0.00  0.00    -0.275 OA
ATOM     10  N   UNL     1      33.340  -3.523 -26.242  0.00  0.00    -0.284 N 
ATOM     11  C   UNL     1      32.855  -7.146 -24.188  0.00  0.00    +0.048 C 
ATOM     12  C   UNL     1      34.287  -5.579 -25.356  0.00  0.00    -0.007 C 
ATOM     13  C   UNL     1      34.117  -6.781 -24.659  0.00  0.00    +0.011 C 
ATOM     14  C   UNL     1      35.648  -5.118 -25.788  0.00  0.00    +0.037 C 
ATOM     15  C   UNL     1      33.181  -4.744 -25.563  0.00  0.00    +0.046 C 
ATOM     16  C   UNL     1      31.761  -6.307 -24.393  0.00  0.00    +0.016 C 
ATOM     17  C   UNL     1      35.555  -4.232 -27.021  0.00  0.00    +0.090 C 
ATOM     18  C   UNL     1      31.921  -5.100 -25.075  0.00  0.00    +0.016 C 
ATOM     19  C   UNL     1      34.501  -3.149 -26.890  0.00  0.00    +0.226 C 
ATOM     20  H   UNL     1      32.579  -2.897 -26.255  0.00  0.00    +0.155 HD
ENDBRANCH   2  11
BRANCH   8  21
ATOM     21  C   UNL     1      32.988 -13.219 -21.724  0.00  0.00    +0.057 C 
ATOM     22  C   UNL     1      33.109 -13.731 -23.013  0.00  0.00    +0.045 C 
ATOM     23  C   UNL     1      33.711 -13.778 -20.673  0.00  0.00    +0.008 C 
ATOM     24  C   UNL     1      33.959 -14.811 -23.254  0.00  0.00    +0.173 C 
ATOM     25  C   UNL     1      34.561 -14.857 -20.914  0.00  0.00    +0.040 C 
ATOM     26  C   UNL     1      34.685 -15.374 -22.204  0.00  0.00    +0.172 C 
BRANCH  24  27
ATOM     27  O   UNL     1      34.071 -15.306 -24.517  0.00  0.00    -0.468 OA
ATOM     28  C   UNL     1      33.204 -14.757 -25.508  0.00  0.00    +0.253 C 
ENDBRANCH  24  27
BRANCH  26  29
ATOM     29  O   UNL     1      35.519 -16.428 -22.427  0.00  0.00    -0.468 OA
ATOM     30  C   UNL     1      35.481 -17.495 -21.482  0.00  0.00    +0.253 C 
ENDBRANCH  26  29
ENDBRANCH   8  21
TORSDOF 4
ENDMDL
MODEL 4
REMARK VINA RESULT:      -9.7      3.163     10.774
REMARK  Name = 5663
REMARK  4 active torsions:
REMARK  status: ('A' for Active; 'I' for Inactive)
REMARK    1  A    between atoms: N_2  and  C_11
REMARK    2  A    between atoms: C_8  and  C_21
REMARK    3  A    between atoms: C_24  and  O_27
REMARK    4  A    between atoms: C_26  and  O_29
REMARK                            x       y       z     vdW  Elec       q    Type
REMARK                         _______ _______ _______ _____ _____    ______ ____
ROOT
ATOM      1  O   UNL     1      30.748  -8.020 -23.292  0.00  0.00    -0.270 OA
ATOM      2  N   UNL     1      33.346 -12.261 -22.298  0.00  0.00    -0.304 N 
ATOM      3  N   UNL     1      32.422  -9.635 -23.096  0.00  0.00    -0.273 N 
ATOM      4  C   UNL     1      33.936 -11.579 -23.455  0.00  0.00    +0.112 C 
ATOM      5  C   UNL     1      32.257 -11.593 -21.582  0.00  0.00    +0.112 C 
ATOM      6  C   UNL     1      33.808 -10.063 -23.310  0.00  0.00    +0.115 C 
ATOM      7  C   UNL     1      31.523 -10.621 -22.505  0.00  0.00    +0.115 C 
ATOM      8  C   UNL     1      31.910  -8.388 -23.467  0.00  0.00    +0.249 C 
ENDROOT
BRANCH   2  11
ATOM      9  O   UNL     1      36.008 -19.371 -21.186  0.00  0.00    -0.275 OA
ATOM     10  N   UNL     1      35.211 -17.275 -20.689  0.00  0.00    -0.284 N 
ATOM     11  C   UNL     1      33.799 -13.517 -21.899  0.00  0.00    +0.048 C 
ATOM     12  C   UNL     1      34.561 -15.746 -22.463  0.00  0.00    -0.007 C 
ATOM     13  C   UNL     1      34.078 -14.493 -22.857  0.00  0.00    +0.011 C 
ATOM     14  C   UNL     1      34.777 -16.843 -23.465  0.00  0.00    +0.037 C 
ATOM     15  C   UNL     1      34.748 -16.012 -21.101  0.00  0.00    +0.046 C 
ATOM     16  C   UNL     1      33.982 -13.792 -20.545  0.00  0.00    +0.016 C 
ATOM     17  C   UNL     1      35.862 -17.801 -22.994  0.00  0.00    +0.090 C 
ATOM     18  C   UNL     1      34.450 -15.042 -20.141  0.00  0.00    +0.016 C 
ATOM     19  C   UNL     1      35.674 -18.245 -21.556  0.00  0.00    +0.226 C 
ATOM     20  H   UNL     1      35.205 -17.478 -19.725  0.00  0.00    +0.155 HD
ENDBRANCH   2  11
BRANCH   8  21
ATOM     21  C   UNL     1      32.815  -7.427 -24.116  0.00  0.00    +0.057 C 
ATOM     22  C   UNL     1      32.409  -6.764 -25.271  0.00  0.00    +0.045 C 
ATOM     23  C   UNL     1      34.075  -7.188 -23.572  0.00  0.00    +0.008 C 
ATOM     24  C   UNL     1      33.270  -5.855 -25.888  0.00  0.00    +0.173 C 
ATOM     25  C   UNL     1      34.935  -6.279 -24.188  0.00  0.00    +0.040 C 
ATOM     26  C   UNL     1      34.533  -5.613 -25.346  0.00  0.00    +0.172 C 
BRANCH  24  27
ATOM     27  O   UNL     1      32.866  -5.211 -27.017  0.00  0.00    -0.468 OA
ATOM     28  C   UNL     1      32.056  -4.049 -26.846  0.00  0.00    +0.253 C 
ENDBRANCH  24  27
BRANCH  26  29
ATOM     29  O   UNL     1      35.381  -4.727 -25.938  0.00  0.00    -0.468 OA
ATOM     30  C   UNL     1      36.235  -5.232 -26.962  0.00  0.00    +0.253 C 
ENDBRANCH  26  29
ENDBRANCH   8  21
TORSDOF 4
ENDMDL
MODEL 5
REMARK VINA RESULT:      -9.6      2.812     10.744
REMARK  Name = 5663
REMARK  4 active torsions:
REMARK  status: ('A' for Active; 'I' for Inactive)
REMARK    1  A    between atoms: N_2  and  C_11
REMARK    2  A    between atoms: C_8  and  C_21
REMARK    3  A    between atoms: C_24  and  O_27
REMARK    4  A    between atoms: C_26  and  O_29
REMARK                            x       y       z     vdW  Elec       q    Type
REMARK                         _______ _______ _______ _____ _____    ______ ____
ROOT
ATOM      1  O   UNL     1      31.602  -8.248 -21.575  0.00  0.00    -0.270 OA
ATOM      2  N   UNL     1      33.477 -12.712 -23.087  0.00  0.00    -0.304 N 
ATOM      3  N   UNL     1      32.797  -9.928 -22.671  0.00  0.00    -0.273 N 
ATOM      4  C   UNL     1      33.510 -11.759 -24.200  0.00  0.00    +0.112 C 
ATOM      5  C   UNL     1      33.058 -12.224 -21.770  0.00  0.00    +0.112 C 
ATOM      6  C   UNL     1      33.767 -10.341 -23.690  0.00  0.00    +0.115 C 
ATOM      7  C   UNL     1      32.157 -10.999 -21.913  0.00  0.00    +0.115 C 
ATOM      8  C   UNL     1      32.416  -8.604 -22.427  0.00  0.00    +0.249 C 
ENDROOT
BRANCH   2  11
ATOM      9  O   UNL     1      35.587 -20.088 -23.037  0.00  0.00    -0.275 OA
ATOM     10  N   UNL     1      34.800 -18.086 -23.842  0.00  0.00    -0.284 N 
ATOM     11  C   UNL     1      33.821 -14.049 -23.277  0.00  0.00    +0.048 C 
ATOM     12  C   UNL     1      34.729 -16.122 -22.412  0.00  0.00    -0.007 C 
ATOM     13  C   UNL     1      34.409 -14.770 -22.237  0.00  0.00    +0.011 C 
ATOM     14  C   UNL     1      35.449 -16.894 -21.345  0.00  0.00    +0.037 C 
ATOM     15  C   UNL     1      34.464 -16.735 -23.643  0.00  0.00    +0.046 C 
ATOM     16  C   UNL     1      33.566 -14.665 -24.501  0.00  0.00    +0.016 C 
ATOM     17  C   UNL     1      35.113 -18.375 -21.427  0.00  0.00    +0.090 C 
ATOM     18  C   UNL     1      33.893 -16.008 -24.691  0.00  0.00    +0.016 C 
ATOM     19  C   UNL     1      35.227 -18.929 -22.834  0.00  0.00    +0.226 C 
ATOM     20  H   UNL     1      34.727 -18.453 -24.754  0.00  0.00    +0.155 HD
ENDBRANCH   2  11
BRANCH   8  21
ATOM     21  C   UNL     1      33.026  -7.542 -23.242  0.00  0.00    +0.057 C 
ATOM     22  C   UNL     1      32.235  -6.791 -24.106  0.00  0.00    +0.045 C 
ATOM     23  C   UNL     1      34.394  -7.296 -23.145  0.00  0.00    +0.008 C 
ATOM     24  C   UNL     1      32.815  -5.785 -24.880  0.00  0.00    +0.173 C 
ATOM     25  C   UNL     1      34.974  -6.291 -23.917  0.00  0.00    +0.040 C 
ATOM     26  C   UNL     1      34.185  -5.535 -24.786  0.00  0.00    +0.172 C 
BRANCH  24  27
ATOM     27  O   UNL     1      32.034  -5.055 -25.724  0.00  0.00    -0.468 OA
ATOM     28  C   UNL     1      31.283  -3.987 -25.150  0.00  0.00    +0.253 C 
ENDBRANCH  24  27
BRANCH  26  29
ATOM     29  O   UNL     1      34.762  -4.555 -25.535  0.00  0.00    -0.468 OA
ATOM     30  C   UNL     1      35.751  -4.960 -26.480  0.00  0.00    +0.253 C 
ENDBRANCH  26  29
ENDBRANCH   8  21
TORSDOF 4
ENDMDL
MODEL 6
REMARK VINA RESULT:      -9.6      1.623      2.720
REMARK  Name = 5663
REMARK  4 active torsions:
REMARK  status: ('A' for Active; 'I' for Inactive)
REMARK    1  A    between atoms: N_2  and  C_11
REMARK    2  A    between atoms: C_8  and  C_21
REMARK    3  A    between atoms: C_24  and  O_27
REMARK    4  A    between atoms: C_26  and  O_29
REMARK                            x       y       z     vdW  Elec       q    Type
REMARK                         _______ _______ _______ _____ _____    ______ ____
ROOT
ATOM      1  O   UNL     1      34.229 -15.519 -25.359  0.00  0.00    -0.270 OA
ATOM      2  N   UNL     1      32.887 -11.357 -22.789  0.00  0.00    -0.304 N 
ATOM      3  N   UNL     1      33.778 -13.966 -23.675  0.00  0.00    -0.273 N 
ATOM      4  C   UNL     1      32.676 -12.544 -21.954  0.00  0.00    +0.112 C 
ATOM      5  C   UNL     1      33.527 -11.535 -24.095  0.00  0.00    +0.112 C 
ATOM      6  C   UNL     1      33.731 -13.609 -22.254  0.00  0.00    +0.115 C 
ATOM      7  C   UNL     1      33.305 -12.954 -24.614  0.00  0.00    +0.115 C 
ATOM      8  C   UNL     1      34.187 -15.210 -24.169  0.00  0.00    +0.249 C 
ENDROOT
BRANCH   2  11
ATOM      9  O   UNL     1      30.593  -4.148 -21.512  0.00  0.00    -0.275 OA
ATOM     10  N   UNL     1      31.187  -6.322 -21.068  0.00  0.00    -0.284 N 
ATOM     11  C   UNL     1      32.476 -10.097 -22.360  0.00  0.00    +0.048 C 
ATOM     12  C   UNL     1      31.932  -7.789 -22.857  0.00  0.00    -0.007 C 
ATOM     13  C   UNL     1      32.373  -9.050 -23.277  0.00  0.00    +0.011 C 
ATOM     14  C   UNL     1      31.904  -6.623 -23.802  0.00  0.00    +0.037 C 
ATOM     15  C   UNL     1      31.610  -7.589 -21.509  0.00  0.00    +0.046 C 
ATOM     16  C   UNL     1      32.159  -9.888 -21.019  0.00  0.00    +0.016 C 
ATOM     17  C   UNL     1      30.839  -5.618 -23.391  0.00  0.00    +0.090 C 
ATOM     18  C   UNL     1      31.732  -8.632 -20.587  0.00  0.00    +0.016 C 
ATOM     19  C   UNL     1      30.891  -5.272 -21.915  0.00  0.00    +0.226 C 
ATOM     20  H   UNL     1      31.097  -6.175 -20.098  0.00  0.00    +0.155 HD
ENDBRANCH   2  11
BRANCH   8  21
ATOM     21  C   UNL     1      34.604 -16.239 -23.204  0.00  0.00    +0.057 C 
ATOM     22  C   UNL     1      34.623 -17.578 -23.586  0.00  0.00    +0.045 C 
ATOM     23  C   UNL     1      34.974 -15.869 -21.914  0.00  0.00    +0.008 C 
ATOM     24  C   UNL     1      35.016 -18.555 -22.670  0.00  0.00    +0.173 C 
ATOM     25  C   UNL     1      35.368 -16.844 -20.999  0.00  0.00    +0.040 C 
ATOM     26  C   UNL     1      35.389 -18.187 -21.376  0.00  0.00    +0.172 C 
BRANCH  24  27
ATOM     27  O   UNL     1      35.032 -19.862 -23.050  0.00  0.00    -0.468 OA
ATOM     28  C   UNL     1      34.778 -20.140 -24.426  0.00  0.00    +0.253 C 
ENDBRANCH  24  27
BRANCH  26  29
ATOM     29  O   UNL     1      35.775 -19.132 -20.474  0.00  0.00    -0.468 OA
ATOM     30  C   UNL     1      37.177 -19.341 -20.316  0.00  0.00    +0.253 C 
ENDBRANCH  26  29
ENDBRANCH   8  21
TORSDOF 4
ENDMDL
MODEL 7
REMARK VINA RESULT:      -9.6      3.418      5.794
REMARK  Name = 5663
REMARK  4 active torsions:
REMARK  status: ('A' for Active; 'I' for Inactive)
REMARK    1  A    between atoms: N_2  and  C_11
REMARK    2  A    between atoms: C_8  and  C_21
REMARK    3  A    between atoms: C_24  and  O_27
REMARK    4  A    between atoms: C_26  and  O_29
REMARK                            x       y       z     vdW  Elec       q    Type
REMARK                         _______ _______ _______ _____ _____    ______ ____
ROOT
ATOM      1  O   UNL     1      32.323 -12.931 -20.474  0.00  0.00    -0.270 OA
ATOM      2  N   UNL     1      32.121  -8.661 -23.204  0.00  0.00    -0.304 N 
ATOM      3  N   UNL     1      32.481 -11.346 -22.181  0.00  0.00    -0.273 N 
ATOM      4  C   UNL     1      33.218  -9.505 -23.686  0.00  0.00    +0.112 C 
ATOM      5  C   UNL     1      31.237  -9.200 -22.167  0.00  0.00    +0.112 C 
ATOM      6  C   UNL     1      32.860 -10.984 -23.550  0.00  0.00    +0.115 C 
ATOM      7  C   UNL     1      31.958 -10.268 -21.347  0.00  0.00    +0.115 C 
ATOM      8  C   UNL     1      32.638 -12.619 -21.622  0.00  0.00    +0.249 C 
ENDROOT
BRANCH   2  11
ATOM      9  O   UNL     1      31.638  -1.935 -26.864  0.00  0.00    -0.275 OA
ATOM     10  N   UNL     1      31.315  -3.518 -25.231  0.00  0.00    -0.284 N 
ATOM     11  C   UNL     1      31.933  -7.374 -23.705  0.00  0.00    +0.048 C 
ATOM     12  C   UNL     1      32.361  -5.706 -25.408  0.00  0.00    -0.007 C 
ATOM     13  C   UNL     1      32.570  -6.987 -24.884  0.00  0.00    +0.011 C 
ATOM     14  C   UNL     1      33.107  -5.232 -26.621  0.00  0.00    +0.037 C 
ATOM     15  C   UNL     1      31.517  -4.817 -24.730  0.00  0.00    +0.046 C 
ATOM     16  C   UNL     1      31.100  -6.481 -23.032  0.00  0.00    +0.016 C 
ATOM     17  C   UNL     1      32.306  -4.180 -27.375  0.00  0.00    +0.090 C 
ATOM     18  C   UNL     1      30.894  -5.197 -23.539  0.00  0.00    +0.016 C 
ATOM     19  C   UNL     1      31.759  -3.094 -26.469  0.00  0.00    +0.226 C 
ATOM     20  H   UNL     1      30.828  -2.874 -24.668  0.00  0.00    +0.155 HD
ENDBRANCH   2  11
BRANCH   8  21
ATOM     21  C   UNL     1      33.221 -13.679 -22.458  0.00  0.00    +0.057 C 
ATOM     22  C   UNL     1      34.199 -14.518 -21.930  0.00  0.00    +0.045 C 
ATOM     23  C   UNL     1      32.794 -13.836 -23.774  0.00  0.00    +0.008 C 
ATOM     24  C   UNL     1      34.754 -15.522 -22.724  0.00  0.00    +0.173 C 
ATOM     25  C   UNL     1      33.348 -14.841 -24.568  0.00  0.00    +0.040 C 
ATOM     26  C   UNL     1      34.328 -15.683 -24.043  0.00  0.00    +0.172 C 
BRANCH  24  27
ATOM     27  O   UNL     1      35.710 -16.338 -22.201  0.00  0.00    -0.468 OA
ATOM     28  C   UNL     1      35.290 -17.279 -21.214  0.00  0.00    +0.253 C 
ENDBRANCH  24  27
BRANCH  26  29
ATOM     29  O   UNL     1      34.862 -16.661 -24.827  0.00  0.00    -0.468 OA
ATOM     30  C   UNL     1      34.275 -17.957 -24.735  0.00  0.00    +0.253 C 
ENDBRANCH  26  29
ENDBRANCH   8  21
TORSDOF 4
ENDMDL
MODEL 8
REMARK VINA RESULT:      -9.4      2.801      5.134
REMARK  Name = 5663
REMARK  4 active torsions:
REMARK  status: ('A' for Active; 'I' for Inactive)
REMARK    1  A    between atoms: N_2  and  C_11
REMARK    2  A    between atoms: C_8  and  C_21
REMARK    3  A    between atoms: C_24  and  O_27
REMARK    4  A    between atoms: C_26  and  O_29
REMARK                            x       y       z     vdW  Elec       q    Type
REMARK                         _______ _______ _______ _____ _____    ______ ____
ROOT
ATOM      1  O   UNL     1      32.271 -13.475 -19.259  0.00  0.00    -0.270 OA
ATOM      2  N   UNL     1      31.763  -9.312 -22.111  0.00  0.00    -0.304 N 
ATOM      3  N   UNL     1      32.376 -11.910 -20.987  0.00  0.00    -0.273 N 
ATOM      4  C   UNL     1      33.001 -10.011 -22.471  0.00  0.00    +0.112 C 
ATOM      5  C   UNL     1      30.866  -9.948 -21.143  0.00  0.00    +0.112 C 
ATOM      6  C   UNL     1      32.828 -11.522 -22.327  0.00  0.00    +0.115 C 
ATOM      7  C   UNL     1      31.643 -10.897 -20.233  0.00  0.00    +0.115 C 
ATOM      8  C   UNL     1      32.646 -13.141 -20.382  0.00  0.00    +0.249 C 
ENDROOT
BRANCH   2  11
ATOM      9  O   UNL     1      30.262  -2.062 -24.124  0.00  0.00    -0.275 OA
ATOM     10  N   UNL     1      30.579  -4.327 -24.337  0.00  0.00    -0.284 N 
ATOM     11  C   UNL     1      31.455  -8.070 -22.662  0.00  0.00    +0.048 C 
ATOM     12  C   UNL     1      31.050  -5.698 -22.385  0.00  0.00    -0.007 C 
ATOM     13  C   UNL     1      31.330  -6.953 -21.834  0.00  0.00    +0.011 C 
ATOM     14  C   UNL     1      30.817  -4.501 -21.510  0.00  0.00    +0.037 C 
ATOM     15  C   UNL     1      30.884  -5.578 -23.771  0.00  0.00    +0.046 C 
ATOM     16  C   UNL     1      31.282  -7.944 -24.040  0.00  0.00    +0.016 C 
ATOM     17  C   UNL     1      31.187  -3.216 -22.237  0.00  0.00    +0.090 C 
ATOM     18  C   UNL     1      30.989  -6.699 -24.598  0.00  0.00    +0.016 C 
ATOM     19  C   UNL     1      30.601  -3.138 -23.634  0.00  0.00    +0.226 C 
ATOM     20  H   UNL     1      30.336  -4.297 -25.291  0.00  0.00    +0.155 HD
ENDBRANCH   2  11
BRANCH   8  21
ATOM     21  C   UNL     1      33.437 -14.128 -21.134  0.00  0.00    +0.057 C 
ATOM     22  C   UNL     1      33.376 -14.151 -22.524  0.00  0.00    +0.045 C 
ATOM     23  C   UNL     1      34.241 -15.036 -20.449  0.00  0.00    +0.008 C 
ATOM     24  C   UNL     1      34.125 -15.088 -23.236  0.00  0.00    +0.173 C 
ATOM     25  C   UNL     1      34.990 -15.973 -21.160  0.00  0.00    +0.040 C 
ATOM     26  C   UNL     1      34.932 -16.000 -22.554  0.00  0.00    +0.172 C 
BRANCH  24  27
ATOM     27  O   UNL     1      34.060 -15.104 -24.597  0.00  0.00    -0.468 OA
ATOM     28  C   UNL     1      32.961 -14.424 -25.201  0.00  0.00    +0.253 C 
ENDBRANCH  24  27
BRANCH  26  29
ATOM     29  O   UNL     1      35.668 -16.918 -23.238  0.00  0.00    -0.468 OA
ATOM     30  C   UNL     1      35.276 -18.284 -23.117  0.00  0.00    +0.253 C 
ENDBRANCH  26  29
ENDBRANCH   8  21
TORSDOF 4
ENDMDL
MODEL 9
REMARK VINA RESULT:      -9.2      1.242      2.313
REMARK  Name = 5663
REMARK  4 active torsions:
REMARK  status: ('A' for Active; 'I' for Inactive)
REMARK    1  A    between atoms: N_2  and  C_11
REMARK    2  A    between atoms: C_8  and  C_21
REMARK    3  A    between atoms: C_24  and  O_27
REMARK    4  A    between atoms: C_26  and  O_29
REMARK                            x       y       z     vdW  Elec       q    Type
REMARK                         _______ _______ _______ _____ _____    ______ ____
ROOT
ATOM      1  O   UNL     1      34.610 -16.431 -25.439  0.00  0.00    -0.270 OA
ATOM      2  N   UNL     1      33.137 -12.433 -22.688  0.00  0.00    -0.304 N 
ATOM      3  N   UNL     1      33.999 -15.008 -23.691  0.00  0.00    -0.273 N 
ATOM      4  C   UNL     1      32.734 -13.671 -22.016  0.00  0.00    +0.112 C 
ATOM      5  C   UNL     1      33.956 -12.537 -23.898  0.00  0.00    +0.112 C 
ATOM      6  C   UNL     1      33.758 -14.778 -22.264  0.00  0.00    +0.115 C 
ATOM      7  C   UNL     1      33.734 -13.884 -24.584  0.00  0.00    +0.115 C 
ATOM      8  C   UNL     1      34.405 -16.228 -24.242  0.00  0.00    +0.249 C 
ENDROOT
BRANCH   2  11
ATOM      9  O   UNL     1      31.465  -5.163 -20.894  0.00  0.00    -0.275 OA
ATOM     10  N   UNL     1      31.495  -7.455 -20.755  0.00  0.00    -0.284 N 
ATOM     11  C   UNL     1      32.739 -11.189 -22.199  0.00  0.00    +0.048 C 
ATOM     12  C   UNL     1      32.796  -8.771 -22.331  0.00  0.00    -0.007 C 
ATOM     13  C   UNL     1      33.215 -10.022 -22.798  0.00  0.00    +0.011 C 
ATOM     14  C   UNL     1      33.366  -7.502 -22.894  0.00  0.00    +0.037 C 
ATOM     15  C   UNL     1      31.907  -8.705 -21.251  0.00  0.00    +0.046 C 
ATOM     16  C   UNL     1      31.859 -11.115 -21.121  0.00  0.00    +0.016 C 
ATOM     17  C   UNL     1      32.372  -6.357 -22.765  0.00  0.00    +0.090 C 
ATOM     18  C   UNL     1      31.446  -9.873 -20.638  0.00  0.00    +0.016 C 
ATOM     19  C   UNL     1      31.769  -6.252 -21.377  0.00  0.00    +0.226 C 
ATOM     20  H   UNL     1      30.979  -7.436 -19.916  0.00  0.00    +0.155 HD
ENDBRANCH   2  11
BRANCH   8  21
ATOM     21  C   UNL     1      34.611 -17.368 -23.336  0.00  0.00    +0.057 C 
ATOM     22  C   UNL     1      35.466 -17.240 -22.244  0.00  0.00    +0.045 C 
ATOM     23  C   UNL     1      33.951 -18.570 -23.576  0.00  0.00    +0.008 C 
ATOM     24  C   UNL     1      35.662 -18.322 -21.386  0.00  0.00    +0.173 C 
ATOM     25  C   UNL     1      34.146 -19.652 -22.718  0.00  0.00    +0.040 C 
ATOM     26  C   UNL     1      35.002 -19.528 -21.623  0.00  0.00    +0.172 C 
BRANCH  24  27
ATOM     27  O   UNL     1      36.500 -18.189 -20.320  0.00  0.00    -0.468 OA
ATOM     28  C   UNL     1      37.525 -19.170 -20.176  0.00  0.00    +0.253 C 
ENDBRANCH  24  27
BRANCH  26  29
ATOM     29  O   UNL     1      35.185 -20.591 -20.791  0.00  0.00    -0.468 OA
ATOM     30  C   UNL     1      34.168 -20.837 -19.821  0.00  0.00    +0.253 C 
ENDBRANCH  26  29
ENDBRANCH   8  21
TORSDOF 4
ENDMDL
