MODEL 1
REMARK VINA RESULT:     -11.7      0.000      0.000
REMARK  Name = 24779724
REMARK  3 active torsions:
REMARK  status: ('A' for Active; 'I' for Inactive)
REMARK    1  A    between atoms: C_5  and  C_12
REMARK    2  A    between atoms: C_7  and  S_16
REMARK    3  A    between atoms: S_16  and  C_19
REMARK                            x       y       z     vdW  Elec       q    Type
REMARK                         _______ _______ _______ _____ _____    ______ ____
ROOT
ATOM      1  N   UNL     1      34.627 -21.730 -18.447  0.00  0.00    -0.186 N 
ATOM      2  N   UNL     1      35.646 -22.066 -17.618  0.00  0.00    -0.162 NA
ATOM      3  N   UNL     1      32.627 -21.571 -19.341  0.00  0.00    -0.126 NA
ATOM      4  N   UNL     1      33.509 -20.837 -20.107  0.00  0.00    -0.120 NA
ATOM      5  C   UNL     1      35.286 -22.827 -16.623  0.00  0.00    +0.104 C 
ATOM      6  C   UNL     1      33.307 -22.103 -18.347  0.00  0.00    +0.187 A 
ATOM      7  C   UNL     1      34.699 -20.944 -19.561  0.00  0.00    +0.217 A 
ATOM      8  C   UNL     1      33.890 -23.324 -16.398  0.00  0.00    +0.024 C 
ATOM      9  C   UNL     1      32.950 -22.939 -17.271  0.00  0.00    +0.042 C 
ENDROOT
BRANCH   5  12
ATOM     10  N   UNL     1      37.336 -24.281 -14.002  0.00  0.00    -0.208 N 
ATOM     11  N   UNL     1      38.271 -23.441 -14.478  0.00  0.00    -0.176 NA
ATOM     12  C   UNL     1      36.312 -23.259 -15.640  0.00  0.00    +0.056 C 
ATOM     13  C   UNL     1      36.145 -24.211 -14.664  0.00  0.00    +0.087 C 
ATOM     14  C   UNL     1      37.640 -22.820 -15.478  0.00  0.00    +0.121 C 
ATOM     15  C   UNL     1      37.648 -25.145 -12.889  0.00  0.00    +0.140 C 
ENDBRANCH   5  12
BRANCH   7  16
ATOM     16  S   UNL     1      36.212 -20.195 -20.143  0.00  0.00    -0.051 S 
BRANCH  16  19
ATOM     17  N   UNL     1      34.197 -16.881 -24.654  0.00  0.00    -0.248 NA
ATOM     18  C   UNL     1      35.081 -17.015 -22.416  0.00  0.00    -0.003 C 
ATOM     19  C   UNL     1      35.611 -19.194 -21.488  0.00  0.00    +0.011 C 
ATOM     20  C   UNL     1      34.657 -17.613 -23.621  0.00  0.00    +0.060 C 
ATOM     21  C   UNL     1      35.555 -17.809 -21.359  0.00  0.00    +0.060 C 
ATOM     22  C   UNL     1      35.194 -19.789 -22.671  0.00  0.00    -0.017 C 
ATOM     23  C   UNL     1      34.723 -19.000 -23.723  0.00  0.00    +0.072 C 
ATOM     24  C   UNL     1      35.014 -15.619 -22.314  0.00  0.00    -0.001 C 
ATOM     25  C   UNL     1      34.541 -14.862 -23.376  0.00  0.00    +0.020 C 
ATOM     26  C   UNL     1      34.148 -15.537 -24.514  0.00  0.00    +0.098 C 
ENDBRANCH  16  19
ENDBRANCH   7  16
TORSDOF 3
ENDMDL
MODEL 2
REMARK VINA RESULT:     -11.1      2.760      4.157
REMARK  Name = 24779724
REMARK  3 active torsions:
REMARK  status: ('A' for Active; 'I' for Inactive)
REMARK    1  A    between atoms: C_5  and  C_12
REMARK    2  A    between atoms: C_7  and  S_16
REMARK    3  A    between atoms: S_16  and  C_19
REMARK                            x       y       z     vdW  Elec       q    Type
REMARK                         _______ _______ _______ _____ _____    ______ ____
ROOT
ATOM      1  N   UNL     1      34.019 -23.768 -15.610  0.00  0.00    -0.186 N 
ATOM      2  N   UNL     1      35.162 -24.497 -15.641  0.00  0.00    -0.162 NA
ATOM      3  N   UNL     1      32.304 -22.602 -14.886  0.00  0.00    -0.126 NA
ATOM      4  N   UNL     1      32.226 -22.689 -16.262  0.00  0.00    -0.120 NA
ATOM      5  C   UNL     1      35.686 -24.704 -14.465  0.00  0.00    +0.104 C 
ATOM      6  C   UNL     1      33.383 -23.253 -14.505  0.00  0.00    +0.187 A 
ATOM      7  C   UNL     1      33.257 -23.390 -16.677  0.00  0.00    +0.217 A 
ATOM      8  C   UNL     1      35.095 -24.219 -13.176  0.00  0.00    +0.024 C 
ATOM      9  C   UNL     1      33.963 -23.507 -13.246  0.00  0.00    +0.042 C 
ENDROOT
BRANCH   5  12
ATOM     10  N   UNL     1      39.051 -26.041 -14.182  0.00  0.00    -0.208 N 
ATOM     11  N   UNL     1      38.423 -27.226 -14.275  0.00  0.00    -0.176 NA
ATOM     12  C   UNL     1      36.945 -25.486 -14.367  0.00  0.00    +0.056 C 
ATOM     13  C   UNL     1      38.210 -24.967 -14.233  0.00  0.00    +0.087 C 
ATOM     14  C   UNL     1      37.138 -26.881 -14.387  0.00  0.00    +0.121 C 
ATOM     15  C   UNL     1      40.487 -25.998 -14.044  0.00  0.00    +0.140 C 
ENDBRANCH   5  12
BRANCH   7  16
ATOM     16  S   UNL     1      33.650 -23.811 -18.368  0.00  0.00    -0.051 S 
BRANCH  16  19
ATOM     17  N   UNL     1      36.935 -19.123 -19.986  0.00  0.00    -0.248 NA
ATOM     18  C   UNL     1      34.965 -20.475 -20.293  0.00  0.00    -0.003 C 
ATOM     19  C   UNL     1      34.626 -22.404 -18.860  0.00  0.00    +0.011 C 
ATOM     20  C   UNL     1      36.177 -20.178 -19.635  0.00  0.00    +0.060 C 
ATOM     21  C   UNL     1      34.198 -21.585 -19.901  0.00  0.00    +0.060 C 
ATOM     22  C   UNL     1      35.818 -22.118 -18.208  0.00  0.00    -0.017 C 
ATOM     23  C   UNL     1      36.581 -21.014 -18.598  0.00  0.00    +0.072 C 
ATOM     24  C   UNL     1      34.559 -19.634 -21.337  0.00  0.00    -0.001 C 
ATOM     25  C   UNL     1      35.338 -18.546 -21.701  0.00  0.00    +0.020 C 
ATOM     26  C   UNL     1      36.508 -18.336 -20.999  0.00  0.00    +0.098 C 
ENDBRANCH  16  19
ENDBRANCH   7  16
TORSDOF 3
ENDMDL
MODEL 3
REMARK VINA RESULT:     -10.9      1.125      1.765
REMARK  Name = 24779724
REMARK  3 active torsions:
REMARK  status: ('A' for Active; 'I' for Inactive)
REMARK    1  A    between atoms: C_5  and  C_12
REMARK    2  A    between atoms: C_7  and  S_16
REMARK    3  A    between atoms: S_16  and  C_19
REMARK                            x       y       z     vdW  Elec       q    Type
REMARK                         _______ _______ _______ _____ _____    ______ ____
ROOT
ATOM      1  N   UNL     1      34.611 -22.310 -17.793  0.00  0.00    -0.186 N 
ATOM      2  N   UNL     1      35.572 -22.698 -16.919  0.00  0.00    -0.162 NA
ATOM      3  N   UNL     1      32.654 -21.966 -18.730  0.00  0.00    -0.126 NA
ATOM      4  N   UNL     1      33.632 -21.443 -19.552  0.00  0.00    -0.120 NA
ATOM      5  C   UNL     1      35.108 -23.296 -15.859  0.00  0.00    +0.104 C 
ATOM      6  C   UNL     1      33.252 -22.483 -17.677  0.00  0.00    +0.187 A 
ATOM      7  C   UNL     1      34.794 -21.659 -18.979  0.00  0.00    +0.217 A 
ATOM      8  C   UNL     1      33.655 -23.569 -15.607  0.00  0.00    +0.024 C 
ATOM      9  C   UNL     1      32.780 -23.149 -16.529  0.00  0.00    +0.042 C 
ENDROOT
BRANCH   5  12
ATOM     10  N   UNL     1      37.037 -24.940 -13.258  0.00  0.00    -0.208 N 
ATOM     11  N   UNL     1      37.858 -23.888 -13.415  0.00  0.00    -0.176 NA
ATOM     12  C   UNL     1      36.062 -23.765 -14.821  0.00  0.00    +0.056 C 
ATOM     13  C   UNL     1      35.945 -24.913 -14.077  0.00  0.00    +0.087 C 
ATOM     14  C   UNL     1      37.258 -23.174 -14.371  0.00  0.00    +0.121 C 
ATOM     15  C   UNL     1      37.355 -25.960 -12.288  0.00  0.00    +0.140 C 
ENDBRANCH   5  12
BRANCH   7  16
ATOM     16  S   UNL     1      36.398 -21.190 -19.610  0.00  0.00    -0.051 S 
BRANCH  16  19
ATOM     17  N   UNL     1      34.971 -16.723 -23.270  0.00  0.00    -0.248 NA
ATOM     18  C   UNL     1      34.892 -19.072 -22.742  0.00  0.00    -0.003 C 
ATOM     19  C   UNL     1      35.965 -19.860 -20.712  0.00  0.00    +0.011 C 
ATOM     20  C   UNL     1      35.283 -17.748 -22.455  0.00  0.00    +0.060 C 
ATOM     21  C   UNL     1      35.236 -20.118 -21.869  0.00  0.00    +0.060 C 
ATOM     22  C   UNL     1      36.354 -18.558 -20.424  0.00  0.00    -0.017 C 
ATOM     23  C   UNL     1      36.012 -17.518 -21.291  0.00  0.00    +0.072 C 
ATOM     24  C   UNL     1      34.158 -19.304 -23.913  0.00  0.00    -0.001 C 
ATOM     25  C   UNL     1      33.835 -18.250 -24.755  0.00  0.00    +0.020 C 
ATOM     26  C   UNL     1      34.262 -16.989 -24.390  0.00  0.00    +0.098 C 
ENDBRANCH  16  19
ENDBRANCH   7  16
TORSDOF 3
ENDMDL
MODEL 4
REMARK VINA RESULT:     -10.8      3.322      6.312
REMARK  Name = 24779724
REMARK  3 active torsions:
REMARK  status: ('A' for Active; 'I' for Inactive)
REMARK    1  A    between atoms: C_5  and  C_12
REMARK    2  A    between atoms: C_7  and  S_16
REMARK    3  A    between atoms: S_16  and  C_19
REMARK                            x       y       z     vdW  Elec       q    Type
REMARK                         _______ _______ _______ _____ _____    ______ ____
ROOT
ATOM      1  N   UNL     1      34.893 -17.226 -21.961  0.00  0.00    -0.186 N 
ATOM      2  N   UNL     1      34.878 -18.079 -20.908  0.00  0.00    -0.162 NA
ATOM      3  N   UNL     1      34.961 -16.438 -24.011  0.00  0.00    -0.126 NA
ATOM      4  N   UNL     1      34.858 -15.376 -23.136  0.00  0.00    -0.120 NA
ATOM      5  C   UNL     1      34.953 -19.335 -21.247  0.00  0.00    +0.104 C 
ATOM      6  C   UNL     1      34.981 -17.544 -23.296  0.00  0.00    +0.187 A 
ATOM      7  C   UNL     1      34.820 -15.864 -21.916  0.00  0.00    +0.217 A 
ATOM      8  C   UNL     1      35.072 -19.827 -22.658  0.00  0.00    +0.024 C 
ATOM      9  C   UNL     1      35.079 -18.909 -23.632  0.00  0.00    +0.042 C 
ENDROOT
BRANCH   5  12
ATOM     10  N   UNL     1      34.283 -21.847 -18.711  0.00  0.00    -0.208 N 
ATOM     11  N   UNL     1      35.621 -21.860 -18.588  0.00  0.00    -0.176 NA
ATOM     12  C   UNL     1      34.941 -20.370 -20.181  0.00  0.00    +0.056 C 
ATOM     13  C   UNL     1      33.825 -20.971 -19.652  0.00  0.00    +0.087 C 
ATOM     14  C   UNL     1      36.018 -20.957 -19.488  0.00  0.00    +0.121 C 
ATOM     15  C   UNL     1      33.478 -22.713 -17.883  0.00  0.00    +0.140 C 
ENDBRANCH   5  12
BRANCH   7  16
ATOM     16  S   UNL     1      34.691 -14.933 -20.398  0.00  0.00    -0.051 S 
BRANCH  16  19
ATOM     17  N   UNL     1      31.066 -10.504 -22.021  0.00  0.00    -0.248 NA
ATOM     18  C   UNL     1      33.085 -11.768 -22.388  0.00  0.00    -0.003 C 
ATOM     19  C   UNL     1      33.612 -13.605 -20.893  0.00  0.00    +0.011 C 
ATOM     20  C   UNL     1      31.900 -11.502 -21.671  0.00  0.00    +0.060 C 
ATOM     21  C   UNL     1      33.932 -12.817 -21.995  0.00  0.00    +0.060 C 
ATOM     22  C   UNL     1      32.447 -13.348 -20.181  0.00  0.00    -0.017 C 
ATOM     23  C   UNL     1      31.605 -12.305 -20.572  0.00  0.00    +0.072 C 
ATOM     24  C   UNL     1      33.381 -10.960 -23.494  0.00  0.00    -0.001 C 
ATOM     25  C   UNL     1      32.524  -9.931 -23.858  0.00  0.00    +0.020 C 
ATOM     26  C   UNL     1      31.389  -9.748 -23.094  0.00  0.00    +0.098 C 
ENDBRANCH  16  19
ENDBRANCH   7  16
TORSDOF 3
ENDMDL
MODEL 5
REMARK VINA RESULT:     -10.6      3.626      6.224
REMARK  Name = 24779724
REMARK  3 active torsions:
REMARK  status: ('A' for Active; 'I' for Inactive)
REMARK    1  A    between atoms: C_5  and  C_12
REMARK    2  A    between atoms: C_7  and  S_16
REMARK    3  A    between atoms: S_16  and  C_19
REMARK                            x       y       z     vdW  Elec       q    Type
REMARK                         _______ _______ _______ _____ _____    ______ ____
ROOT
ATOM      1  N   UNL     1      32.774 -23.207 -15.872  0.00  0.00    -0.186 N 
ATOM      2  N   UNL     1      31.489 -23.147 -16.299  0.00  0.00    -0.162 NA
ATOM      3  N   UNL     1      34.547 -23.206 -14.576  0.00  0.00    -0.126 NA
ATOM      4  N   UNL     1      34.957 -23.404 -15.878  0.00  0.00    -0.120 NA
ATOM      5  C   UNL     1      30.625 -22.960 -15.342  0.00  0.00    +0.104 C 
ATOM      6  C   UNL     1      33.236 -23.089 -14.583  0.00  0.00    +0.187 A 
ATOM      7  C   UNL     1      33.887 -23.401 -16.640  0.00  0.00    +0.217 A 
ATOM      8  C   UNL     1      30.984 -22.796 -13.895  0.00  0.00    +0.024 C 
ATOM      9  C   UNL     1      32.281 -22.869 -13.570  0.00  0.00    +0.042 C 
ENDROOT
BRANCH   5  12
ATOM     10  N   UNL     1      27.043 -22.432 -15.624  0.00  0.00    -0.208 N 
ATOM     11  N   UNL     1      27.182 -23.141 -16.758  0.00  0.00    -0.176 NA
ATOM     12  C   UNL     1      29.181 -22.882 -15.681  0.00  0.00    +0.056 C 
ATOM     13  C   UNL     1      28.211 -22.250 -14.942  0.00  0.00    +0.087 C 
ATOM     14  C   UNL     1      28.490 -23.412 -16.787  0.00  0.00    +0.121 C 
ATOM     15  C   UNL     1      25.740 -21.946 -15.237  0.00  0.00    +0.140 C 
ENDBRANCH   5  12
BRANCH   7  16
ATOM     16  S   UNL     1      33.837 -23.615 -18.412  0.00  0.00    -0.051 S 
BRANCH  16  19
ATOM     17  N   UNL     1      37.079 -18.965 -20.216  0.00  0.00    -0.248 NA
ATOM     18  C   UNL     1      35.111 -20.336 -20.457  0.00  0.00    -0.003 C 
ATOM     19  C   UNL     1      34.799 -22.220 -18.960  0.00  0.00    +0.011 C 
ATOM     20  C   UNL     1      36.330 -20.012 -19.824  0.00  0.00    +0.060 C 
ATOM     21  C   UNL     1      34.355 -21.436 -20.021  0.00  0.00    +0.060 C 
ATOM     22  C   UNL     1      35.998 -21.908 -18.332  0.00  0.00    -0.017 C 
ATOM     23  C   UNL     1      36.750 -20.814 -18.765  0.00  0.00    +0.072 C 
ATOM     24  C   UNL     1      34.688 -19.529 -21.522  0.00  0.00    -0.001 C 
ATOM     25  C   UNL     1      35.458 -18.449 -21.929  0.00  0.00    +0.020 C 
ATOM     26  C   UNL     1      36.635 -18.212 -21.248  0.00  0.00    +0.098 C 
ENDBRANCH  16  19
ENDBRANCH   7  16
TORSDOF 3
ENDMDL
MODEL 6
REMARK VINA RESULT:     -10.3      7.318     13.585
REMARK  Name = 24779724
REMARK  3 active torsions:
REMARK  status: ('A' for Active; 'I' for Inactive)
REMARK    1  A    between atoms: C_5  and  C_12
REMARK    2  A    between atoms: C_7  and  S_16
REMARK    3  A    between atoms: S_16  and  C_19
REMARK                            x       y       z     vdW  Elec       q    Type
REMARK                         _______ _______ _______ _____ _____    ______ ____
ROOT
ATOM      1  N   UNL     1      32.054  -8.905 -20.902  0.00  0.00    -0.186 N 
ATOM      2  N   UNL     1      32.335  -8.531 -22.175  0.00  0.00    -0.162 NA
ATOM      3  N   UNL     1      31.927  -8.923 -18.709  0.00  0.00    -0.126 NA
ATOM      4  N   UNL     1      31.299 -10.053 -19.194  0.00  0.00    -0.120 NA
ATOM      5  C   UNL     1      32.982  -7.403 -22.260  0.00  0.00    +0.104 C 
ATOM      6  C   UNL     1      32.376  -8.241 -19.742  0.00  0.00    +0.187 A 
ATOM      7  C   UNL     1      31.385 -10.027 -20.505  0.00  0.00    +0.217 A 
ATOM      8  C   UNL     1      33.414  -6.581 -21.082  0.00  0.00    +0.024 C 
ATOM      9  C   UNL     1      33.091  -7.034 -19.864  0.00  0.00    +0.042 C 
ENDROOT
BRANCH   5  12
ATOM     10  N   UNL     1      34.442  -6.007 -25.278  0.00  0.00    -0.208 N 
ATOM     11  N   UNL     1      33.231  -6.267 -25.801  0.00  0.00    -0.176 NA
ATOM     12  C   UNL     1      33.344  -6.881 -23.603  0.00  0.00    +0.056 C 
ATOM     13  C   UNL     1      34.561  -6.356 -23.964  0.00  0.00    +0.087 C 
ATOM     14  C   UNL     1      32.565  -6.801 -24.774  0.00  0.00    +0.121 C 
ATOM     15  C   UNL     1      35.466  -5.412 -26.102  0.00  0.00    +0.140 C 
ENDBRANCH   5  12
BRANCH   7  16
ATOM     16  S   UNL     1      30.741 -11.246 -21.641  0.00  0.00    -0.051 S 
BRANCH  16  19
ATOM     17  N   UNL     1      34.715 -15.625 -20.993  0.00  0.00    -0.248 NA
ATOM     18  C   UNL     1      33.450 -14.175 -22.443  0.00  0.00    -0.003 C 
ATOM     19  C   UNL     1      31.933 -12.557 -21.458  0.00  0.00    +0.011 C 
ATOM     20  C   UNL     1      33.819 -14.635 -21.162  0.00  0.00    +0.060 C 
ATOM     21  C   UNL     1      32.511 -13.140 -22.582  0.00  0.00    +0.060 C 
ATOM     22  C   UNL     1      32.290 -13.006 -20.193  0.00  0.00    -0.017 C 
ATOM     23  C   UNL     1      33.224 -14.035 -20.055  0.00  0.00    +0.072 C 
ATOM     24  C   UNL     1      34.048 -14.779 -23.557  0.00  0.00    -0.001 C 
ATOM     25  C   UNL     1      34.972 -15.799 -23.387  0.00  0.00    +0.020 C 
ATOM     26  C   UNL     1      35.268 -16.181 -22.094  0.00  0.00    +0.098 C 
ENDBRANCH  16  19
ENDBRANCH   7  16
TORSDOF 3
ENDMDL
MODEL 7
REMARK VINA RESULT:     -10.3      6.082     12.588
REMARK  Name = 24779724
REMARK  3 active torsions:
REMARK  status: ('A' for Active; 'I' for Inactive)
REMARK    1  A    between atoms: C_5  and  C_12
REMARK    2  A    between atoms: C_7  and  S_16
REMARK    3  A    between atoms: S_16  and  C_19
REMARK                            x       y       z     vdW  Elec       q    Type
REMARK                         _______ _______ _______ _____ _____    ______ ____
ROOT
ATOM      1  N   UNL     1      32.688 -10.880 -22.443  0.00  0.00    -0.186 N 
ATOM      2  N   UNL     1      33.428  -9.961 -23.110  0.00  0.00    -0.162 NA
ATOM      3  N   UNL     1      31.250 -11.801 -21.061  0.00  0.00    -0.126 NA
ATOM      4  N   UNL     1      31.855 -12.802 -21.795  0.00  0.00    -0.120 NA
ATOM      5  C   UNL     1      33.192  -8.732 -22.746  0.00  0.00    +0.104 C 
ATOM      6  C   UNL     1      31.756 -10.653 -21.457  0.00  0.00    +0.187 A 
ATOM      7  C   UNL     1      32.712 -12.235 -22.614  0.00  0.00    +0.217 A 
ATOM      8  C   UNL     1      32.220  -8.336 -21.675  0.00  0.00    +0.024 C 
ATOM      9  C   UNL     1      31.536  -9.316 -21.072  0.00  0.00    +0.042 C 
ENDROOT
BRANCH   5  12
ATOM     10  N   UNL     1      34.456  -5.920 -24.665  0.00  0.00    -0.208 N 
ATOM     11  N   UNL     1      35.604  -6.193 -24.022  0.00  0.00    -0.176 NA
ATOM     12  C   UNL     1      33.937  -7.630 -23.408  0.00  0.00    +0.056 C 
ATOM     13  C   UNL     1      33.427  -6.752 -24.333  0.00  0.00    +0.087 C 
ATOM     14  C   UNL     1      35.281  -7.238 -23.255  0.00  0.00    +0.121 C 
ATOM     15  C   UNL     1      34.405  -4.828 -25.607  0.00  0.00    +0.140 C 
ENDBRANCH   5  12
BRANCH   7  16
ATOM     16  S   UNL     1      33.769 -13.061 -23.793  0.00  0.00    -0.051 S 
BRANCH  16  19
ATOM     17  N   UNL     1      35.532 -17.777 -20.624  0.00  0.00    -0.248 NA
ATOM     18  C   UNL     1      34.875 -16.834 -22.742  0.00  0.00    -0.003 C 
ATOM     19  C   UNL     1      34.297 -14.479 -22.854  0.00  0.00    +0.011 C 
ATOM     20  C   UNL     1      35.133 -16.723 -21.360  0.00  0.00    +0.060 C 
ATOM     21  C   UNL     1      34.459 -15.712 -23.479  0.00  0.00    +0.060 C 
ATOM     22  C   UNL     1      34.549 -14.363 -21.493  0.00  0.00    -0.017 C 
ATOM     23  C   UNL     1      34.963 -15.477 -20.760  0.00  0.00    +0.072 C 
ATOM     24  C   UNL     1      35.046 -18.087 -23.345  0.00  0.00    -0.001 C 
ATOM     25  C   UNL     1      35.457 -19.176 -22.591  0.00  0.00    +0.020 C 
ATOM     26  C   UNL     1      35.686 -18.969 -21.245  0.00  0.00    +0.098 C 
ENDBRANCH  16  19
ENDBRANCH   7  16
TORSDOF 3
ENDMDL
MODEL 8
REMARK VINA RESULT:     -10.2      7.026     12.431
REMARK  Name = 24779724
REMARK  3 active torsions:
REMARK  status: ('A' for Active; 'I' for Inactive)
REMARK    1  A    between atoms: C_5  and  C_12
REMARK    2  A    between atoms: C_7  and  S_16
REMARK    3  A    between atoms: S_16  and  C_19
REMARK                            x       y       z     vdW  Elec       q    Type
REMARK                         _______ _______ _______ _____ _____    ______ ____
ROOT
ATOM      1  N   UNL     1      32.251 -10.797 -21.226  0.00  0.00    -0.186 N 
ATOM      2  N   UNL     1      32.308  -9.512 -21.653  0.00  0.00    -0.162 NA
ATOM      3  N   UNL     1      31.892 -12.572 -19.982  0.00  0.00    -0.126 NA
ATOM      4  N   UNL     1      32.437 -12.981 -21.182  0.00  0.00    -0.120 NA
ATOM      5  C   UNL     1      31.852  -8.650 -20.788  0.00  0.00    +0.104 C 
ATOM      6  C   UNL     1      31.785 -11.260 -20.018  0.00  0.00    +0.187 A 
ATOM      7  C   UNL     1      32.647 -11.909 -21.912  0.00  0.00    +0.217 A 
ATOM      8  C   UNL     1      31.330  -9.007 -19.429  0.00  0.00    +0.024 C 
ATOM      9  C   UNL     1      31.314 -10.304 -19.096  0.00  0.00    +0.042 C 
ENDROOT
BRANCH   5  12
ATOM     10  N   UNL     1      31.456  -5.295 -22.122  0.00  0.00    -0.208 N 
ATOM     11  N   UNL     1      32.300  -4.966 -21.129  0.00  0.00    -0.176 NA
ATOM     12  C   UNL     1      31.855  -7.207 -21.141  0.00  0.00    +0.056 C 
ATOM     13  C   UNL     1      31.158  -6.626 -22.172  0.00  0.00    +0.087 C 
ATOM     14  C   UNL     1      32.539  -6.136 -20.533  0.00  0.00    +0.121 C 
ATOM     15  C   UNL     1      30.958  -4.272 -23.009  0.00  0.00    +0.140 C 
ENDBRANCH   5  12
BRANCH   7  16
ATOM     16  S   UNL     1      33.339 -11.857 -23.558  0.00  0.00    -0.051 S 
BRANCH  16  19
ATOM     17  N   UNL     1      34.316 -17.628 -24.621  0.00  0.00    -0.248 NA
ATOM     18  C   UNL     1      34.588 -15.712 -23.185  0.00  0.00    -0.003 C 
ATOM     19  C   UNL     1      33.636 -13.586 -23.866  0.00  0.00    +0.011 C 
ATOM     20  C   UNL     1      34.106 -16.324 -24.361  0.00  0.00    +0.060 C 
ATOM     21  C   UNL     1      34.350 -14.348 -22.946  0.00  0.00    +0.060 C 
ATOM     22  C   UNL     1      33.159 -14.182 -25.027  0.00  0.00    -0.017 C 
ATOM     23  C   UNL     1      33.395 -15.538 -25.264  0.00  0.00    +0.072 C 
ATOM     24  C   UNL     1      35.303 -16.503 -22.276  0.00  0.00    -0.001 C 
ATOM     25  C   UNL     1      35.522 -17.847 -22.541  0.00  0.00    +0.020 C 
ATOM     26  C   UNL     1      35.011 -18.356 -23.718  0.00  0.00    +0.098 C 
ENDBRANCH  16  19
ENDBRANCH   7  16
TORSDOF 3
ENDMDL
MODEL 9
REMARK VINA RESULT:     -10.2      4.329      8.036
REMARK  Name = 24779724
REMARK  3 active torsions:
REMARK  status: ('A' for Active; 'I' for Inactive)
REMARK    1  A    between atoms: C_5  and  C_12
REMARK    2  A    between atoms: C_7  and  S_16
REMARK    3  A    between atoms: S_16  and  C_19
REMARK                            x       y       z     vdW  Elec       q    Type
REMARK                         _______ _______ _______ _____ _____    ______ ____
ROOT
ATOM      1  N   UNL     1      34.313 -15.696 -23.390  0.00  0.00    -0.186 N 
ATOM      2  N   UNL     1      34.867 -16.407 -22.377  0.00  0.00    -0.162 NA
ATOM      3  N   UNL     1      33.420 -15.166 -25.326  0.00  0.00    -0.126 NA
ATOM      4  N   UNL     1      33.497 -14.026 -24.552  0.00  0.00    -0.120 NA
ATOM      5  C   UNL     1      35.012 -17.675 -22.641  0.00  0.00    +0.104 C 
ATOM      6  C   UNL     1      33.912 -16.163 -24.620  0.00  0.00    +0.187 A 
ATOM      7  C   UNL     1      34.034 -14.360 -23.400  0.00  0.00    +0.217 A 
ATOM      8  C   UNL     1      34.637 -18.318 -23.943  0.00  0.00    +0.024 C 
ATOM      9  C   UNL     1      34.097 -17.534 -24.885  0.00  0.00    +0.042 C 
ENDROOT
BRANCH   5  12
ATOM     10  N   UNL     1      35.887 -20.144 -20.126  0.00  0.00    -0.208 N 
ATOM     11  N   UNL     1      37.065 -19.497 -20.121  0.00  0.00    -0.176 NA
ATOM     12  C   UNL     1      35.603 -18.562 -21.607  0.00  0.00    +0.056 C 
ATOM     13  C   UNL     1      34.977 -19.622 -20.999  0.00  0.00    +0.087 C 
ATOM     14  C   UNL     1      36.887 -18.533 -21.028  0.00  0.00    +0.121 C 
ATOM     15  C   UNL     1      35.687 -21.277 -19.255  0.00  0.00    +0.140 C 
ENDBRANCH   5  12
BRANCH   7  16
ATOM     16  S   UNL     1      34.368 -13.273 -22.023  0.00  0.00    -0.051 S 
BRANCH  16  19
ATOM     17  N   UNL     1      30.465  -8.895 -23.018  0.00  0.00    -0.248 NA
ATOM     18  C   UNL     1      32.675  -9.807 -23.320  0.00  0.00    -0.003 C 
ATOM     19  C   UNL     1      33.207 -11.957 -22.327  0.00  0.00    +0.011 C 
ATOM     20  C   UNL     1      31.364  -9.875 -22.805  0.00  0.00    +0.060 C 
ATOM     21  C   UNL     1      33.587 -10.848 -23.078  0.00  0.00    +0.060 C 
ATOM     22  C   UNL     1      31.918 -12.030 -21.817  0.00  0.00    -0.017 C 
ATOM     23  C   UNL     1      31.011 -10.995 -22.057  0.00  0.00    +0.072 C 
ATOM     24  C   UNL     1      33.030  -8.680 -24.072  0.00  0.00    -0.001 C 
ATOM     25  C   UNL     1      32.107  -7.668 -24.293  0.00  0.00    +0.020 C 
ATOM     26  C   UNL     1      30.848  -7.824 -23.749  0.00  0.00    +0.098 C 
ENDBRANCH  16  19
ENDBRANCH   7  16
TORSDOF 3
ENDMDL
