MODEL 1
REMARK VINA RESULT:     -12.4      0.000      0.000
REMARK  Name = 9999276
REMARK  5 active torsions:
REMARK  status: ('A' for Active; 'I' for Inactive)
REMARK    1  A    between atoms: C_3  and  C_11
REMARK    2  A    between atoms: C_6  and  C_20
REMARK    3  A    between atoms: C_14  and  N_19
REMARK    4  A    between atoms: C_25  and  C_27
REMARK    5  A    between atoms: C_27  and  O_28
REMARK                            x       y       z     vdW  Elec       q    Type
REMARK                         _______ _______ _______ _____ _____    ______ ____
ROOT
ATOM      1  N   UNL     1      34.699 -23.297 -16.095  0.00  0.00    -0.400 NA
ATOM      2  N   UNL     1      32.744 -24.996 -13.522  0.00  0.00    -0.242 NA
ATOM      3  C   UNL     1      34.328 -24.018 -15.010  0.00  0.00    +0.149 C 
ATOM      4  C   UNL     1      33.022 -24.265 -14.619  0.00  0.00    +0.107 C 
ATOM      5  C   UNL     1      32.016 -23.712 -15.429  0.00  0.00    +0.005 C 
ATOM      6  C   UNL     1      33.702 -22.786 -16.844  0.00  0.00    +0.131 C 
ATOM      7  C   UNL     1      32.359 -22.961 -16.560  0.00  0.00    +0.030 C 
ATOM      8  C   UNL     1      30.681 -23.940 -15.067  0.00  0.00    +0.056 C 
ATOM      9  C   UNL     1      30.385 -24.692 -13.938  0.00  0.00    -0.001 C 
ATOM     10  C   UNL     1      31.443 -25.193 -13.206  0.00  0.00    +0.095 C 
ENDROOT
BRANCH   3  11
ATOM     11  C   UNL     1      35.452 -24.534 -14.257  0.00  0.00    +0.033 C 
ATOM     12  C   UNL     1      35.849 -23.904 -13.079  0.00  0.00    +0.027 C 
ATOM     13  C   UNL     1      36.136 -25.660 -14.714  0.00  0.00    +0.003 C 
ATOM     14  C   UNL     1      36.932 -24.402 -12.354  0.00  0.00    +0.143 C 
ATOM     15  C   UNL     1      37.219 -26.158 -13.989  0.00  0.00    +0.002 C 
ATOM     16  C   UNL     1      37.618 -25.528 -12.810  0.00  0.00    +0.024 C 
BRANCH  14  19
ATOM     17  O   UNL     1      36.759 -24.065 -10.084  0.00  0.00    -0.126 OA
ATOM     18  O   UNL     1      38.260 -22.915 -11.204  0.00  0.00    -0.126 OA
ATOM     19  N   UNL     1      37.338 -23.761 -11.154  0.00  0.00    +0.058 N 
ENDBRANCH  14  19
ENDBRANCH   3  11
BRANCH   6  20
ATOM     20  C   UNL     1      34.129 -22.022 -17.992  0.00  0.00    +0.030 C 
ATOM     21  C   UNL     1      35.489 -21.879 -18.274  0.00  0.00    +0.003 C 
ATOM     22  C   UNL     1      33.181 -21.422 -18.825  0.00  0.00    +0.003 C 
ATOM     23  C   UNL     1      35.901 -21.141 -19.384  0.00  0.00    +0.007 C 
ATOM     24  C   UNL     1      33.593 -20.683 -19.935  0.00  0.00    +0.007 C 
ATOM     25  C   UNL     1      34.952 -20.543 -20.214  0.00  0.00    +0.075 C 
BRANCH  25  27
ATOM     26  O   UNL     1      34.854 -19.807 -22.489  0.00  0.00    -0.245 OA
ATOM     27  C   UNL     1      35.380 -19.773 -21.371  0.00  0.00    +0.338 C 
BRANCH  27  28
ATOM     28  O   UNL     1      36.453 -18.981 -21.101  0.00  0.00    -0.477 OA
ATOM     29  H   UNL     1      37.163 -18.927 -21.711  0.00  0.00    +0.295 HD
ENDBRANCH  27  28
ENDBRANCH  25  27
ENDBRANCH   6  20
TORSDOF 5
ENDMDL
MODEL 2
REMARK VINA RESULT:     -12.1      1.710      2.140
REMARK  Name = 9999276
REMARK  5 active torsions:
REMARK  status: ('A' for Active; 'I' for Inactive)
REMARK    1  A    between atoms: C_3  and  C_11
REMARK    2  A    between atoms: C_6  and  C_20
REMARK    3  A    between atoms: C_14  and  N_19
REMARK    4  A    between atoms: C_25  and  C_27
REMARK    5  A    between atoms: C_27  and  O_28
REMARK                            x       y       z     vdW  Elec       q    Type
REMARK                         _______ _______ _______ _____ _____    ______ ____
ROOT
ATOM      1  N   UNL     1      34.904 -22.935 -16.267  0.00  0.00    -0.400 NA
ATOM      2  N   UNL     1      33.129 -24.783 -13.667  0.00  0.00    -0.242 NA
ATOM      3  C   UNL     1      34.604 -23.650 -15.157  0.00  0.00    +0.149 C 
ATOM      4  C   UNL     1      33.336 -24.071 -14.793  0.00  0.00    +0.107 C 
ATOM      5  C   UNL     1      32.289 -23.715 -15.660  0.00  0.00    +0.005 C 
ATOM      6  C   UNL     1      33.871 -22.615 -17.071  0.00  0.00    +0.131 C 
ATOM      7  C   UNL     1      32.559 -22.975 -16.819  0.00  0.00    +0.030 C 
ATOM      8  C   UNL     1      30.991 -24.123 -15.327  0.00  0.00    +0.056 C 
ATOM      9  C   UNL     1      30.767 -24.857 -14.169  0.00  0.00    -0.001 C 
ATOM     10  C   UNL     1      31.860 -25.158 -13.381  0.00  0.00    +0.095 C 
ENDROOT
BRANCH   3  11
ATOM     11  C   UNL     1      35.764 -23.956 -14.345  0.00  0.00    +0.033 C 
ATOM     12  C   UNL     1      36.645 -24.959 -14.741  0.00  0.00    +0.027 C 
ATOM     13  C   UNL     1      35.994 -23.246 -13.167  0.00  0.00    +0.003 C 
ATOM     14  C   UNL     1      37.762 -25.253 -13.959  0.00  0.00    +0.143 C 
ATOM     15  C   UNL     1      37.111 -23.540 -12.385  0.00  0.00    +0.002 C 
ATOM     16  C   UNL     1      37.994 -24.544 -12.780  0.00  0.00    +0.024 C 
BRANCH  14  19
ATOM     17  O   UNL     1      38.319 -27.473 -14.213  0.00  0.00    -0.126 OA
ATOM     18  O   UNL     1      39.767 -25.948 -14.851  0.00  0.00    -0.126 OA
ATOM     19  N   UNL     1      38.662 -26.276 -14.361  0.00  0.00    +0.058 N 
ENDBRANCH  14  19
ENDBRANCH   3  11
BRANCH   6  20
ATOM     20  C   UNL     1      34.222 -21.851 -18.245  0.00  0.00    +0.030 C 
ATOM     21  C   UNL     1      33.224 -21.269 -19.029  0.00  0.00    +0.003 C 
ATOM     22  C   UNL     1      35.564 -21.693 -18.601  0.00  0.00    +0.003 C 
ATOM     23  C   UNL     1      33.564 -20.531 -20.162  0.00  0.00    +0.007 C 
ATOM     24  C   UNL     1      35.904 -20.955 -19.735  0.00  0.00    +0.007 C 
ATOM     25  C   UNL     1      34.905 -20.374 -20.515  0.00  0.00    +0.075 C 
BRANCH  25  27
ATOM     26  O   UNL     1      34.675 -19.649 -22.784  0.00  0.00    -0.245 OA
ATOM     27  C   UNL     1      35.261 -19.605 -21.697  0.00  0.00    +0.338 C 
BRANCH  27  28
ATOM     28  O   UNL     1      36.339 -18.801 -21.489  0.00  0.00    -0.477 OA
ATOM     29  H   UNL     1      36.246 -18.008 -20.997  0.00  0.00    +0.295 HD
ENDBRANCH  27  28
ENDBRANCH  25  27
ENDBRANCH   6  20
TORSDOF 5
ENDMDL
MODEL 3
REMARK VINA RESULT:     -11.3      3.261      5.284
REMARK  Name = 9999276
REMARK  5 active torsions:
REMARK  status: ('A' for Active; 'I' for Inactive)
REMARK    1  A    between atoms: C_3  and  C_11
REMARK    2  A    between atoms: C_6  and  C_20
REMARK    3  A    between atoms: C_14  and  N_19
REMARK    4  A    between atoms: C_25  and  C_27
REMARK    5  A    between atoms: C_27  and  O_28
REMARK                            x       y       z     vdW  Elec       q    Type
REMARK                         _______ _______ _______ _____ _____    ______ ____
ROOT
ATOM      1  N   UNL     1      33.367 -22.729 -16.804  0.00  0.00    -0.400 NA
ATOM      2  N   UNL     1      34.152 -24.517 -13.720  0.00  0.00    -0.242 NA
ATOM      3  C   UNL     1      33.273 -23.438 -15.654  0.00  0.00    +0.149 C 
ATOM      4  C   UNL     1      34.339 -23.810 -14.852  0.00  0.00    +0.107 C 
ATOM      5  C   UNL     1      35.614 -23.408 -15.285  0.00  0.00    +0.005 C 
ATOM      6  C   UNL     1      34.607 -22.363 -17.182  0.00  0.00    +0.131 C 
ATOM      7  C   UNL     1      35.752 -22.672 -16.470  0.00  0.00    +0.030 C 
ATOM      8  C   UNL     1      36.718 -23.764 -14.501  0.00  0.00    +0.056 C 
ATOM      9  C   UNL     1      36.536 -24.493 -13.333  0.00  0.00    -0.001 C 
ATOM     10  C   UNL     1      35.245 -24.842 -12.990  0.00  0.00    +0.095 C 
ENDROOT
BRANCH   3  11
ATOM     11  C   UNL     1      31.911 -23.793 -15.313  0.00  0.00    +0.033 C 
ATOM     12  C   UNL     1      30.851 -23.289 -16.065  0.00  0.00    +0.027 C 
ATOM     13  C   UNL     1      31.662 -24.637 -14.231  0.00  0.00    +0.003 C 
ATOM     14  C   UNL     1      29.540 -23.630 -15.735  0.00  0.00    +0.143 C 
ATOM     15  C   UNL     1      30.351 -24.979 -13.901  0.00  0.00    +0.002 C 
ATOM     16  C   UNL     1      29.289 -24.474 -14.653  0.00  0.00    +0.024 C 
BRANCH  14  19
ATOM     17  O   UNL     1      27.785 -23.912 -17.199  0.00  0.00    -0.126 OA
ATOM     18  O   UNL     1      28.214 -21.890 -16.452  0.00  0.00    -0.126 OA
ATOM     19  N   UNL     1      28.459 -23.118 -16.501  0.00  0.00    +0.058 N 
ENDBRANCH  14  19
ENDBRANCH   3  11
BRANCH   6  20
ATOM     20  C   UNL     1      34.675 -21.609 -18.412  0.00  0.00    +0.030 C 
ATOM     21  C   UNL     1      33.505 -21.289 -19.104  0.00  0.00    +0.003 C 
ATOM     22  C   UNL     1      35.912 -21.199 -18.915  0.00  0.00    +0.003 C 
ATOM     23  C   UNL     1      33.571 -20.560 -20.292  0.00  0.00    +0.007 C 
ATOM     24  C   UNL     1      35.978 -20.470 -20.103  0.00  0.00    +0.007 C 
ATOM     25  C   UNL     1      34.808 -20.151 -20.790  0.00  0.00    +0.075 C 
BRANCH  25  27
ATOM     26  O   UNL     1      34.641 -19.838 -23.157  0.00  0.00    -0.245 OA
ATOM     27  C   UNL     1      34.878 -19.392 -22.029  0.00  0.00    +0.338 C 
BRANCH  27  28
ATOM     28  O   UNL     1      35.240 -18.096 -21.825  0.00  0.00    -0.477 OA
ATOM     29  H   UNL     1      36.038 -17.896 -21.374  0.00  0.00    +0.295 HD
ENDBRANCH  27  28
ENDBRANCH  25  27
ENDBRANCH   6  20
TORSDOF 5
ENDMDL
MODEL 4
REMARK VINA RESULT:     -10.2      2.160      4.511
REMARK  Name = 9999276
REMARK  5 active torsions:
REMARK  status: ('A' for Active; 'I' for Inactive)
REMARK    1  A    between atoms: C_3  and  C_11
REMARK    2  A    between atoms: C_6  and  C_20
REMARK    3  A    between atoms: C_14  and  N_19
REMARK    4  A    between atoms: C_25  and  C_27
REMARK    5  A    between atoms: C_27  and  O_28
REMARK                            x       y       z     vdW  Elec       q    Type
REMARK                         _______ _______ _______ _____ _____    ______ ____
ROOT
ATOM      1  N   UNL     1      34.317 -22.016 -17.514  0.00  0.00    -0.400 NA
ATOM      2  N   UNL     1      35.497 -23.800 -14.556  0.00  0.00    -0.242 NA
ATOM      3  C   UNL     1      34.374 -22.736 -16.369  0.00  0.00    +0.149 C 
ATOM      4  C   UNL     1      35.534 -23.079 -15.694  0.00  0.00    +0.107 C 
ATOM      5  C   UNL     1      36.739 -22.631 -16.262  0.00  0.00    +0.005 C 
ATOM      6  C   UNL     1      35.496 -21.607 -18.024  0.00  0.00    +0.131 C 
ATOM      7  C   UNL     1      36.721 -21.883 -17.446  0.00  0.00    +0.030 C 
ATOM      8  C   UNL     1      37.935 -22.957 -15.608  0.00  0.00    +0.056 C 
ATOM      9  C   UNL     1      37.907 -23.700 -14.435  0.00  0.00    -0.001 C 
ATOM     10  C   UNL     1      36.674 -24.093 -13.955  0.00  0.00    +0.095 C 
ENDROOT
BRANCH   3  11
ATOM     11  C   UNL     1      33.070 -23.138 -15.883  0.00  0.00    +0.033 C 
ATOM     12  C   UNL     1      32.950 -23.743 -14.633  0.00  0.00    +0.027 C 
ATOM     13  C   UNL     1      31.938 -22.919 -16.667  0.00  0.00    +0.003 C 
ATOM     14  C   UNL     1      31.694 -24.130 -14.166  0.00  0.00    +0.143 C 
ATOM     15  C   UNL     1      30.682 -23.306 -16.199  0.00  0.00    +0.002 C 
ATOM     16  C   UNL     1      30.560 -23.912 -14.949  0.00  0.00    +0.024 C 
BRANCH  14  19
ATOM     17  O   UNL     1      30.466 -24.688 -12.300  0.00  0.00    -0.126 OA
ATOM     18  O   UNL     1      32.566 -25.329 -12.404  0.00  0.00    -0.126 OA
ATOM     19  N   UNL     1      31.570 -24.746 -12.892  0.00  0.00    +0.058 N 
ENDBRANCH  14  19
ENDBRANCH   3  11
BRANCH   6  20
ATOM     20  C   UNL     1      35.402 -20.842 -19.245  0.00  0.00    +0.030 C 
ATOM     21  C   UNL     1      36.534 -20.213 -19.769  0.00  0.00    +0.003 C 
ATOM     22  C   UNL     1      34.177 -20.728 -19.907  0.00  0.00    +0.003 C 
ATOM     23  C   UNL     1      36.443 -19.476 -20.949  0.00  0.00    +0.007 C 
ATOM     24  C   UNL     1      34.086 -19.989 -21.088  0.00  0.00    +0.007 C 
ATOM     25  C   UNL     1      35.218 -19.364 -21.608  0.00  0.00    +0.075 C 
BRANCH  25  27
ATOM     26  O   UNL     1      34.376 -18.853 -23.789  0.00  0.00    -0.245 OA
ATOM     27  C   UNL     1      35.122 -18.594 -22.839  0.00  0.00    +0.338 C 
BRANCH  27  28
ATOM     28  O   UNL     1      35.959 -17.521 -22.848  0.00  0.00    -0.477 OA
ATOM     29  H   UNL     1      36.859 -17.625 -22.609  0.00  0.00    +0.295 HD
ENDBRANCH  27  28
ENDBRANCH  25  27
ENDBRANCH   6  20
TORSDOF 5
ENDMDL
MODEL 5
REMARK VINA RESULT:      -9.4     11.321     15.550
REMARK  Name = 9999276
REMARK  5 active torsions:
REMARK  status: ('A' for Active; 'I' for Inactive)
REMARK    1  A    between atoms: C_3  and  C_11
REMARK    2  A    between atoms: C_6  and  C_20
REMARK    3  A    between atoms: C_14  and  N_19
REMARK    4  A    between atoms: C_25  and  C_27
REMARK    5  A    between atoms: C_27  and  O_28
REMARK                            x       y       z     vdW  Elec       q    Type
REMARK                         _______ _______ _______ _____ _____    ______ ____
ROOT
ATOM      1  N   UNL     1      32.877 -11.035 -22.628  0.00  0.00    -0.400 NA
ATOM      2  N   UNL     1      31.595  -8.471 -20.369  0.00  0.00    -0.242 NA
ATOM      3  C   UNL     1      32.431  -9.867 -22.110  0.00  0.00    +0.149 C 
ATOM      4  C   UNL     1      32.025  -9.673 -20.800  0.00  0.00    +0.107 C 
ATOM      5  C   UNL     1      32.088 -10.796 -19.957  0.00  0.00    +0.005 C 
ATOM      6  C   UNL     1      32.922 -12.086 -21.785  0.00  0.00    +0.131 C 
ATOM      7  C   UNL     1      32.544 -12.023 -20.456  0.00  0.00    +0.030 C 
ATOM      8  C   UNL     1      31.685 -10.641 -18.624  0.00  0.00    +0.056 C 
ATOM      9  C   UNL     1      31.241  -9.406 -18.170  0.00  0.00    -0.001 C 
ATOM     10  C   UNL     1      31.215  -8.363 -19.074  0.00  0.00    +0.095 C 
ENDROOT
BRANCH   3  11
ATOM     11  C   UNL     1      32.413  -8.786 -23.074  0.00  0.00    +0.033 C 
ATOM     12  C   UNL     1      33.587  -8.096 -23.368  0.00  0.00    +0.027 C 
ATOM     13  C   UNL     1      31.219  -8.437 -23.705  0.00  0.00    +0.003 C 
ATOM     14  C   UNL     1      33.569  -7.055 -24.297  0.00  0.00    +0.143 C 
ATOM     15  C   UNL     1      31.201  -7.396 -24.633  0.00  0.00    +0.002 C 
ATOM     16  C   UNL     1      32.375  -6.704 -24.928  0.00  0.00    +0.024 C 
BRANCH  14  19
ATOM     17  O   UNL     1      35.686  -6.336 -23.747  0.00  0.00    -0.126 OA
ATOM     18  O   UNL     1      34.860  -5.769 -25.703  0.00  0.00    -0.126 OA
ATOM     19  N   UNL     1      34.765  -6.351 -24.598  0.00  0.00    +0.058 N 
ENDBRANCH  14  19
ENDBRANCH   3  11
BRANCH   6  20
ATOM     20  C   UNL     1      33.401 -13.318 -22.367  0.00  0.00    +0.030 C 
ATOM     21  C   UNL     1      33.079 -13.642 -23.687  0.00  0.00    +0.003 C 
ATOM     22  C   UNL     1      34.186 -14.191 -21.610  0.00  0.00    +0.003 C 
ATOM     23  C   UNL     1      33.542 -14.832 -24.249  0.00  0.00    +0.007 C 
ATOM     24  C   UNL     1      34.649 -15.381 -22.173  0.00  0.00    +0.007 C 
ATOM     25  C   UNL     1      34.327 -15.701 -23.491  0.00  0.00    +0.075 C 
BRANCH  25  27
ATOM     26  O   UNL     1      34.477 -17.392 -25.177  0.00  0.00    -0.245 OA
ATOM     27  C   UNL     1      34.810 -16.943 -24.075  0.00  0.00    +0.338 C 
BRANCH  27  28
ATOM     28  O   UNL     1      35.697 -17.587 -23.269  0.00  0.00    -0.477 OA
ATOM     29  H   UNL     1      36.613 -17.402 -23.336  0.00  0.00    +0.295 HD
ENDBRANCH  27  28
ENDBRANCH  25  27
ENDBRANCH   6  20
TORSDOF 5
ENDMDL
