MODEL 1
REMARK VINA RESULT:     -11.6      0.000      0.000
REMARK  Name = 49831257
REMARK  4 active torsions:
REMARK  status: ('A' for Active; 'I' for Inactive)
REMARK    1  A    between atoms: C_1  and  C_23
REMARK    2  A    between atoms: C_4  and  C_14
REMARK    3  A    between atoms: C_12  and  C_20
REMARK    4  A    between atoms: C_23  and  N_27
REMARK                            x       y       z     vdW  Elec       q    Type
REMARK                         _______ _______ _______ _____ _____    ______ ____
ROOT
ATOM      1  C   UNL     1      35.976 -18.797 -21.196  0.00  0.00    -0.043 C 
ATOM      2  C   UNL     1      35.758 -17.540 -20.633  0.00  0.00    -0.006 C 
ATOM      3  C   UNL     1      35.606 -19.042 -22.518  0.00  0.00    -0.006 C 
ATOM      4  C   UNL     1      34.800 -16.774 -22.714  0.00  0.00    +0.016 C 
ATOM      5  C   UNL     1      35.170 -16.528 -21.391  0.00  0.00    +0.001 C 
ATOM      6  C   UNL     1      35.018 -18.031 -23.278  0.00  0.00    +0.001 C 
ENDROOT
BRANCH   4  14
ATOM      7  O   UNL     1      31.300 -10.524 -21.327  0.00  0.00    -0.274 OA
ATOM      8  N   UNL     1      32.418 -12.426 -20.493  0.00  0.00    -0.217 N 
ATOM      9  N   UNL     1      33.558 -14.591 -22.914  0.00  0.00    -0.152 N 
ATOM     10  N   UNL     1      33.439 -14.285 -21.593  0.00  0.00    -0.092 NA
ATOM     11  N   UNL     1      32.455 -12.656 -22.855  0.00  0.00    -0.319 NA
ATOM     12  C   UNL     1      31.726 -11.204 -20.404  0.00  0.00    +0.234 C 
ATOM     13  C   UNL     1      32.775 -13.131 -21.623  0.00  0.00    +0.167 C 
ATOM     14  C   UNL     1      34.177 -15.706 -23.515  0.00  0.00    +0.077 C 
ATOM     15  C   UNL     1      32.949 -13.571 -23.659  0.00  0.00    +0.219 C 
ATOM     16  C   UNL     1      34.179 -15.789 -24.863  0.00  0.00    +0.017 C 
ATOM     17  C   UNL     1      32.965 -13.681 -25.076  0.00  0.00    +0.051 C 
ATOM     18  C   UNL     1      33.555 -14.742 -25.653  0.00  0.00    +0.005 C 
ATOM     19  H   UNL     1      32.684 -12.830 -19.635  0.00  0.00    +0.167 HD
BRANCH  12  20
ATOM     20  C   UNL     1      31.505 -10.720 -19.005  0.00  0.00    +0.077 C 
ATOM     21  C   UNL     1      31.133  -9.284 -18.781  0.00  0.00    +0.010 C 
ATOM     22  C   UNL     1      32.498  -9.775 -18.394  0.00  0.00    +0.010 C 
ENDBRANCH  12  20
ENDBRANCH   4  14
BRANCH   1  23
ATOM     23  C   UNL     1      36.613 -19.889 -20.377  0.00  0.00    -0.050 C 
BRANCH  23  27
ATOM     24  S   UNL     1      33.824 -22.699 -18.207  0.00  0.00    -0.014 S 
ATOM     25  O   UNL     1      32.943 -22.809 -17.062  0.00  0.00    -0.173 OA
ATOM     26  O   UNL     1      34.009 -23.812 -19.119  0.00  0.00    -0.173 OA
ATOM     27  N   UNL     1      35.667 -20.477 -19.425  0.00  0.00    +0.392 N 
ATOM     28  C   UNL     1      36.282 -21.641 -18.763  0.00  0.00    -0.051 C 
ATOM     29  C   UNL     1      34.419 -20.838 -20.119  0.00  0.00    -0.051 C 
ATOM     30  C   UNL     1      33.327 -21.278 -19.150  0.00  0.00    +0.128 C 
ATOM     31  C   UNL     1      35.421 -22.179 -17.626  0.00  0.00    +0.128 C 
ATOM     32  H   UNL     1      35.435 -19.796 -18.702  0.00  0.00    -0.079 HD
ENDBRANCH  23  27
ENDBRANCH   1  23
TORSDOF 4
ENDMDL
MODEL 2
REMARK VINA RESULT:     -11.2      4.616     11.037
REMARK  Name = 49831257
REMARK  4 active torsions:
REMARK  status: ('A' for Active; 'I' for Inactive)
REMARK    1  A    between atoms: C_1  and  C_23
REMARK    2  A    between atoms: C_4  and  C_14
REMARK    3  A    between atoms: C_12  and  C_20
REMARK    4  A    between atoms: C_23  and  N_27
REMARK                            x       y       z     vdW  Elec       q    Type
REMARK                         _______ _______ _______ _____ _____    ______ ____
ROOT
ATOM      1  C   UNL     1      35.279 -20.303 -20.716  0.00  0.00    -0.043 C 
ATOM      2  C   UNL     1      33.898 -20.236 -20.536  0.00  0.00    -0.006 C 
ATOM      3  C   UNL     1      36.064 -21.035 -19.825  0.00  0.00    -0.006 C 
ATOM      4  C   UNL     1      34.086 -21.631 -18.573  0.00  0.00    +0.016 C 
ATOM      5  C   UNL     1      33.301 -20.899 -19.464  0.00  0.00    +0.001 C 
ATOM      6  C   UNL     1      35.468 -21.699 -18.753  0.00  0.00    +0.001 C 
ENDROOT
BRANCH   4  14
ATOM      7  O   UNL     1      36.413 -25.387 -12.767  0.00  0.00    -0.274 OA
ATOM      8  N   UNL     1      36.947 -24.151 -14.703  0.00  0.00    -0.217 N 
ATOM      9  N   UNL     1      34.222 -22.984 -16.452  0.00  0.00    -0.152 N 
ATOM     10  N   UNL     1      35.575 -23.075 -16.337  0.00  0.00    -0.092 NA
ATOM     11  N   UNL     1      34.576 -24.179 -14.605  0.00  0.00    -0.319 NA
ATOM     12  C   UNL     1      37.222 -24.899 -13.544  0.00  0.00    +0.234 C 
ATOM     13  C   UNL     1      35.722 -23.796 -15.227  0.00  0.00    +0.167 C 
ATOM     14  C   UNL     1      33.457 -22.332 -17.440  0.00  0.00    +0.077 C 
ATOM     15  C   UNL     1      33.641 -23.667 -15.374  0.00  0.00    +0.219 C 
ATOM     16  C   UNL     1      32.111 -22.369 -17.337  0.00  0.00    +0.017 C 
ATOM     17  C   UNL     1      32.223 -23.691 -15.287  0.00  0.00    +0.051 C 
ATOM     18  C   UNL     1      31.489 -23.069 -16.226  0.00  0.00    +0.005 C 
ATOM     19  H   UNL     1      37.734 -23.838 -15.207  0.00  0.00    +0.167 HD
BRANCH  12  20
ATOM     20  C   UNL     1      38.680 -25.097 -13.269  0.00  0.00    +0.077 C 
ATOM     21  C   UNL     1      39.650 -25.051 -14.412  0.00  0.00    +0.010 C 
ATOM     22  C   UNL     1      39.347 -26.358 -13.738  0.00  0.00    +0.010 C 
ENDBRANCH  12  20
ENDBRANCH   4  14
BRANCH   1  23
ATOM     23  C   UNL     1      35.923 -19.588 -21.874  0.00  0.00    -0.050 C 
BRANCH  23  27
ATOM     24  S   UNL     1      34.246 -16.168 -24.299  0.00  0.00    -0.014 S 
ATOM     25  O   UNL     1      33.083 -15.319 -24.463  0.00  0.00    -0.173 OA
ATOM     26  O   UNL     1      35.414 -16.008 -25.143  0.00  0.00    -0.173 OA
ATOM     27  N   UNL     1      35.057 -18.536 -22.415  0.00  0.00    +0.392 N 
ATOM     28  C   UNL     1      34.759 -18.811 -23.831  0.00  0.00    -0.051 C 
ATOM     29  C   UNL     1      35.695 -17.221 -22.234  0.00  0.00    -0.051 C 
ATOM     30  C   UNL     1      34.763 -16.072 -22.602  0.00  0.00    +0.128 C 
ATOM     31  C   UNL     1      33.711 -17.860 -24.395  0.00  0.00    +0.128 C 
ATOM     32  H   UNL     1      34.171 -18.523 -21.909  0.00  0.00    -0.079 HD
ENDBRANCH  23  27
ENDBRANCH   1  23
TORSDOF 4
ENDMDL
MODEL 3
REMARK VINA RESULT:     -11.0      3.999     10.004
REMARK  Name = 49831257
REMARK  4 active torsions:
REMARK  status: ('A' for Active; 'I' for Inactive)
REMARK    1  A    between atoms: C_1  and  C_23
REMARK    2  A    between atoms: C_4  and  C_14
REMARK    3  A    between atoms: C_12  and  C_20
REMARK    4  A    between atoms: C_23  and  N_27
REMARK                            x       y       z     vdW  Elec       q    Type
REMARK                         _______ _______ _______ _____ _____    ______ ____
ROOT
ATOM      1  C   UNL     1      35.150 -19.750 -21.222  0.00  0.00    -0.043 C 
ATOM      2  C   UNL     1      34.037 -20.362 -20.646  0.00  0.00    -0.006 C 
ATOM      3  C   UNL     1      36.400 -19.860 -20.612  0.00  0.00    -0.006 C 
ATOM      4  C   UNL     1      35.423 -21.193 -18.850  0.00  0.00    +0.016 C 
ATOM      5  C   UNL     1      34.173 -21.083 -19.460  0.00  0.00    +0.001 C 
ATOM      6  C   UNL     1      36.537 -20.581 -19.426  0.00  0.00    +0.001 C 
ENDROOT
BRANCH   4  14
ATOM      7  O   UNL     1      30.940 -24.707 -14.291  0.00  0.00    -0.274 OA
ATOM      8  N   UNL     1      31.210 -23.455 -16.272  0.00  0.00    -0.217 N 
ATOM      9  N   UNL     1      34.455 -22.525 -16.943  0.00  0.00    -0.152 N 
ATOM     10  N   UNL     1      33.145 -22.514 -17.311  0.00  0.00    -0.092 NA
ATOM     11  N   UNL     1      33.388 -23.664 -15.353  0.00  0.00    -0.319 NA
ATOM     12  C   UNL     1      30.492 -24.168 -15.294  0.00  0.00    +0.234 C 
ATOM     13  C   UNL     1      32.564 -23.201 -16.329  0.00  0.00    +0.167 C 
ATOM     14  C   UNL     1      35.566 -21.953 -17.596  0.00  0.00    +0.077 C 
ATOM     15  C   UNL     1      34.570 -23.240 -15.743  0.00  0.00    +0.219 C 
ATOM     16  C   UNL     1      36.787 -22.106 -17.039  0.00  0.00    +0.017 C 
ATOM     17  C   UNL     1      35.865 -23.388 -15.176  0.00  0.00    +0.051 C 
ATOM     18  C   UNL     1      36.927 -22.846 -15.797  0.00  0.00    +0.005 C 
ATOM     19  H   UNL     1      30.675 -23.089 -17.013  0.00  0.00    +0.167 HD
BRANCH  12  20
ATOM     20  C   UNL     1      29.020 -24.250 -15.548  0.00  0.00    +0.077 C 
ATOM     21  C   UNL     1      28.420 -23.412 -16.639  0.00  0.00    +0.010 C 
ATOM     22  C   UNL     1      28.151 -23.076 -15.200  0.00  0.00    +0.010 C 
ENDBRANCH  12  20
ENDBRANCH   4  14
BRANCH   1  23
ATOM     23  C   UNL     1      35.004 -18.973 -22.503  0.00  0.00    -0.050 C 
BRANCH  23  27
ATOM     24  S   UNL     1      34.386 -14.533 -21.963  0.00  0.00    -0.014 S 
ATOM     25  O   UNL     1      35.081 -13.281 -21.741  0.00  0.00    -0.173 OA
ATOM     26  O   UNL     1      32.942 -14.577 -22.083  0.00  0.00    -0.173 OA
ATOM     27  N   UNL     1      35.212 -17.537 -22.296  0.00  0.00    +0.392 N 
ATOM     28  C   UNL     1      34.539 -17.108 -21.057  0.00  0.00    -0.051 C 
ATOM     29  C   UNL     1      34.731 -16.788 -23.469  0.00  0.00    -0.051 C 
ATOM     30  C   UNL     1      35.092 -15.309 -23.396  0.00  0.00    +0.128 C 
ATOM     31  C   UNL     1      34.877 -15.668 -20.687  0.00  0.00    +0.128 C 
ATOM     32  H   UNL     1      36.208 -17.343 -22.191  0.00  0.00    -0.079 HD
ENDBRANCH  23  27
ENDBRANCH   1  23
TORSDOF 4
ENDMDL
MODEL 4
REMARK VINA RESULT:     -10.3      4.221      9.950
REMARK  Name = 49831257
REMARK  4 active torsions:
REMARK  status: ('A' for Active; 'I' for Inactive)
REMARK    1  A    between atoms: C_1  and  C_23
REMARK    2  A    between atoms: C_4  and  C_14
REMARK    3  A    between atoms: C_12  and  C_20
REMARK    4  A    between atoms: C_23  and  N_27
REMARK                            x       y       z     vdW  Elec       q    Type
REMARK                         _______ _______ _______ _____ _____    ______ ____
ROOT
ATOM      1  C   UNL     1      35.327 -20.318 -20.939  0.00  0.00    -0.043 C 
ATOM      2  C   UNL     1      34.060 -20.621 -20.441  0.00  0.00    -0.006 C 
ATOM      3  C   UNL     1      36.464 -20.661 -20.208  0.00  0.00    -0.006 C 
ATOM      4  C   UNL     1      35.068 -21.608 -18.479  0.00  0.00    +0.016 C 
ATOM      5  C   UNL     1      33.930 -21.265 -19.210  0.00  0.00    +0.001 C 
ATOM      6  C   UNL     1      36.335 -21.306 -18.978  0.00  0.00    +0.001 C 
ENDROOT
BRANCH   4  14
ATOM      7  O   UNL     1      29.554 -24.128 -14.420  0.00  0.00    -0.274 OA
ATOM      8  N   UNL     1      30.265 -23.073 -16.406  0.00  0.00    -0.217 N 
ATOM      9  N   UNL     1      33.672 -22.651 -16.660  0.00  0.00    -0.152 N 
ATOM     10  N   UNL     1      32.438 -22.487 -17.209  0.00  0.00    -0.092 NA
ATOM     11  N   UNL     1      32.248 -23.513 -15.179  0.00  0.00    -0.319 NA
ATOM     12  C   UNL     1      29.327 -23.607 -15.504  0.00  0.00    +0.234 C 
ATOM     13  C   UNL     1      31.637 -23.013 -16.285  0.00  0.00    +0.167 C 
ATOM     14  C   UNL     1      34.931 -22.287 -17.179  0.00  0.00    +0.077 C 
ATOM     15  C   UNL     1      33.520 -23.286 -15.419  0.00  0.00    +0.219 C 
ATOM     16  C   UNL     1      36.031 -22.565 -16.447  0.00  0.00    +0.017 C 
ATOM     17  C   UNL     1      34.693 -23.569 -14.668  0.00  0.00    +0.051 C 
ATOM     18  C   UNL     1      35.896 -23.225 -15.160  0.00  0.00    +0.005 C 
ATOM     19  H   UNL     1      29.893 -22.692 -17.235  0.00  0.00    +0.167 HD
BRANCH  12  20
ATOM     20  C   UNL     1      27.905 -23.504 -15.959  0.00  0.00    +0.077 C 
ATOM     21  C   UNL     1      27.499 -22.349 -16.827  0.00  0.00    +0.010 C 
ATOM     22  C   UNL     1      27.036 -22.415 -15.400  0.00  0.00    +0.010 C 
ENDBRANCH  12  20
ENDBRANCH   4  14
BRANCH   1  23
ATOM     23  C   UNL     1      35.468 -19.624 -22.268  0.00  0.00    -0.050 C 
BRANCH  23  27
ATOM     24  S   UNL     1      34.423 -15.262 -22.788  0.00  0.00    -0.014 S 
ATOM     25  O   UNL     1      33.362 -14.292 -22.613  0.00  0.00    -0.173 OA
ATOM     26  O   UNL     1      35.714 -14.872 -23.320  0.00  0.00    -0.173 OA
ATOM     27  N   UNL     1      34.770 -18.335 -22.285  0.00  0.00    +0.392 N 
ATOM     28  C   UNL     1      34.672 -17.838 -23.669  0.00  0.00    -0.051 C 
ATOM     29  C   UNL     1      35.465 -17.379 -21.407  0.00  0.00    -0.051 C 
ATOM     30  C   UNL     1      34.683 -16.082 -21.234  0.00  0.00    +0.128 C 
ATOM     31  C   UNL     1      33.791 -16.598 -23.775  0.00  0.00    +0.128 C 
ATOM     32  H   UNL     1      33.821 -18.451 -21.930  0.00  0.00    -0.079 HD
ENDBRANCH  23  27
ENDBRANCH   1  23
TORSDOF 4
ENDMDL
MODEL 5
REMARK VINA RESULT:      -9.7      4.717      7.009
REMARK  Name = 49831257
REMARK  4 active torsions:
REMARK  status: ('A' for Active; 'I' for Inactive)
REMARK    1  A    between atoms: C_1  and  C_23
REMARK    2  A    between atoms: C_4  and  C_14
REMARK    3  A    between atoms: C_12  and  C_20
REMARK    4  A    between atoms: C_23  and  N_27
REMARK                            x       y       z     vdW  Elec       q    Type
REMARK                         _______ _______ _______ _____ _____    ______ ____
ROOT
ATOM      1  C   UNL     1      33.581 -13.690 -23.754  0.00  0.00    -0.043 C 
ATOM      2  C   UNL     1      34.275 -12.519 -24.057  0.00  0.00    -0.006 C 
ATOM      3  C   UNL     1      32.493 -13.650 -22.882  0.00  0.00    -0.006 C 
ATOM      4  C   UNL     1      32.793 -11.268 -22.616  0.00  0.00    +0.016 C 
ATOM      5  C   UNL     1      33.881 -11.308 -23.487  0.00  0.00    +0.001 C 
ATOM      6  C   UNL     1      32.098 -12.440 -22.313  0.00  0.00    +0.001 C 
ENDROOT
BRANCH   4  14
ATOM      7  O   UNL     1      32.145  -4.360 -24.872  0.00  0.00    -0.274 OA
ATOM      8  N   UNL     1      32.694  -6.596 -25.385  0.00  0.00    -0.217 N 
ATOM      9  N   UNL     1      32.367  -8.789 -22.752  0.00  0.00    -0.152 N 
ATOM     10  N   UNL     1      32.687  -8.583 -24.059  0.00  0.00    -0.092 NA
ATOM     11  N   UNL     1      32.067  -6.608 -23.096  0.00  0.00    -0.319 NA
ATOM     12  C   UNL     1      32.517  -5.226 -25.652  0.00  0.00    +0.234 C 
ATOM     13  C   UNL     1      32.492  -7.274 -24.202  0.00  0.00    +0.167 C 
ATOM     14  C   UNL     1      32.377  -9.989 -22.014  0.00  0.00    +0.077 C 
ATOM     15  C   UNL     1      31.988  -7.560 -22.194  0.00  0.00    +0.219 C 
ATOM     16  C   UNL     1      32.005  -9.948 -20.716  0.00  0.00    +0.017 C 
ATOM     17  C   UNL     1      31.600  -7.542 -20.827  0.00  0.00    +0.051 C 
ATOM     18  C   UNL     1      31.606  -8.685 -20.119  0.00  0.00    +0.005 C 
ATOM     19  H   UNL     1      33.002  -7.143 -26.144  0.00  0.00    +0.167 HD
BRANCH  12  20
ATOM     20  C   UNL     1      32.831  -4.826 -27.060  0.00  0.00    +0.077 C 
ATOM     21  C   UNL     1      33.585  -5.781 -27.938  0.00  0.00    +0.010 C 
ATOM     22  C   UNL     1      34.255  -4.535 -27.436  0.00  0.00    +0.010 C 
ENDBRANCH  12  20
ENDBRANCH   4  14
BRANCH   1  23
ATOM     23  C   UNL     1      34.005 -14.997 -24.369  0.00  0.00    -0.050 C 
BRANCH  23  27
ATOM     24  S   UNL     1      35.599 -18.221 -21.639  0.00  0.00    -0.014 S 
ATOM     25  O   UNL     1      35.217 -19.167 -20.610  0.00  0.00    -0.173 OA
ATOM     26  O   UNL     1      36.971 -18.128 -22.098  0.00  0.00    -0.173 OA
ATOM     27  N   UNL     1      34.130 -16.057 -23.364  0.00  0.00    +0.392 N 
ATOM     28  C   UNL     1      35.045 -15.625 -22.293  0.00  0.00    -0.051 C 
ATOM     29  C   UNL     1      34.586 -17.302 -24.006  0.00  0.00    -0.051 C 
ATOM     30  C   UNL     1      34.553 -18.488 -23.049  0.00  0.00    +0.128 C 
ATOM     31  C   UNL     1      35.068 -16.604 -21.125  0.00  0.00    +0.128 C 
ATOM     32  H   UNL     1      33.221 -16.240 -22.940  0.00  0.00    -0.079 HD
ENDBRANCH  23  27
ENDBRANCH   1  23
TORSDOF 4
ENDMDL
MODEL 6
REMARK VINA RESULT:      -9.6      3.838      5.634
REMARK  Name = 49831257
REMARK  4 active torsions:
REMARK  status: ('A' for Active; 'I' for Inactive)
REMARK    1  A    between atoms: C_1  and  C_23
REMARK    2  A    between atoms: C_4  and  C_14
REMARK    3  A    between atoms: C_12  and  C_20
REMARK    4  A    between atoms: C_23  and  N_27
REMARK                            x       y       z     vdW  Elec       q    Type
REMARK                         _______ _______ _______ _____ _____    ______ ____
ROOT
ATOM      1  C   UNL     1      34.268 -15.177 -23.738  0.00  0.00    -0.043 C 
ATOM      2  C   UNL     1      34.801 -14.727 -22.531  0.00  0.00    -0.006 C 
ATOM      3  C   UNL     1      33.157 -14.539 -24.291  0.00  0.00    -0.006 C 
ATOM      4  C   UNL     1      33.113 -13.003 -22.427  0.00  0.00    +0.016 C 
ATOM      5  C   UNL     1      34.223 -13.641 -21.875  0.00  0.00    +0.001 C 
ATOM      6  C   UNL     1      32.579 -13.452 -23.636  0.00  0.00    +0.001 C 
ENDROOT
BRANCH   4  14
ATOM      7  O   UNL     1      33.142  -5.751 -23.231  0.00  0.00    -0.274 OA
ATOM      8  N   UNL     1      33.864  -7.859 -24.004  0.00  0.00    -0.217 N 
ATOM      9  N   UNL     1      32.718 -10.529 -22.159  0.00  0.00    -0.152 N 
ATOM     10  N   UNL     1      33.450 -10.075 -23.213  0.00  0.00    -0.092 NA
ATOM     11  N   UNL     1      32.514  -8.311 -22.106  0.00  0.00    -0.319 NA
ATOM     12  C   UNL     1      33.765  -6.456 -24.014  0.00  0.00    +0.234 C 
ATOM     13  C   UNL     1      33.293  -8.756 -23.127  0.00  0.00    +0.167 C 
ATOM     14  C   UNL     1      32.501 -11.855 -21.734  0.00  0.00    +0.077 C 
ATOM     15  C   UNL     1      32.156  -9.424 -21.505  0.00  0.00    +0.219 C 
ATOM     16  C   UNL     1      31.719 -12.063 -20.653  0.00  0.00    +0.017 C 
ATOM     17  C   UNL     1      31.336  -9.668 -20.370  0.00  0.00    +0.051 C 
ATOM     18  C   UNL     1      31.125 -10.931 -19.962  0.00  0.00    +0.005 C 
ATOM     19  H   UNL     1      34.415  -8.253 -24.720  0.00  0.00    +0.167 HD
BRANCH  12  20
ATOM     20  C   UNL     1      34.522  -5.791 -25.120  0.00  0.00    +0.077 C 
ATOM     21  C   UNL     1      34.009  -4.496 -25.679  0.00  0.00    +0.010 C 
ATOM     22  C   UNL     1      33.922  -5.752 -26.496  0.00  0.00    +0.010 C 
ENDBRANCH  12  20
ENDBRANCH   4  14
BRANCH   1  23
ATOM     23  C   UNL     1      34.893 -16.349 -24.448  0.00  0.00    -0.050 C 
BRANCH  23  27
ATOM     24  S   UNL     1      35.024 -19.397 -21.118  0.00  0.00    -0.014 S 
ATOM     25  O   UNL     1      35.873 -20.375 -20.471  0.00  0.00    -0.173 OA
ATOM     26  O   UNL     1      33.666 -19.167 -20.665  0.00  0.00    -0.173 OA
ATOM     27  N   UNL     1      35.317 -17.391 -23.508  0.00  0.00    +0.392 N 
ATOM     28  C   UNL     1      34.469 -18.585 -23.669  0.00  0.00    -0.051 C 
ATOM     29  C   UNL     1      35.273 -16.869 -22.131  0.00  0.00    -0.051 C 
ATOM     30  C   UNL     1      35.882 -17.841 -21.127  0.00  0.00    +0.128 C 
ATOM     31  C   UNL     1      34.979 -19.769 -22.855  0.00  0.00    +0.128 C 
ATOM     32  H   UNL     1      36.279 -17.665 -23.706  0.00  0.00    -0.079 HD
ENDBRANCH  23  27
ENDBRANCH   1  23
TORSDOF 4
ENDMDL
MODEL 7
REMARK VINA RESULT:      -9.2      6.680     12.798
REMARK  Name = 49831257
REMARK  4 active torsions:
REMARK  status: ('A' for Active; 'I' for Inactive)
REMARK    1  A    between atoms: C_1  and  C_23
REMARK    2  A    between atoms: C_4  and  C_14
REMARK    3  A    between atoms: C_12  and  C_20
REMARK    4  A    between atoms: C_23  and  N_27
REMARK                            x       y       z     vdW  Elec       q    Type
REMARK                         _______ _______ _______ _____ _____    ______ ____
ROOT
ATOM      1  C   UNL     1      31.785  -5.399 -23.651  0.00  0.00    -0.043 C 
ATOM      2  C   UNL     1      32.675  -5.427 -22.577  0.00  0.00    -0.006 C 
ATOM      3  C   UNL     1      30.888  -6.450 -23.840  0.00  0.00    -0.006 C 
ATOM      4  C   UNL     1      31.770  -7.557 -21.882  0.00  0.00    +0.016 C 
ATOM      5  C   UNL     1      32.668  -6.506 -21.693  0.00  0.00    +0.001 C 
ATOM      6  C   UNL     1      30.880  -7.529 -22.956  0.00  0.00    +0.001 C 
ENDROOT
BRANCH   4  14
ATOM      7  O   UNL     1      33.425 -14.653 -22.245  0.00  0.00    -0.274 OA
ATOM      8  N   UNL     1      33.289 -12.566 -23.335  0.00  0.00    -0.217 N 
ATOM      9  N   UNL     1      32.156  -9.990 -21.354  0.00  0.00    -0.152 N 
ATOM     10  N   UNL     1      32.602 -10.409 -22.569  0.00  0.00    -0.092 NA
ATOM     11  N   UNL     1      32.556 -12.168 -21.113  0.00  0.00    -0.319 NA
ATOM     12  C   UNL     1      33.558 -13.943 -23.233  0.00  0.00    +0.234 C 
ATOM     13  C   UNL     1      32.819 -11.707 -22.364  0.00  0.00    +0.167 C 
ATOM     14  C   UNL     1      31.764  -8.697 -20.950  0.00  0.00    +0.077 C 
ATOM     15  C   UNL     1      32.144 -11.090 -20.485  0.00  0.00    +0.219 C 
ATOM     16  C   UNL     1      31.362  -8.519 -19.673  0.00  0.00    +0.017 C 
ATOM     17  C   UNL     1      31.718 -10.876 -19.146  0.00  0.00    +0.051 C 
ATOM     18  C   UNL     1      31.344  -9.645 -18.756  0.00  0.00    +0.005 C 
ATOM     19  H   UNL     1      33.458 -12.162 -24.218  0.00  0.00    +0.167 HD
BRANCH  12  20
ATOM     20  C   UNL     1      34.060 -14.569 -24.496  0.00  0.00    +0.077 C 
ATOM     21  C   UNL     1      33.104 -14.790 -25.631  0.00  0.00    +0.010 C 
ATOM     22  C   UNL     1      33.621 -15.961 -24.847  0.00  0.00    +0.010 C 
ENDBRANCH  12  20
ENDBRANCH   4  14
BRANCH   1  23
ATOM     23  C   UNL     1      31.791  -4.234 -24.604  0.00  0.00    -0.050 C 
BRANCH  23  27
ATOM     24  S   UNL     1      33.527  -4.642 -28.752  0.00  0.00    -0.014 S 
ATOM     25  O   UNL     1      33.410  -5.378 -29.995  0.00  0.00    -0.173 OA
ATOM     26  O   UNL     1      34.523  -3.600 -28.591  0.00  0.00    -0.173 OA
ATOM     27  N   UNL     1      32.068  -4.658 -25.980  0.00  0.00    +0.392 N 
ATOM     28  C   UNL     1      33.441  -5.184 -26.075  0.00  0.00    -0.051 C 
ATOM     29  C   UNL     1      31.848  -3.531 -26.903  0.00  0.00    -0.051 C 
ATOM     30  C   UNL     1      31.934  -3.958 -28.364  0.00  0.00    +0.128 C 
ATOM     31  C   UNL     1      33.723  -5.815 -27.433  0.00  0.00    +0.128 C 
ATOM     32  H   UNL     1      31.430  -5.407 -26.246  0.00  0.00    -0.079 HD
ENDBRANCH  23  27
ENDBRANCH   1  23
TORSDOF 4
ENDMDL
MODEL 8
REMARK VINA RESULT:      -9.0      7.023     10.864
REMARK  Name = 49831257
REMARK  4 active torsions:
REMARK  status: ('A' for Active; 'I' for Inactive)
REMARK    1  A    between atoms: C_1  and  C_23
REMARK    2  A    between atoms: C_4  and  C_14
REMARK    3  A    between atoms: C_12  and  C_20
REMARK    4  A    between atoms: C_23  and  N_27
REMARK                            x       y       z     vdW  Elec       q    Type
REMARK                         _______ _______ _______ _____ _____    ______ ____
ROOT
ATOM      1  C   UNL     1      31.567  -8.835 -22.206  0.00  0.00    -0.043 C 
ATOM      2  C   UNL     1      32.638  -8.062 -21.758  0.00  0.00    -0.006 C 
ATOM      3  C   UNL     1      30.769  -8.381 -23.256  0.00  0.00    -0.006 C 
ATOM      4  C   UNL     1      32.113  -6.379 -23.410  0.00  0.00    +0.016 C 
ATOM      5  C   UNL     1      32.911  -6.834 -22.360  0.00  0.00    +0.001 C 
ATOM      6  C   UNL     1      31.042  -7.153 -23.858  0.00  0.00    +0.001 C 
ENDROOT
BRANCH   4  14
ATOM      7  O   UNL     1      35.729  -4.107 -29.326  0.00  0.00    -0.274 OA
ATOM      8  N   UNL     1      35.007  -5.907 -27.983  0.00  0.00    -0.217 N 
ATOM      9  N   UNL     1      33.160  -4.985 -25.228  0.00  0.00    -0.152 N 
ATOM     10  N   UNL     1      33.716  -5.979 -25.974  0.00  0.00    -0.092 NA
ATOM     11  N   UNL     1      34.172  -3.954 -26.924  0.00  0.00    -0.319 NA
ATOM     12  C   UNL     1      35.660  -5.302 -29.072  0.00  0.00    +0.234 C 
ATOM     13  C   UNL     1      34.303  -5.306 -26.961  0.00  0.00    +0.167 C 
ATOM     14  C   UNL     1      32.400  -5.081 -24.045  0.00  0.00    +0.077 C 
ATOM     15  C   UNL     1      33.455  -3.759 -25.840  0.00  0.00    +0.219 C 
ATOM     16  C   UNL     1      31.940  -3.942 -23.484  0.00  0.00    +0.017 C 
ATOM     17  C   UNL     1      32.959  -2.574 -25.231  0.00  0.00    +0.051 C 
ATOM     18  C   UNL     1      32.233  -2.661 -24.103  0.00  0.00    +0.005 C 
ATOM     19  H   UNL     1      35.060  -6.890 -27.945  0.00  0.00    +0.167 HD
BRANCH  12  20
ATOM     20  C   UNL     1      36.333  -6.265 -30.000  0.00  0.00    +0.077 C 
ATOM     21  C   UNL     1      36.410  -7.714 -29.617  0.00  0.00    +0.010 C 
ATOM     22  C   UNL     1      37.649  -6.866 -29.601  0.00  0.00    +0.010 C 
ENDBRANCH  12  20
ENDBRANCH   4  14
BRANCH   1  23
ATOM     23  C   UNL     1      31.273 -10.162 -21.557  0.00  0.00    -0.050 C 
BRANCH  23  27
ATOM     24  S   UNL     1      33.737 -13.632 -23.068  0.00  0.00    -0.014 S 
ATOM     25  O   UNL     1      35.025 -14.284 -22.945  0.00  0.00    -0.173 OA
ATOM     26  O   UNL     1      32.722 -14.143 -23.968  0.00  0.00    -0.173 OA
ATOM     27  N   UNL     1      32.349 -11.131 -21.789  0.00  0.00    +0.392 N 
ATOM     28  C   UNL     1      32.778 -11.075 -23.197  0.00  0.00    -0.051 C 
ATOM     29  C   UNL     1      31.897 -12.480 -21.406  0.00  0.00    -0.051 C 
ATOM     30  C   UNL     1      33.030 -13.499 -21.443  0.00  0.00    +0.128 C 
ATOM     31  C   UNL     1      34.020 -11.921 -23.455  0.00  0.00    +0.128 C 
ATOM     32  H   UNL     1      33.155 -10.898 -21.209  0.00  0.00    -0.079 HD
ENDBRANCH  23  27
ENDBRANCH   1  23
TORSDOF 4
ENDMDL
MODEL 9
REMARK VINA RESULT:      -8.9      5.752     10.142
REMARK  Name = 49831257
REMARK  4 active torsions:
REMARK  status: ('A' for Active; 'I' for Inactive)
REMARK    1  A    between atoms: C_1  and  C_23
REMARK    2  A    between atoms: C_4  and  C_14
REMARK    3  A    between atoms: C_12  and  C_20
REMARK    4  A    between atoms: C_23  and  N_27
REMARK                            x       y       z     vdW  Elec       q    Type
REMARK                         _______ _______ _______ _____ _____    ______ ____
ROOT
ATOM      1  C   UNL     1      31.635 -24.730 -13.918  0.00  0.00    -0.043 C 
ATOM      2  C   UNL     1      31.739 -23.961 -15.076  0.00  0.00    -0.006 C 
ATOM      3  C   UNL     1      32.778 -25.033 -13.177  0.00  0.00    -0.006 C 
ATOM      4  C   UNL     1      34.128 -23.798 -14.755  0.00  0.00    +0.016 C 
ATOM      5  C   UNL     1      32.985 -23.496 -15.495  0.00  0.00    +0.001 C 
ATOM      6  C   UNL     1      34.024 -24.568 -13.595  0.00  0.00    +0.001 C 
ENDROOT
BRANCH   4  14
ATOM      7  O   UNL     1      36.689 -20.040 -20.459  0.00  0.00    -0.274 OA
ATOM      8  N   UNL     1      34.837 -20.989 -19.349  0.00  0.00    -0.217 N 
ATOM      9  N   UNL     1      35.603 -22.587 -16.399  0.00  0.00    -0.152 N 
ATOM     10  N   UNL     1      34.659 -22.209 -17.303  0.00  0.00    -0.092 NA
ATOM     11  N   UNL     1      36.714 -21.483 -17.984  0.00  0.00    -0.319 NA
ATOM     12  C   UNL     1      35.493 -20.283 -20.374  0.00  0.00    +0.234 C 
ATOM     13  C   UNL     1      35.378 -21.563 -18.218  0.00  0.00    +0.167 C 
ATOM     14  C   UNL     1      35.444 -23.308 -15.197  0.00  0.00    +0.077 C 
ATOM     15  C   UNL     1      36.849 -22.123 -16.843  0.00  0.00    +0.219 C 
ATOM     16  C   UNL     1      36.541 -23.558 -14.450  0.00  0.00    +0.017 C 
ATOM     17  C   UNL     1      37.988 -22.398 -16.039  0.00  0.00    +0.051 C 
ATOM     18  C   UNL     1      37.841 -23.084 -14.892  0.00  0.00    +0.005 C 
ATOM     19  H   UNL     1      33.862 -21.086 -19.453  0.00  0.00    +0.167 HD
BRANCH  12  20
ATOM     20  C   UNL     1      34.590 -19.794 -21.463  0.00  0.00    +0.077 C 
ATOM     21  C   UNL     1      35.149 -19.602 -22.842  0.00  0.00    +0.010 C 
ATOM     22  C   UNL     1      34.786 -18.409 -22.007  0.00  0.00    +0.010 C 
ENDBRANCH  12  20
ENDBRANCH   4  14
BRANCH   1  23
ATOM     23  C   UNL     1      30.290 -25.232 -13.464  0.00  0.00    -0.050 C 
BRANCH  23  27
ATOM     24  S   UNL     1      27.879 -22.695 -16.317  0.00  0.00    -0.014 S 
ATOM     25  O   UNL     1      26.527 -22.369 -16.726  0.00  0.00    -0.173 OA
ATOM     26  O   UNL     1      29.023 -22.069 -16.950  0.00  0.00    -0.173 OA
ATOM     27  N   UNL     1      29.195 -24.594 -14.201  0.00  0.00    +0.392 N 
ATOM     28  C   UNL     1      29.291 -24.933 -15.632  0.00  0.00    -0.051 C 
ATOM     29  C   UNL     1      29.224 -23.139 -13.979  0.00  0.00    -0.051 C 
ATOM     30  C   UNL     1      28.000 -22.442 -14.563  0.00  0.00    +0.128 C 
ATOM     31  C   UNL     1      28.075 -24.458 -16.420  0.00  0.00    +0.128 C 
ATOM     32  H   UNL     1      28.299 -24.943 -13.860  0.00  0.00    -0.079 HD
ENDBRANCH  23  27
ENDBRANCH   1  23
TORSDOF 4
ENDMDL
