MODEL 1
REMARK VINA RESULT:     -11.2      0.000      0.000
REMARK  Name = 5326930
REMARK  4 active torsions:
REMARK  status: ('A' for Active; 'I' for Inactive)
REMARK    1  A    between atoms: C_7  and  C_21
REMARK    2  A    between atoms: C_21  and  C_22
REMARK    3  A    between atoms: C_22  and  C_23
REMARK    4  A    between atoms: C_28  and  O_29
REMARK                            x       y       z     vdW  Elec       q    Type
REMARK                         _______ _______ _______ _____ _____    ______ ____
ROOT
ATOM      1  O   UNL     1      34.569 -24.924 -11.682  0.00  0.00    -0.209 OA
ATOM      2  N   UNL     1      34.645 -22.956 -15.170  0.00  0.00    -0.275 N 
ATOM      3  N   UNL     1      29.771 -25.121 -13.817  0.00  0.00    -0.315 N 
ATOM      4  N   UNL     1      29.846 -24.021 -15.745  0.00  0.00    -0.316 N 
ATOM      5  N   UNL     1      35.769 -23.720 -13.216  0.00  0.00    -0.302 NA
ATOM      6  N   UNL     1      36.867 -22.478 -14.872  0.00  0.00    -0.320 N 
ATOM      7  C   UNL     1      32.284 -23.407 -15.585  0.00  0.00    +0.007 C 
ATOM      8  C   UNL     1      33.428 -23.525 -14.780  0.00  0.00    +0.060 C 
ATOM      9  C   UNL     1      31.085 -23.997 -15.149  0.00  0.00    +0.056 C 
ATOM     10  C   UNL     1      31.065 -24.680 -13.937  0.00  0.00    +0.060 C 
ATOM     11  C   UNL     1      33.368 -24.222 -13.563  0.00  0.00    +0.109 C 
ATOM     12  C   UNL     1      32.181 -24.818 -13.111  0.00  0.00    +0.029 C 
ATOM     13  C   UNL     1      34.613 -24.317 -12.748  0.00  0.00    +0.208 C 
ATOM     14  C   UNL     1      29.083 -24.703 -14.921  0.00  0.00    +0.182 C 
ATOM     15  C   UNL     1      35.750 -23.088 -14.360  0.00  0.00    +0.248 C 
ATOM     16  H   UNL     1      34.709 -22.463 -16.019  0.00  0.00    +0.156 HD
ATOM     17  H   UNL     1      29.405 -25.645 -13.068  0.00  0.00    +0.148 HD
ATOM     18  H   UNL     1      29.586 -23.616 -16.605  0.00  0.00    +0.148 HD
ATOM     19  H   UNL     1      36.820 -22.009 -15.736  0.00  0.00    +0.146 HD
ATOM     20  H   UNL     1      37.716 -22.509 -14.374  0.00  0.00    +0.146 HD
ENDROOT
BRANCH   7  21
ATOM     21  C   UNL     1      32.341 -22.665 -16.883  0.00  0.00    +0.034 C 
BRANCH  21  22
ATOM     22  C   UNL     1      33.444 -23.161 -17.837  0.00  0.00    +0.031 C 
BRANCH  22  23
ATOM     23  C   UNL     1      33.970 -22.082 -18.752  0.00  0.00    -0.022 C 
ATOM     24  C   UNL     1      35.338 -21.941 -18.921  0.00  0.00    -0.001 C 
ATOM     25  C   UNL     1      33.075 -21.250 -19.405  0.00  0.00    -0.001 C 
ATOM     26  C   UNL     1      35.825 -20.945 -19.765  0.00  0.00    +0.037 C 
ATOM     27  C   UNL     1      33.562 -20.252 -20.250  0.00  0.00    +0.037 C 
ATOM     28  C   UNL     1      34.937 -20.100 -20.431  0.00  0.00    +0.139 C 
BRANCH  28  29
ATOM     29  O   UNL     1      35.411 -19.126 -21.254  0.00  0.00    -0.471 OA
ATOM     30  C   UNL     1      34.944 -19.130 -22.602  0.00  0.00    +0.252 C 
ENDBRANCH  28  29
ENDBRANCH  22  23
ENDBRANCH  21  22
ENDBRANCH   7  21
TORSDOF 4
ENDMDL
MODEL 2
REMARK VINA RESULT:     -11.2      1.646      4.167
REMARK  Name = 5326930
REMARK  4 active torsions:
REMARK  status: ('A' for Active; 'I' for Inactive)
REMARK    1  A    between atoms: C_7  and  C_21
REMARK    2  A    between atoms: C_21  and  C_22
REMARK    3  A    between atoms: C_22  and  C_23
REMARK    4  A    between atoms: C_28  and  O_29
REMARK                            x       y       z     vdW  Elec       q    Type
REMARK                         _______ _______ _______ _____ _____    ______ ____
ROOT
ATOM      1  O   UNL     1      28.582 -25.619 -13.632  0.00  0.00    -0.209 OA
ATOM      2  N   UNL     1      29.845 -23.099 -16.478  0.00  0.00    -0.275 N 
ATOM      3  N   UNL     1      33.773 -24.984 -13.118  0.00  0.00    -0.315 N 
ATOM      4  N   UNL     1      34.442 -23.585 -14.709  0.00  0.00    -0.316 N 
ATOM      5  N   UNL     1      28.074 -24.292 -15.428  0.00  0.00    -0.302 NA
ATOM      6  N   UNL     1      27.705 -22.897 -17.274  0.00  0.00    -0.320 N 
ATOM      7  C   UNL     1      32.156 -23.243 -15.714  0.00  0.00    +0.007 C 
ATOM      8  C   UNL     1      30.806 -23.607 -15.597  0.00  0.00    +0.060 C 
ATOM      9  C   UNL     1      33.084 -23.781 -14.804  0.00  0.00    +0.056 C 
ATOM     10  C   UNL     1      32.639 -24.655 -13.817  0.00  0.00    +0.060 C 
ATOM     11  C   UNL     1      30.396 -24.492 -14.588  0.00  0.00    +0.109 C 
ATOM     12  C   UNL     1      31.305 -25.039 -13.671  0.00  0.00    +0.029 C 
ATOM     13  C   UNL     1      28.949 -24.845 -14.512  0.00  0.00    +0.208 C 
ATOM     14  C   UNL     1      34.822 -24.320 -13.689  0.00  0.00    +0.182 C 
ATOM     15  C   UNL     1      28.528 -23.474 -16.340  0.00  0.00    +0.248 C 
ATOM     16  H   UNL     1      30.110 -22.477 -17.193  0.00  0.00    +0.156 HD
ATOM     17  H   UNL     1      33.821 -25.590 -12.344  0.00  0.00    +0.148 HD
ATOM     18  H   UNL     1      35.007 -23.017 -15.282  0.00  0.00    +0.148 HD
ATOM     19  H   UNL     1      28.078 -22.285 -17.949  0.00  0.00    +0.146 HD
ATOM     20  H   UNL     1      26.740 -23.096 -17.269  0.00  0.00    +0.146 HD
ENDROOT
BRANCH   7  21
ATOM     21  C   UNL     1      32.600 -22.300 -16.788  0.00  0.00    +0.034 C 
BRANCH  21  22
ATOM     22  C   UNL     1      33.548 -22.934 -17.822  0.00  0.00    +0.031 C 
BRANCH  22  23
ATOM     23  C   UNL     1      34.144 -21.930 -18.779  0.00  0.00    -0.022 C 
ATOM     24  C   UNL     1      33.303 -21.104 -19.507  0.00  0.00    -0.001 C 
ATOM     25  C   UNL     1      35.521 -21.854 -18.913  0.00  0.00    -0.001 C 
ATOM     26  C   UNL     1      33.853 -20.176 -20.391  0.00  0.00    +0.037 C 
ATOM     27  C   UNL     1      36.071 -20.926 -19.798  0.00  0.00    +0.037 C 
ATOM     28  C   UNL     1      35.237 -20.087 -20.537  0.00  0.00    +0.139 C 
BRANCH  28  29
ATOM     29  O   UNL     1      35.774 -19.183 -21.400  0.00  0.00    -0.471 OA
ATOM     30  C   UNL     1      35.107 -18.999 -22.647  0.00  0.00    +0.252 C 
ENDBRANCH  28  29
ENDBRANCH  22  23
ENDBRANCH  21  22
ENDBRANCH   7  21
TORSDOF 4
ENDMDL
MODEL 3
REMARK VINA RESULT:     -10.8      1.236      3.971
REMARK  Name = 5326930
REMARK  4 active torsions:
REMARK  status: ('A' for Active; 'I' for Inactive)
REMARK    1  A    between atoms: C_7  and  C_21
REMARK    2  A    between atoms: C_21  and  C_22
REMARK    3  A    between atoms: C_22  and  C_23
REMARK    4  A    between atoms: C_28  and  O_29
REMARK                            x       y       z     vdW  Elec       q    Type
REMARK                         _______ _______ _______ _____ _____    ______ ____
ROOT
ATOM      1  O   UNL     1      31.090 -25.202 -12.380  0.00  0.00    -0.209 OA
ATOM      2  N   UNL     1      30.700 -23.540 -16.004  0.00  0.00    -0.275 N 
ATOM      3  N   UNL     1      35.819 -23.570 -13.988  0.00  0.00    -0.315 N 
ATOM      4  N   UNL     1      35.569 -22.656 -15.997  0.00  0.00    -0.316 N 
ATOM      5  N   UNL     1      29.722 -24.620 -14.122  0.00  0.00    -0.302 NA
ATOM      6  N   UNL     1      28.447 -23.966 -15.976  0.00  0.00    -0.320 N 
ATOM      7  C   UNL     1      33.083 -23.041 -16.137  0.00  0.00    +0.007 C 
ATOM      8  C   UNL     1      31.983 -23.572 -15.447  0.00  0.00    +0.060 C 
ATOM      9  C   UNL     1      34.352 -23.098 -15.534  0.00  0.00    +0.056 C 
ATOM     10  C   UNL     1      34.481 -23.676 -14.274  0.00  0.00    +0.060 C 
ATOM     11  C   UNL     1      32.153 -24.147 -14.178  0.00  0.00    +0.109 C 
ATOM     12  C   UNL     1      33.410 -24.214 -13.559  0.00  0.00    +0.029 C 
ATOM     13  C   UNL     1      30.949 -24.697 -13.490  0.00  0.00    +0.208 C 
ATOM     14  C   UNL     1      36.425 -22.953 -15.046  0.00  0.00    +0.182 C 
ATOM     15  C   UNL     1      29.639 -24.069 -15.304  0.00  0.00    +0.248 C 
ATOM     16  H   UNL     1      30.557 -23.142 -16.893  0.00  0.00    +0.156 HD
ATOM     17  H   UNL     1      36.261 -23.881 -13.166  0.00  0.00    +0.148 HD
ATOM     18  H   UNL     1      35.758 -22.211 -16.856  0.00  0.00    +0.148 HD
ATOM     19  H   UNL     1      28.418 -23.547 -16.866  0.00  0.00    +0.146 HD
ATOM     20  H   UNL     1      27.621 -24.313 -15.568  0.00  0.00    +0.146 HD
ENDROOT
BRANCH   7  21
ATOM     21  C   UNL     1      32.908 -22.427 -17.490  0.00  0.00    +0.034 C 
BRANCH  21  22
ATOM     22  C   UNL     1      33.994 -22.832 -18.504  0.00  0.00    +0.031 C 
BRANCH  22  23
ATOM     23  C   UNL     1      34.554 -21.663 -19.276  0.00  0.00    -0.022 C 
ATOM     24  C   UNL     1      33.687 -20.804 -19.933  0.00  0.00    -0.001 C 
ATOM     25  C   UNL     1      35.925 -21.470 -19.316  0.00  0.00    -0.001 C 
ATOM     26  C   UNL     1      34.204 -19.724 -20.647  0.00  0.00    +0.037 C 
ATOM     27  C   UNL     1      36.443 -20.389 -20.031  0.00  0.00    +0.037 C 
ATOM     28  C   UNL     1      35.582 -19.516 -20.696  0.00  0.00    +0.139 C 
BRANCH  28  29
ATOM     29  O   UNL     1      36.088 -18.462 -21.394  0.00  0.00    -0.471 OA
ATOM     30  C   UNL     1      35.436 -17.204 -21.233  0.00  0.00    +0.252 C 
ENDBRANCH  28  29
ENDBRANCH  22  23
ENDBRANCH  21  22
ENDBRANCH   7  21
TORSDOF 4
ENDMDL
MODEL 4
REMARK VINA RESULT:     -10.4      3.154      6.170
REMARK  Name = 5326930
REMARK  4 active torsions:
REMARK  status: ('A' for Active; 'I' for Inactive)
REMARK    1  A    between atoms: C_7  and  C_21
REMARK    2  A    between atoms: C_21  and  C_22
REMARK    3  A    between atoms: C_22  and  C_23
REMARK    4  A    between atoms: C_28  and  O_29
REMARK                            x       y       z     vdW  Elec       q    Type
REMARK                         _______ _______ _______ _____ _____    ______ ____
ROOT
ATOM      1  O   UNL     1      37.280 -21.920 -16.632  0.00  0.00    -0.209 OA
ATOM      2  N   UNL     1      33.634 -23.484 -16.084  0.00  0.00    -0.275 N 
ATOM      3  N   UNL     1      37.058 -23.989 -11.807  0.00  0.00    -0.315 N 
ATOM      4  N   UNL     1      35.027 -24.846 -11.534  0.00  0.00    -0.316 N 
ATOM      5  N   UNL     1      35.192 -22.340 -17.472  0.00  0.00    -0.302 NA
ATOM      6  N   UNL     1      33.020 -22.838 -18.196  0.00  0.00    -0.320 N 
ATOM      7  C   UNL     1      34.182 -24.214 -13.823  0.00  0.00    +0.007 C 
ATOM      8  C   UNL     1      34.543 -23.587 -15.025  0.00  0.00    +0.060 C 
ATOM      9  C   UNL     1      35.132 -24.292 -12.788  0.00  0.00    +0.056 C 
ATOM     10  C   UNL     1      36.398 -23.747 -12.985  0.00  0.00    +0.060 C 
ATOM     11  C   UNL     1      35.829 -23.049 -15.186  0.00  0.00    +0.109 C 
ATOM     12  C   UNL     1      36.791 -23.116 -14.166  0.00  0.00    +0.029 C 
ATOM     13  C   UNL     1      36.158 -22.393 -16.484  0.00  0.00    +0.208 C 
ATOM     14  C   UNL     1      36.199 -24.648 -10.974  0.00  0.00    +0.182 C 
ATOM     15  C   UNL     1      34.015 -22.863 -17.251  0.00  0.00    +0.248 C 
ATOM     16  H   UNL     1      32.726 -23.854 -15.993  0.00  0.00    +0.156 HD
ATOM     17  H   UNL     1      37.986 -23.735 -11.601  0.00  0.00    +0.148 HD
ATOM     18  H   UNL     1      34.243 -25.295 -11.141  0.00  0.00    +0.148 HD
ATOM     19  H   UNL     1      32.143 -23.240 -17.999  0.00  0.00    +0.146 HD
ATOM     20  H   UNL     1      33.183 -22.417 -19.071  0.00  0.00    +0.146 HD
ENDROOT
BRANCH   7  21
ATOM     21  C   UNL     1      32.813 -24.790 -13.645  0.00  0.00    +0.034 C 
BRANCH  21  22
ATOM     22  C   UNL     1      31.735 -23.742 -13.311  0.00  0.00    +0.031 C 
BRANCH  22  23
ATOM     23  C   UNL     1      30.592 -23.728 -14.297  0.00  0.00    -0.022 C 
ATOM     24  C   UNL     1      30.082 -24.928 -14.763  0.00  0.00    -0.001 C 
ATOM     25  C   UNL     1      30.076 -22.514 -14.719  0.00  0.00    -0.001 C 
ATOM     26  C   UNL     1      29.026 -24.916 -15.674  0.00  0.00    +0.037 C 
ATOM     27  C   UNL     1      29.019 -22.500 -15.631  0.00  0.00    +0.037 C 
ATOM     28  C   UNL     1      28.495 -23.701 -16.108  0.00  0.00    +0.139 C 
BRANCH  28  29
ATOM     29  O   UNL     1      27.465 -23.688 -16.998  0.00  0.00    -0.471 OA
ATOM     30  C   UNL     1      26.869 -22.424 -17.284  0.00  0.00    +0.252 C 
ENDBRANCH  28  29
ENDBRANCH  22  23
ENDBRANCH  21  22
ENDBRANCH   7  21
TORSDOF 4
ENDMDL
MODEL 5
REMARK VINA RESULT:     -10.1      3.322      5.694
REMARK  Name = 5326930
REMARK  4 active torsions:
REMARK  status: ('A' for Active; 'I' for Inactive)
REMARK    1  A    between atoms: C_7  and  C_21
REMARK    2  A    between atoms: C_21  and  C_22
REMARK    3  A    between atoms: C_22  and  C_23
REMARK    4  A    between atoms: C_28  and  O_29
REMARK                            x       y       z     vdW  Elec       q    Type
REMARK                         _______ _______ _______ _____ _____    ______ ____
ROOT
ATOM      1  O   UNL     1      37.928 -22.782 -12.983  0.00  0.00    -0.209 OA
ATOM      2  N   UNL     1      34.561 -24.643 -11.869  0.00  0.00    -0.275 N 
ATOM      3  N   UNL     1      34.542 -22.656 -17.000  0.00  0.00    -0.315 N 
ATOM      4  N   UNL     1      32.689 -23.695 -16.352  0.00  0.00    -0.316 N 
ATOM      5  N   UNL     1      36.766 -23.906 -11.362  0.00  0.00    -0.302 NA
ATOM      6  N   UNL     1      35.458 -25.067  -9.802  0.00  0.00    -0.320 N 
ATOM      7  C   UNL     1      33.511 -24.246 -14.034  0.00  0.00    +0.007 C 
ATOM      8  C   UNL     1      34.606 -24.119 -13.165  0.00  0.00    +0.060 C 
ATOM      9  C   UNL     1      33.607 -23.702 -15.328  0.00  0.00    +0.056 C 
ATOM     10  C   UNL     1      34.779 -23.056 -15.709  0.00  0.00    +0.060 C 
ATOM     11  C   UNL     1      35.772 -23.460 -13.587  0.00  0.00    +0.109 C 
ATOM     12  C   UNL     1      35.887 -22.912 -14.873  0.00  0.00    +0.029 C 
ATOM     13  C   UNL     1      36.905 -23.356 -12.623  0.00  0.00    +0.208 C 
ATOM     14  C   UNL     1      33.281 -23.060 -17.337  0.00  0.00    +0.182 C 
ATOM     15  C   UNL     1      35.650 -24.504 -11.039  0.00  0.00    +0.248 C 
ATOM     16  H   UNL     1      33.753 -25.108 -11.553  0.00  0.00    +0.156 HD
ATOM     17  H   UNL     1      35.169 -22.164 -17.578  0.00  0.00    +0.148 HD
ATOM     18  H   UNL     1      31.783 -24.082 -16.347  0.00  0.00    +0.148 HD
ATOM     19  H   UNL     1      34.606 -25.511  -9.590  0.00  0.00    +0.146 HD
ATOM     20  H   UNL     1      36.174 -25.026  -9.127  0.00  0.00    +0.146 HD
ENDROOT
BRANCH   7  21
ATOM     21  C   UNL     1      32.266 -24.947 -13.592  0.00  0.00    +0.034 C 
BRANCH  21  22
ATOM     22  C   UNL     1      31.120 -23.995 -13.201  0.00  0.00    +0.031 C 
BRANCH  22  23
ATOM     23  C   UNL     1      30.093 -23.819 -14.292  0.00  0.00    -0.022 C 
ATOM     24  C   UNL     1      29.544 -24.939 -14.895  0.00  0.00    -0.001 C 
ATOM     25  C   UNL     1      29.718 -22.541 -14.672  0.00  0.00    -0.001 C 
ATOM     26  C   UNL     1      28.594 -24.778 -15.904  0.00  0.00    +0.037 C 
ATOM     27  C   UNL     1      28.768 -22.378 -15.682  0.00  0.00    +0.037 C 
ATOM     28  C   UNL     1      28.207 -23.497 -16.297  0.00  0.00    +0.139 C 
BRANCH  28  29
ATOM     29  O   UNL     1      27.281 -23.338 -17.282  0.00  0.00    -0.471 OA
ATOM     30  C   UNL     1      26.600 -22.086 -17.339  0.00  0.00    +0.252 C 
ENDBRANCH  28  29
ENDBRANCH  22  23
ENDBRANCH  21  22
ENDBRANCH   7  21
TORSDOF 4
ENDMDL
MODEL 6
REMARK VINA RESULT:      -9.8      3.127      5.985
REMARK  Name = 5326930
REMARK  4 active torsions:
REMARK  status: ('A' for Active; 'I' for Inactive)
REMARK    1  A    between atoms: C_7  and  C_21
REMARK    2  A    between atoms: C_21  and  C_22
REMARK    3  A    between atoms: C_22  and  C_23
REMARK    4  A    between atoms: C_28  and  O_29
REMARK                            x       y       z     vdW  Elec       q    Type
REMARK                         _______ _______ _______ _____ _____    ______ ____
ROOT
ATOM      1  O   UNL     1      38.366 -22.615 -15.348  0.00  0.00    -0.209 OA
ATOM      2  N   UNL     1      34.859 -24.257 -14.323  0.00  0.00    -0.275 N 
ATOM      3  N   UNL     1      34.813 -21.396 -19.023  0.00  0.00    -0.315 N 
ATOM      4  N   UNL     1      32.883 -22.320 -18.427  0.00  0.00    -0.316 N 
ATOM      5  N   UNL     1      37.162 -23.873 -13.861  0.00  0.00    -0.302 NA
ATOM      6  N   UNL     1      35.806 -25.141 -12.432  0.00  0.00    -0.320 N 
ATOM      7  C   UNL     1      33.753 -23.365 -16.305  0.00  0.00    +0.007 C 
ATOM      8  C   UNL     1      34.900 -23.518 -15.511  0.00  0.00    +0.060 C 
ATOM      9  C   UNL     1      33.847 -22.613 -17.491  0.00  0.00    +0.056 C 
ATOM     10  C   UNL     1      35.067 -22.044 -17.841  0.00  0.00    +0.060 C 
ATOM     11  C   UNL     1      36.114 -22.929 -15.898  0.00  0.00    +0.109 C 
ATOM     12  C   UNL     1      36.227 -22.176 -17.076  0.00  0.00    +0.029 C 
ATOM     13  C   UNL     1      37.300 -23.126 -15.017  0.00  0.00    +0.208 C 
ATOM     14  C   UNL     1      33.496 -21.590 -19.331  0.00  0.00    +0.182 C 
ATOM     15  C   UNL     1      35.999 -24.391 -13.564  0.00  0.00    +0.248 C 
ATOM     16  H   UNL     1      34.018 -24.678 -14.033  0.00  0.00    +0.156 HD
ATOM     17  H   UNL     1      35.464 -20.882 -19.553  0.00  0.00    +0.148 HD
ATOM     18  H   UNL     1      31.938 -22.598 -18.422  0.00  0.00    +0.148 HD
ATOM     19  H   UNL     1      34.918 -25.518 -12.236  0.00  0.00    +0.146 HD
ATOM     20  H   UNL     1      36.556 -25.302 -11.814  0.00  0.00    +0.146 HD
ENDROOT
BRANCH   7  21
ATOM     21  C   UNL     1      32.456 -23.989 -15.899  0.00  0.00    +0.034 C 
BRANCH  21  22
ATOM     22  C   UNL     1      31.703 -23.208 -14.806  0.00  0.00    +0.031 C 
BRANCH  22  23
ATOM     23  C   UNL     1      30.248 -22.980 -15.133  0.00  0.00    -0.022 C 
ATOM     24  C   UNL     1      29.740 -23.444 -16.335  0.00  0.00    -0.001 C 
ATOM     25  C   UNL     1      29.446 -22.307 -14.225  0.00  0.00    -0.001 C 
ATOM     26  C   UNL     1      28.395 -23.233 -16.638  0.00  0.00    +0.037 C 
ATOM     27  C   UNL     1      28.100 -22.095 -14.527  0.00  0.00    +0.037 C 
ATOM     28  C   UNL     1      27.575 -22.558 -15.734  0.00  0.00    +0.139 C 
BRANCH  28  29
ATOM     29  O   UNL     1      26.263 -22.351 -16.029  0.00  0.00    -0.471 OA
ATOM     30  C   UNL     1      25.970 -21.433 -17.081  0.00  0.00    +0.252 C 
ENDBRANCH  28  29
ENDBRANCH  22  23
ENDBRANCH  21  22
ENDBRANCH   7  21
TORSDOF 4
ENDMDL
MODEL 7
REMARK VINA RESULT:      -9.6      2.717      6.058
REMARK  Name = 5326930
REMARK  4 active torsions:
REMARK  status: ('A' for Active; 'I' for Inactive)
REMARK    1  A    between atoms: C_7  and  C_21
REMARK    2  A    between atoms: C_21  and  C_22
REMARK    3  A    between atoms: C_22  and  C_23
REMARK    4  A    between atoms: C_28  and  O_29
REMARK                            x       y       z     vdW  Elec       q    Type
REMARK                         _______ _______ _______ _____ _____    ______ ____
ROOT
ATOM      1  O   UNL     1      33.125 -22.667 -18.992  0.00  0.00    -0.209 OA
ATOM      2  N   UNL     1      35.348 -22.634 -15.660  0.00  0.00    -0.275 N 
ATOM      3  N   UNL     1      30.120 -24.201 -14.963  0.00  0.00    -0.315 N 
ATOM      4  N   UNL     1      31.380 -24.173 -13.133  0.00  0.00    -0.316 N 
ATOM      5  N   UNL     1      35.154 -22.279 -18.005  0.00  0.00    -0.302 NA
ATOM      6  N   UNL     1      37.167 -21.923 -16.860  0.00  0.00    -0.320 N 
ATOM      7  C   UNL     1      33.478 -23.390 -14.290  0.00  0.00    +0.007 C 
ATOM      8  C   UNL     1      34.011 -23.025 -15.536  0.00  0.00    +0.060 C 
ATOM      9  C   UNL     1      32.127 -23.777 -14.218  0.00  0.00    +0.056 C 
ATOM     10  C   UNL     1      31.360 -23.785 -15.379  0.00  0.00    +0.060 C 
ATOM     11  C   UNL     1      33.204 -23.047 -16.684  0.00  0.00    +0.109 C 
ATOM     12  C   UNL     1      31.856 -23.429 -16.633  0.00  0.00    +0.029 C 
ATOM     13  C   UNL     1      33.823 -22.650 -17.982  0.00  0.00    +0.208 C 
ATOM     14  C   UNL     1      30.183 -24.420 -13.615  0.00  0.00    +0.182 C 
ATOM     15  C   UNL     1      35.843 -22.282 -16.894  0.00  0.00    +0.248 C 
ATOM     16  H   UNL     1      35.931 -22.611 -14.867  0.00  0.00    +0.156 HD
ATOM     17  H   UNL     1      29.328 -24.320 -15.534  0.00  0.00    +0.148 HD
ATOM     18  H   UNL     1      31.678 -24.255 -12.198  0.00  0.00    +0.148 HD
ATOM     19  H   UNL     1      37.659 -21.936 -16.007  0.00  0.00    +0.146 HD
ATOM     20  H   UNL     1      37.626 -21.652 -17.688  0.00  0.00    +0.146 HD
ENDROOT
BRANCH   7  21
ATOM     21  C   UNL     1      34.331 -23.369 -13.061  0.00  0.00    +0.034 C 
BRANCH  21  22
ATOM     22  C   UNL     1      34.656 -24.767 -12.502  0.00  0.00    +0.031 C 
BRANCH  22  23
ATOM     23  C   UNL     1      35.982 -25.306 -12.978  0.00  0.00    -0.022 C 
ATOM     24  C   UNL     1      37.071 -25.286 -12.121  0.00  0.00    -0.001 C 
ATOM     25  C   UNL     1      36.089 -25.809 -14.265  0.00  0.00    -0.001 C 
ATOM     26  C   UNL     1      38.297 -25.784 -12.561  0.00  0.00    +0.037 C 
ATOM     27  C   UNL     1      37.316 -26.307 -14.705  0.00  0.00    +0.037 C 
ATOM     28  C   UNL     1      38.419 -26.295 -13.853  0.00  0.00    +0.139 C 
BRANCH  28  29
ATOM     29  O   UNL     1      39.616 -26.780 -14.283  0.00  0.00    -0.471 OA
ATOM     30  C   UNL     1      40.631 -25.826 -14.591  0.00  0.00    +0.252 C 
ENDBRANCH  28  29
ENDBRANCH  22  23
ENDBRANCH  21  22
ENDBRANCH   7  21
TORSDOF 4
ENDMDL
MODEL 8
REMARK VINA RESULT:      -9.6      3.123      7.511
REMARK  Name = 5326930
REMARK  4 active torsions:
REMARK  status: ('A' for Active; 'I' for Inactive)
REMARK    1  A    between atoms: C_7  and  C_21
REMARK    2  A    between atoms: C_21  and  C_22
REMARK    3  A    between atoms: C_22  and  C_23
REMARK    4  A    between atoms: C_28  and  O_29
REMARK                            x       y       z     vdW  Elec       q    Type
REMARK                         _______ _______ _______ _____ _____    ______ ____
ROOT
ATOM      1  O   UNL     1      33.390 -19.424 -21.649  0.00  0.00    -0.209 OA
ATOM      2  N   UNL     1      36.822 -20.219 -19.742  0.00  0.00    -0.275 N 
ATOM      3  N   UNL     1      32.389 -22.792 -17.741  0.00  0.00    -0.315 N 
ATOM      4  N   UNL     1      34.309 -23.213 -16.706  0.00  0.00    -0.316 N 
ATOM      5  N   UNL     1      35.647 -19.081 -21.470  0.00  0.00    -0.302 NA
ATOM      6  N   UNL     1      37.957 -18.827 -21.167  0.00  0.00    -0.320 N 
ATOM      7  C   UNL     1      35.714 -21.723 -18.175  0.00  0.00    +0.007 C 
ATOM      8  C   UNL     1      35.665 -20.849 -19.272  0.00  0.00    +0.060 C 
ATOM      9  C   UNL     1      34.522 -22.332 -17.740  0.00  0.00    +0.056 C 
ATOM     10  C   UNL     1      33.333 -22.050 -18.406  0.00  0.00    +0.060 C 
ATOM     11  C   UNL     1      34.446 -20.591 -19.917  0.00  0.00    +0.109 C 
ATOM     12  C   UNL     1      33.247 -21.188 -19.499  0.00  0.00    +0.029 C 
ATOM     13  C   UNL     1      34.452 -19.655 -21.078  0.00  0.00    +0.208 C 
ATOM     14  C   UNL     1      33.020 -23.467 -16.735  0.00  0.00    +0.182 C 
ATOM     15  C   UNL     1      36.744 -19.367 -20.820  0.00  0.00    +0.248 C 
ATOM     16  H   UNL     1      37.688 -20.386 -19.304  0.00  0.00    +0.156 HD
ATOM     17  H   UNL     1      31.428 -22.828 -17.952  0.00  0.00    +0.148 HD
ATOM     18  H   UNL     1      34.977 -23.575 -16.079  0.00  0.00    +0.148 HD
ATOM     19  H   UNL     1      38.765 -19.064 -20.657  0.00  0.00    +0.146 HD
ATOM     20  H   UNL     1      38.018 -18.202 -21.926  0.00  0.00    +0.146 HD
ENDROOT
BRANCH   7  21
ATOM     21  C   UNL     1      37.010 -22.003 -17.481  0.00  0.00    +0.034 C 
BRANCH  21  22
ATOM     22  C   UNL     1      37.013 -21.625 -15.989  0.00  0.00    +0.031 C 
BRANCH  22  23
ATOM     23  C   UNL     1      37.356 -22.782 -15.082  0.00  0.00    -0.022 C 
ATOM     24  C   UNL     1      36.527 -23.073 -14.010  0.00  0.00    -0.001 C 
ATOM     25  C   UNL     1      38.493 -23.530 -15.337  0.00  0.00    -0.001 C 
ATOM     26  C   UNL     1      36.843 -24.142 -13.172  0.00  0.00    +0.037 C 
ATOM     27  C   UNL     1      38.810 -24.600 -14.498  0.00  0.00    +0.037 C 
ATOM     28  C   UNL     1      37.985 -24.905 -13.416  0.00  0.00    +0.139 C 
BRANCH  28  29
ATOM     29  O   UNL     1      38.294 -25.948 -12.597  0.00  0.00    -0.471 OA
ATOM     30  C   UNL     1      37.352 -26.277 -11.578  0.00  0.00    +0.252 C 
ENDBRANCH  28  29
ENDBRANCH  22  23
ENDBRANCH  21  22
ENDBRANCH   7  21
TORSDOF 4
ENDMDL
MODEL 9
REMARK VINA RESULT:      -9.5     11.156     14.914
REMARK  Name = 5326930
REMARK  4 active torsions:
REMARK  status: ('A' for Active; 'I' for Inactive)
REMARK    1  A    between atoms: C_7  and  C_21
REMARK    2  A    between atoms: C_21  and  C_22
REMARK    3  A    between atoms: C_22  and  C_23
REMARK    4  A    between atoms: C_28  and  O_29
REMARK                            x       y       z     vdW  Elec       q    Type
REMARK                         _______ _______ _______ _____ _____    ______ ____
ROOT
ATOM      1  O   UNL     1      32.440  -5.021 -21.187  0.00  0.00    -0.209 OA
ATOM      2  N   UNL     1      32.466  -8.158 -23.678  0.00  0.00    -0.275 N 
ATOM      3  N   UNL     1      31.899  -9.412 -18.351  0.00  0.00    -0.315 N 
ATOM      4  N   UNL     1      31.916 -11.130 -19.759  0.00  0.00    -0.316 N 
ATOM      5  N   UNL     1      32.585  -5.806 -23.333  0.00  0.00    -0.302 NA
ATOM      6  N   UNL     1      32.719  -6.753 -25.472  0.00  0.00    -0.320 N 
ATOM      7  C   UNL     1      32.197  -9.740 -21.842  0.00  0.00    +0.007 C 
ATOM      8  C   UNL     1      32.324  -8.424 -22.312  0.00  0.00    +0.060 C 
ATOM      9  C   UNL     1      32.056  -9.955 -20.459  0.00  0.00    +0.056 C 
ATOM     10  C   UNL     1      32.049  -8.861 -19.599  0.00  0.00    +0.060 C 
ATOM     11  C   UNL     1      32.312  -7.347 -21.412  0.00  0.00    +0.109 C 
ATOM     12  C   UNL     1      32.173  -7.540 -20.030  0.00  0.00    +0.029 C 
ATOM     13  C   UNL     1      32.450  -5.969 -21.967  0.00  0.00    +0.208 C 
ATOM     14  C   UNL     1      31.825 -10.769 -18.499  0.00  0.00    +0.182 C 
ATOM     15  C   UNL     1      32.589  -6.857 -24.110  0.00  0.00    +0.248 C 
ATOM     16  H   UNL     1      32.478  -8.898 -24.326  0.00  0.00    +0.156 HD
ATOM     17  H   UNL     1      31.854  -8.917 -17.501  0.00  0.00    +0.148 HD
ATOM     18  H   UNL     1      31.890 -12.045 -20.123  0.00  0.00    +0.148 HD
ATOM     19  H   UNL     1      32.718  -7.564 -26.030  0.00  0.00    +0.146 HD
ATOM     20  H   UNL     1      32.814  -5.867 -25.891  0.00  0.00    +0.146 HD
ENDROOT
BRANCH   7  21
ATOM     21  C   UNL     1      32.209 -10.893 -22.795  0.00  0.00    +0.034 C 
BRANCH  21  22
ATOM     22  C   UNL     1      33.614 -11.266 -23.305  0.00  0.00    +0.031 C 
BRANCH  22  23
ATOM     23  C   UNL     1      33.800 -12.749 -23.509  0.00  0.00    -0.022 C 
ATOM     24  C   UNL     1      34.470 -13.488 -22.547  0.00  0.00    -0.001 C 
ATOM     25  C   UNL     1      33.299 -13.345 -24.655  0.00  0.00    -0.001 C 
ATOM     26  C   UNL     1      34.642 -14.859 -22.734  0.00  0.00    +0.037 C 
ATOM     27  C   UNL     1      33.471 -14.718 -24.843  0.00  0.00    +0.037 C 
ATOM     28  C   UNL     1      34.143 -15.474 -23.883  0.00  0.00    +0.139 C 
BRANCH  28  29
ATOM     29  O   UNL     1      34.312 -16.812 -24.067  0.00  0.00    -0.471 OA
ATOM     30  C   UNL     1      35.085 -17.510 -23.092  0.00  0.00    +0.252 C 
ENDBRANCH  28  29
ENDBRANCH  22  23
ENDBRANCH  21  22
ENDBRANCH   7  21
TORSDOF 4
ENDMDL
