MODEL 1
REMARK VINA RESULT:     -11.1      0.000      0.000
REMARK  Name = 10430040
REMARK  12 active torsions:
REMARK  status: ('A' for Active; 'I' for Inactive)
REMARK    1  A    between atoms: C_1  and  N_3
REMARK    2  A    between atoms: C_1  and  C_12
REMARK    3  A    between atoms: C_1  and  C_19
REMARK    4  A    between atoms: C_4  and  C_6
REMARK    5  A    between atoms: C_6  and  C_7
REMARK    6  A    between atoms: C_7  and  C_9
REMARK    7  A    between atoms: C_9  and  O_10
REMARK    8  A    between atoms: C_12  and  C_13
REMARK    9  A    between atoms: C_13  and  C_16
REMARK   10  A    between atoms: C_16  and  O_17
REMARK   11  A    between atoms: C_19  and  C_20
REMARK   12  A    between atoms: C_23  and  C_26
REMARK                            x       y       z     vdW  Elec       q    Type
REMARK                         _______ _______ _______ _____ _____    ______ ____
ROOT
ATOM      1  C   UNL     1      33.419 -22.819 -16.088  0.00  0.00    +0.076 C 
ENDROOT
BRANCH   1   3
ATOM      2  O   UNL     1      30.673 -22.210 -16.764  0.00  0.00    -0.275 OA
ATOM      3  N   UNL     1      32.232 -23.530 -15.656  0.00  0.00    -0.306 N 
ATOM      4  C   UNL     1      30.953 -23.159 -16.036  0.00  0.00    +0.223 C 
ATOM      5  H   UNL     1      32.339 -24.312 -15.067  0.00  0.00    +0.149 HD
BRANCH   4   6
ATOM      6  C   UNL     1      29.908 -24.081 -15.434  0.00  0.00    +0.097 C 
BRANCH   6   7
ATOM      7  C   UNL     1      28.579 -23.374 -15.187  0.00  0.00    +0.119 C 
BRANCH   7   9
ATOM      8  O   UNL     1      27.470 -23.986 -17.264  0.00  0.00    -0.250 OA
ATOM      9  C   UNL     1      27.823 -23.125 -16.471  0.00  0.00    +0.314 C 
BRANCH   9  10
ATOM     10  O   UNL     1      27.572 -21.802 -16.650  0.00  0.00    -0.480 OA
ATOM     11  H   UNL     1      27.285 -21.277 -15.930  0.00  0.00    +0.295 HD
ENDBRANCH   9  10
ENDBRANCH   7   9
ENDBRANCH   6   7
ENDBRANCH   4   6
ENDBRANCH   1   3
BRANCH   1  12
ATOM     12  C   UNL     1      34.489 -22.933 -14.981  0.00  0.00    +0.031 C 
BRANCH  12  13
ATOM     13  C   UNL     1      34.513 -24.279 -14.233  0.00  0.00    +0.101 C 
ATOM     14  C   UNL     1      35.903 -24.907 -14.305  0.00  0.00    +0.012 C 
BRANCH  13  16
ATOM     15  O   UNL     1      34.743 -24.619 -11.832  0.00  0.00    -0.250 OA
ATOM     16  C   UNL     1      34.140 -24.113 -12.770  0.00  0.00    +0.313 C 
BRANCH  16  17
ATOM     17  O   UNL     1      33.026 -23.354 -12.604  0.00  0.00    -0.480 OA
ATOM     18  H   UNL     1      32.719 -22.813 -13.305  0.00  0.00    +0.295 HD
ENDBRANCH  16  17
ENDBRANCH  13  16
ENDBRANCH  12  13
ENDBRANCH   1  12
BRANCH   1  19
ATOM     19  C   UNL     1      33.905 -23.363 -17.443  0.00  0.00    +0.046 C 
BRANCH  19  20
ATOM     20  C   UNL     1      34.135 -22.277 -18.467  0.00  0.00    -0.021 C 
ATOM     21  C   UNL     1      35.431 -21.978 -18.889  0.00  0.00    -0.004 C 
ATOM     22  C   UNL     1      33.051 -21.571 -18.991  0.00  0.00    -0.004 C 
ATOM     23  C   UNL     1      34.560 -20.270 -20.359  0.00  0.00    -0.000 C 
ATOM     24  C   UNL     1      35.643 -20.975 -19.835  0.00  0.00    -0.000 C 
ATOM     25  C   UNL     1      33.263 -20.569 -19.938  0.00  0.00    -0.000 C 
BRANCH  23  26
ATOM     26  C   UNL     1      34.779 -19.231 -21.340  0.00  0.00    -0.000 C 
ATOM     27  C   UNL     1      34.473 -19.461 -22.681  0.00  0.00    -0.000 C 
ATOM     28  C   UNL     1      35.295 -17.996 -20.945  0.00  0.00    -0.000 C 
ATOM     29  C   UNL     1      34.683 -18.458 -23.628  0.00  0.00    +0.000 C 
ATOM     30  C   UNL     1      35.506 -16.993 -21.891  0.00  0.00    +0.000 C 
ATOM     31  C   UNL     1      35.200 -17.224 -23.233  0.00  0.00    +0.000 C 
ENDBRANCH  23  26
ENDBRANCH  19  20
ENDBRANCH   1  19
TORSDOF 12
ENDMDL
MODEL 2
REMARK VINA RESULT:     -11.1      1.408      1.687
REMARK  Name = 10430040
REMARK  12 active torsions:
REMARK  status: ('A' for Active; 'I' for Inactive)
REMARK    1  A    between atoms: C_1  and  N_3
REMARK    2  A    between atoms: C_1  and  C_12
REMARK    3  A    between atoms: C_1  and  C_19
REMARK    4  A    between atoms: C_4  and  C_6
REMARK    5  A    between atoms: C_6  and  C_7
REMARK    6  A    between atoms: C_7  and  C_9
REMARK    7  A    between atoms: C_9  and  O_10
REMARK    8  A    between atoms: C_12  and  C_13
REMARK    9  A    between atoms: C_13  and  C_16
REMARK   10  A    between atoms: C_16  and  O_17
REMARK   11  A    between atoms: C_19  and  C_20
REMARK   12  A    between atoms: C_23  and  C_26
REMARK                            x       y       z     vdW  Elec       q    Type
REMARK                         _______ _______ _______ _____ _____    ______ ____
ROOT
ATOM      1  C   UNL     1      33.874 -22.732 -16.155  0.00  0.00    +0.076 C 
ENDROOT
BRANCH   1   3
ATOM      2  O   UNL     1      31.078 -22.379 -16.811  0.00  0.00    -0.275 OA
ATOM      3  N   UNL     1      32.753 -23.510 -15.665  0.00  0.00    -0.306 N 
ATOM      4  C   UNL     1      31.443 -23.263 -16.041  0.00  0.00    +0.223 C 
ATOM      5  H   UNL     1      32.931 -24.249 -15.039  0.00  0.00    +0.149 HD
BRANCH   4   6
ATOM      6  C   UNL     1      30.484 -24.232 -15.373  0.00  0.00    +0.097 C 
BRANCH   6   7
ATOM      7  C   UNL     1      29.145 -23.586 -15.033  0.00  0.00    +0.119 C 
BRANCH   7   9
ATOM      8  O   UNL     1      27.814 -24.276 -16.949  0.00  0.00    -0.250 OA
ATOM      9  C   UNL     1      28.287 -23.384 -16.259  0.00  0.00    +0.314 C 
BRANCH   9  10
ATOM     10  O   UNL     1      28.092 -22.064 -16.516  0.00  0.00    -0.480 OA
ATOM     11  H   UNL     1      27.862 -21.783 -17.380  0.00  0.00    +0.295 HD
ENDBRANCH   9  10
ENDBRANCH   7   9
ENDBRANCH   6   7
ENDBRANCH   4   6
ENDBRANCH   1   3
BRANCH   1  12
ATOM     12  C   UNL     1      34.996 -22.768 -15.097  0.00  0.00    +0.031 C 
BRANCH  12  13
ATOM     13  C   UNL     1      36.408 -23.031 -15.652  0.00  0.00    +0.101 C 
ATOM     14  C   UNL     1      37.184 -21.722 -15.783  0.00  0.00    +0.012 C 
BRANCH  13  16
ATOM     15  O   UNL     1      37.916 -23.607 -13.829  0.00  0.00    -0.250 OA
ATOM     16  C   UNL     1      37.199 -23.966 -14.754  0.00  0.00    +0.313 C 
BRANCH  16  17
ATOM     17  O   UNL     1      37.050 -25.269 -15.108  0.00  0.00    -0.480 OA
ATOM     18  H   UNL     1      36.544 -25.845 -14.570  0.00  0.00    +0.295 HD
ENDBRANCH  16  17
ENDBRANCH  13  16
ENDBRANCH  12  13
ENDBRANCH   1  12
BRANCH   1  19
ATOM     19  C   UNL     1      34.332 -23.257 -17.527  0.00  0.00    +0.046 C 
BRANCH  19  20
ATOM     20  C   UNL     1      34.464 -22.166 -18.564  0.00  0.00    -0.021 C 
ATOM     21  C   UNL     1      35.728 -21.774 -19.008  0.00  0.00    -0.004 C 
ATOM     22  C   UNL     1      33.323 -21.548 -19.077  0.00  0.00    -0.004 C 
ATOM     23  C   UNL     1      34.709 -20.150 -20.478  0.00  0.00    -0.000 C 
ATOM     24  C   UNL     1      35.849 -20.768 -19.965  0.00  0.00    -0.000 C 
ATOM     25  C   UNL     1      33.445 -20.542 -20.034  0.00  0.00    -0.000 C 
BRANCH  23  26
ATOM     26  C   UNL     1      34.835 -19.107 -21.470  0.00  0.00    -0.000 C 
ATOM     27  C   UNL     1      34.491 -19.361 -22.798  0.00  0.00    -0.000 C 
ATOM     28  C   UNL     1      35.298 -17.844 -21.099  0.00  0.00    -0.000 C 
ATOM     29  C   UNL     1      34.611 -18.353 -23.755  0.00  0.00    +0.000 C 
ATOM     30  C   UNL     1      35.418 -16.836 -22.057  0.00  0.00    +0.000 C 
ATOM     31  C   UNL     1      35.075 -17.091 -23.385  0.00  0.00    +0.000 C 
ENDBRANCH  23  26
ENDBRANCH  19  20
ENDBRANCH   1  19
TORSDOF 12
ENDMDL
MODEL 3
REMARK VINA RESULT:     -10.7      1.288      2.506
REMARK  Name = 10430040
REMARK  12 active torsions:
REMARK  status: ('A' for Active; 'I' for Inactive)
REMARK    1  A    between atoms: C_1  and  N_3
REMARK    2  A    between atoms: C_1  and  C_12
REMARK    3  A    between atoms: C_1  and  C_19
REMARK    4  A    between atoms: C_4  and  C_6
REMARK    5  A    between atoms: C_6  and  C_7
REMARK    6  A    between atoms: C_7  and  C_9
REMARK    7  A    between atoms: C_9  and  O_10
REMARK    8  A    between atoms: C_12  and  C_13
REMARK    9  A    between atoms: C_13  and  C_16
REMARK   10  A    between atoms: C_16  and  O_17
REMARK   11  A    between atoms: C_19  and  C_20
REMARK   12  A    between atoms: C_23  and  C_26
REMARK                            x       y       z     vdW  Elec       q    Type
REMARK                         _______ _______ _______ _____ _____    ______ ____
ROOT
ATOM      1  C   UNL     1      33.397 -22.798 -16.189  0.00  0.00    +0.076 C 
ENDROOT
BRANCH   1   3
ATOM      2  O   UNL     1      30.563 -22.390 -16.602  0.00  0.00    -0.275 OA
ATOM      3  N   UNL     1      32.312 -23.632 -15.710  0.00  0.00    -0.306 N 
ATOM      4  C   UNL     1      30.979 -23.351 -15.962  0.00  0.00    +0.223 C 
ATOM      5  H   UNL     1      32.532 -24.435 -15.184  0.00  0.00    +0.149 HD
BRANCH   4   6
ATOM      6  C   UNL     1      30.067 -24.393 -15.339  0.00  0.00    +0.097 C 
BRANCH   6   7
ATOM      7  C   UNL     1      30.040 -24.308 -13.816  0.00  0.00    +0.119 C 
BRANCH   7   9
ATOM      8  O   UNL     1      32.015 -23.547 -12.616  0.00  0.00    -0.250 OA
ATOM      9  C   UNL     1      31.422 -24.430 -13.218  0.00  0.00    +0.314 C 
BRANCH   9  10
ATOM     10  O   UNL     1      31.946 -25.666 -13.428  0.00  0.00    -0.480 OA
ATOM     11  H   UNL     1      31.648 -26.394 -12.919  0.00  0.00    +0.295 HD
ENDBRANCH   9  10
ENDBRANCH   7   9
ENDBRANCH   6   7
ENDBRANCH   4   6
ENDBRANCH   1   3
BRANCH   1  12
ATOM     12  C   UNL     1      34.496 -22.754 -15.107  0.00  0.00    +0.031 C 
BRANCH  12  13
ATOM     13  C   UNL     1      35.712 -23.659 -15.374  0.00  0.00    +0.101 C 
ATOM     14  C   UNL     1      36.999 -22.978 -14.913  0.00  0.00    +0.012 C 
BRANCH  13  16
ATOM     15  O   UNL     1      36.209 -26.004 -14.946  0.00  0.00    -0.250 OA
ATOM     16  C   UNL     1      35.592 -24.989 -14.651  0.00  0.00    +0.313 C 
BRANCH  16  17
ATOM     17  O   UNL     1      34.686 -24.946 -13.640  0.00  0.00    -0.480 OA
ATOM     18  H   UNL     1      34.743 -24.275 -12.988  0.00  0.00    +0.295 HD
ENDBRANCH  16  17
ENDBRANCH  13  16
ENDBRANCH  12  13
ENDBRANCH   1  12
BRANCH   1  19
ATOM     19  C   UNL     1      33.915 -23.319 -17.541  0.00  0.00    +0.046 C 
BRANCH  19  20
ATOM     20  C   UNL     1      34.143 -22.218 -18.551  0.00  0.00    -0.021 C 
ATOM     21  C   UNL     1      33.056 -21.516 -19.074  0.00  0.00    -0.004 C 
ATOM     22  C   UNL     1      35.439 -21.903 -18.960  0.00  0.00    -0.004 C 
ATOM     23  C   UNL     1      34.563 -20.184 -20.414  0.00  0.00    -0.000 C 
ATOM     24  C   UNL     1      33.267 -20.499 -20.005  0.00  0.00    -0.000 C 
ATOM     25  C   UNL     1      35.649 -20.886 -19.890  0.00  0.00    -0.000 C 
BRANCH  23  26
ATOM     26  C   UNL     1      34.781 -19.130 -21.379  0.00  0.00    -0.000 C 
ATOM     27  C   UNL     1      34.494 -19.348 -22.727  0.00  0.00    -0.000 C 
ATOM     28  C   UNL     1      35.276 -17.894 -20.963  0.00  0.00    -0.000 C 
ATOM     29  C   UNL     1      34.703 -18.331 -23.659  0.00  0.00    +0.000 C 
ATOM     30  C   UNL     1      35.485 -16.876 -21.895  0.00  0.00    +0.000 C 
ATOM     31  C   UNL     1      35.199 -17.095 -23.243  0.00  0.00    +0.000 C 
ENDBRANCH  23  26
ENDBRANCH  19  20
ENDBRANCH   1  19
TORSDOF 12
ENDMDL
MODEL 4
REMARK VINA RESULT:     -10.0      1.190      1.874
REMARK  Name = 10430040
REMARK  12 active torsions:
REMARK  status: ('A' for Active; 'I' for Inactive)
REMARK    1  A    between atoms: C_1  and  N_3
REMARK    2  A    between atoms: C_1  and  C_12
REMARK    3  A    between atoms: C_1  and  C_19
REMARK    4  A    between atoms: C_4  and  C_6
REMARK    5  A    between atoms: C_6  and  C_7
REMARK    6  A    between atoms: C_7  and  C_9
REMARK    7  A    between atoms: C_9  and  O_10
REMARK    8  A    between atoms: C_12  and  C_13
REMARK    9  A    between atoms: C_13  and  C_16
REMARK   10  A    between atoms: C_16  and  O_17
REMARK   11  A    between atoms: C_19  and  C_20
REMARK   12  A    between atoms: C_23  and  C_26
REMARK                            x       y       z     vdW  Elec       q    Type
REMARK                         _______ _______ _______ _____ _____    ______ ____
ROOT
ATOM      1  C   UNL     1      33.788 -22.951 -16.208  0.00  0.00    +0.076 C 
ENDROOT
BRANCH   1   3
ATOM      2  O   UNL     1      32.865 -23.293 -13.488  0.00  0.00    -0.275 OA
ATOM      3  N   UNL     1      32.415 -22.968 -15.744  0.00  0.00    -0.306 N 
ATOM      4  C   UNL     1      32.072 -23.139 -14.414  0.00  0.00    +0.223 C 
ATOM      5  H   UNL     1      31.693 -22.852 -16.404  0.00  0.00    +0.149 HD
BRANCH   4   6
ATOM      6  C   UNL     1      30.567 -23.115 -14.223  0.00  0.00    +0.097 C 
BRANCH   6   7
ATOM      7  C   UNL     1      29.844 -24.074 -15.163  0.00  0.00    +0.119 C 
BRANCH   7   9
ATOM      8  O   UNL     1      27.712 -23.589 -16.231  0.00  0.00    -0.250 OA
ATOM      9  C   UNL     1      28.904 -23.349 -16.097  0.00  0.00    +0.314 C 
BRANCH   9  10
ATOM     10  O   UNL     1      29.547 -22.372 -16.789  0.00  0.00    -0.480 OA
ATOM     11  H   UNL     1      29.674 -21.529 -16.401  0.00  0.00    +0.295 HD
ENDBRANCH   9  10
ENDBRANCH   7   9
ENDBRANCH   6   7
ENDBRANCH   4   6
ENDBRANCH   1   3
BRANCH   1  12
ATOM     12  C   UNL     1      34.639 -23.818 -15.257  0.00  0.00    +0.031 C 
BRANCH  12  13
ATOM     13  C   UNL     1      36.115 -23.397 -15.134  0.00  0.00    +0.101 C 
ATOM     14  C   UNL     1      36.324 -22.000 -15.715  0.00  0.00    +0.012 C 
BRANCH  13  16
ATOM     15  O   UNL     1      37.734 -23.532 -13.320  0.00  0.00    -0.250 OA
ATOM     16  C   UNL     1      36.575 -23.385 -13.687  0.00  0.00    +0.313 C 
BRANCH  16  17
ATOM     17  O   UNL     1      35.544 -23.220 -12.819  0.00  0.00    -0.480 OA
ATOM     18  H   UNL     1      35.613 -23.544 -11.942  0.00  0.00    +0.295 HD
ENDBRANCH  16  17
ENDBRANCH  13  16
ENDBRANCH  12  13
ENDBRANCH   1  12
BRANCH   1  19
ATOM     19  C   UNL     1      33.865 -23.423 -17.671  0.00  0.00    +0.046 C 
BRANCH  19  20
ATOM     20  C   UNL     1      34.103 -22.292 -18.645  0.00  0.00    -0.021 C 
ATOM     21  C   UNL     1      33.033 -21.508 -19.080  0.00  0.00    -0.004 C 
ATOM     22  C   UNL     1      35.392 -22.032 -19.111  0.00  0.00    -0.004 C 
ATOM     23  C   UNL     1      34.542 -20.204 -20.444  0.00  0.00    -0.000 C 
ATOM     24  C   UNL     1      33.253 -20.465 -19.978  0.00  0.00    -0.000 C 
ATOM     25  C   UNL     1      35.612 -20.988 -20.009  0.00  0.00    -0.000 C 
BRANCH  23  26
ATOM     26  C   UNL     1      34.770 -19.122 -21.375  0.00  0.00    -0.000 C 
ATOM     27  C   UNL     1      34.526 -19.311 -22.736  0.00  0.00    -0.000 C 
ATOM     28  C   UNL     1      35.231 -17.889 -20.913  0.00  0.00    -0.000 C 
ATOM     29  C   UNL     1      34.745 -18.267 -23.635  0.00  0.00    +0.000 C 
ATOM     30  C   UNL     1      35.450 -16.845 -21.813  0.00  0.00    +0.000 C 
ATOM     31  C   UNL     1      35.207 -17.034 -23.174  0.00  0.00    +0.000 C 
ENDBRANCH  23  26
ENDBRANCH  19  20
ENDBRANCH   1  19
TORSDOF 12
ENDMDL
MODEL 5
REMARK VINA RESULT:      -9.8      1.384      1.899
REMARK  Name = 10430040
REMARK  12 active torsions:
REMARK  status: ('A' for Active; 'I' for Inactive)
REMARK    1  A    between atoms: C_1  and  N_3
REMARK    2  A    between atoms: C_1  and  C_12
REMARK    3  A    between atoms: C_1  and  C_19
REMARK    4  A    between atoms: C_4  and  C_6
REMARK    5  A    between atoms: C_6  and  C_7
REMARK    6  A    between atoms: C_7  and  C_9
REMARK    7  A    between atoms: C_9  and  O_10
REMARK    8  A    between atoms: C_12  and  C_13
REMARK    9  A    between atoms: C_13  and  C_16
REMARK   10  A    between atoms: C_16  and  O_17
REMARK   11  A    between atoms: C_19  and  C_20
REMARK   12  A    between atoms: C_23  and  C_26
REMARK                            x       y       z     vdW  Elec       q    Type
REMARK                         _______ _______ _______ _____ _____    ______ ____
ROOT
ATOM      1  C   UNL     1      33.815 -23.168 -14.698  0.00  0.00    +0.076 C 
ENDROOT
BRANCH   1   3
ATOM      2  O   UNL     1      31.363 -24.649 -15.103  0.00  0.00    -0.275 OA
ATOM      3  N   UNL     1      32.459 -22.667 -14.585  0.00  0.00    -0.306 N 
ATOM      4  C   UNL     1      31.344 -23.460 -14.798  0.00  0.00    +0.223 C 
ATOM      5  H   UNL     1      32.324 -21.722 -14.343  0.00  0.00    +0.149 HD
BRANCH   4   6
ATOM      6  C   UNL     1      30.060 -22.671 -14.612  0.00  0.00    +0.097 C 
BRANCH   6   7
ATOM      7  C   UNL     1      28.817 -23.496 -14.929  0.00  0.00    +0.119 C 
BRANCH   7   9
ATOM      8  O   UNL     1      28.149 -22.015 -16.740  0.00  0.00    -0.250 OA
ATOM      9  C   UNL     1      28.233 -23.143 -16.276  0.00  0.00    +0.314 C 
BRANCH   9  10
ATOM     10  O   UNL     1      27.800 -24.250 -16.934  0.00  0.00    -0.480 OA
ATOM     11  H   UNL     1      27.700 -24.233 -17.866  0.00  0.00    +0.295 HD
ENDBRANCH   9  10
ENDBRANCH   7   9
ENDBRANCH   6   7
ENDBRANCH   4   6
ENDBRANCH   1   3
BRANCH   1  12
ATOM     12  C   UNL     1      34.094 -24.103 -13.503  0.00  0.00    +0.031 C 
BRANCH  12  13
ATOM     13  C   UNL     1      35.584 -24.352 -13.204  0.00  0.00    +0.101 C 
ATOM     14  C   UNL     1      36.420 -23.135 -13.591  0.00  0.00    +0.012 C 
BRANCH  13  16
ATOM     15  O   UNL     1      34.941 -24.920 -10.924  0.00  0.00    -0.250 OA
ATOM     16  C   UNL     1      35.819 -24.643 -11.731  0.00  0.00    +0.313 C 
BRANCH  16  17
ATOM     17  O   UNL     1      37.128 -24.531 -11.386  0.00  0.00    -0.480 OA
ATOM     18  H   UNL     1      37.364 -24.160 -10.559  0.00  0.00    +0.295 HD
ENDBRANCH  16  17
ENDBRANCH  13  16
ENDBRANCH  12  13
ENDBRANCH   1  12
BRANCH   1  19
ATOM     19  C   UNL     1      34.017 -23.862 -16.056  0.00  0.00    +0.046 C 
BRANCH  19  20
ATOM     20  C   UNL     1      34.394 -22.902 -17.161  0.00  0.00    -0.021 C 
ATOM     21  C   UNL     1      35.689 -22.385 -17.224  0.00  0.00    -0.004 C 
ATOM     22  C   UNL     1      33.448 -22.531 -18.117  0.00  0.00    -0.004 C 
ATOM     23  C   UNL     1      35.091 -21.128 -19.199  0.00  0.00    -0.000 C 
ATOM     24  C   UNL     1      36.037 -21.499 -18.243  0.00  0.00    -0.000 C 
ATOM     25  C   UNL     1      33.796 -21.646 -19.136  0.00  0.00    -0.000 C 
BRANCH  23  26
ATOM     26  C   UNL     1      35.452 -20.210 -20.256  0.00  0.00    -0.000 C 
ATOM     27  C   UNL     1      34.551 -19.947 -21.288  0.00  0.00    -0.000 C 
ATOM     28  C   UNL     1      36.699 -19.586 -20.242  0.00  0.00    -0.000 C 
ATOM     29  C   UNL     1      34.898 -19.060 -22.308  0.00  0.00    +0.000 C 
ATOM     30  C   UNL     1      37.046 -18.698 -21.262  0.00  0.00    +0.000 C 
ATOM     31  C   UNL     1      36.146 -18.436 -22.294  0.00  0.00    +0.000 C 
ENDBRANCH  23  26
ENDBRANCH  19  20
ENDBRANCH   1  19
TORSDOF 12
ENDMDL
MODEL 6
REMARK VINA RESULT:      -9.7      2.932      6.003
REMARK  Name = 10430040
REMARK  12 active torsions:
REMARK  status: ('A' for Active; 'I' for Inactive)
REMARK    1  A    between atoms: C_1  and  N_3
REMARK    2  A    between atoms: C_1  and  C_12
REMARK    3  A    between atoms: C_1  and  C_19
REMARK    4  A    between atoms: C_4  and  C_6
REMARK    5  A    between atoms: C_6  and  C_7
REMARK    6  A    between atoms: C_7  and  C_9
REMARK    7  A    between atoms: C_9  and  O_10
REMARK    8  A    between atoms: C_12  and  C_13
REMARK    9  A    between atoms: C_13  and  C_16
REMARK   10  A    between atoms: C_16  and  O_17
REMARK   11  A    between atoms: C_19  and  C_20
REMARK   12  A    between atoms: C_23  and  C_26
REMARK                            x       y       z     vdW  Elec       q    Type
REMARK                         _______ _______ _______ _____ _____    ______ ____
ROOT
ATOM      1  C   UNL     1      35.724 -24.375 -15.328  0.00  0.00    +0.076 C 
ENDROOT
BRANCH   1   3
ATOM      2  O   UNL     1      36.461 -27.138 -15.761  0.00  0.00    -0.275 OA
ATOM      3  N   UNL     1      36.682 -25.156 -14.571  0.00  0.00    -0.306 N 
ATOM      4  C   UNL     1      36.968 -26.480 -14.857  0.00  0.00    +0.223 C 
ATOM      5  H   UNL     1      37.151 -24.725 -13.819  0.00  0.00    +0.149 HD
BRANCH   4   6
ATOM      6  C   UNL     1      38.005 -27.041 -13.902  0.00  0.00    +0.097 C 
BRANCH   6   7
ATOM      7  C   UNL     1      39.065 -26.012 -13.521  0.00  0.00    +0.119 C 
BRANCH   7   9
ATOM      8  O   UNL     1      41.377 -26.752 -13.686  0.00  0.00    -0.250 OA
ATOM      9  C   UNL     1      40.382 -26.274 -14.213  0.00  0.00    +0.314 C 
BRANCH   9  10
ATOM     10  O   UNL     1      40.336 -25.910 -15.521  0.00  0.00    -0.480 OA
ATOM     11  H   UNL     1      40.200 -26.559 -16.183  0.00  0.00    +0.295 HD
ENDBRANCH   9  10
ENDBRANCH   7   9
ENDBRANCH   6   7
ENDBRANCH   4   6
ENDBRANCH   1   3
BRANCH   1  12
ATOM     12  C   UNL     1      34.304 -24.741 -14.849  0.00  0.00    +0.031 C 
BRANCH  12  13
ATOM     13  C   UNL     1      33.464 -23.559 -14.331  0.00  0.00    +0.101 C 
ATOM     14  C   UNL     1      32.314 -23.257 -15.290  0.00  0.00    +0.012 C 
BRANCH  13  16
ATOM     15  O   UNL     1      31.915 -23.266 -12.475  0.00  0.00    -0.250 OA
ATOM     16  C   UNL     1      32.878 -23.846 -12.959  0.00  0.00    +0.313 C 
BRANCH  16  17
ATOM     17  O   UNL     1      33.565 -24.813 -12.297  0.00  0.00    -0.480 OA
ATOM     18  H   UNL     1      34.255 -24.578 -11.709  0.00  0.00    +0.295 HD
ENDBRANCH  16  17
ENDBRANCH  13  16
ENDBRANCH  12  13
ENDBRANCH   1  12
BRANCH   1  19
ATOM     19  C   UNL     1      36.029 -22.873 -15.190  0.00  0.00    +0.046 C 
BRANCH  19  20
ATOM     20  C   UNL     1      36.008 -22.141 -16.512  0.00  0.00    -0.021 C 
ATOM     21  C   UNL     1      36.992 -21.196 -16.802  0.00  0.00    -0.004 C 
ATOM     22  C   UNL     1      35.003 -22.410 -17.442  0.00  0.00    -0.004 C 
ATOM     23  C   UNL     1      35.969 -20.790 -18.953  0.00  0.00    -0.000 C 
ATOM     24  C   UNL     1      36.973 -20.522 -18.022  0.00  0.00    -0.000 C 
ATOM     25  C   UNL     1      34.984 -21.736 -18.663  0.00  0.00    -0.000 C 
BRANCH  23  26
ATOM     26  C   UNL     1      35.949 -20.091 -20.218  0.00  0.00    -0.000 C 
ATOM     27  C   UNL     1      34.840 -20.200 -21.058  0.00  0.00    -0.000 C 
ATOM     28  C   UNL     1      37.037 -19.305 -20.599  0.00  0.00    -0.000 C 
ATOM     29  C   UNL     1      34.820 -19.525 -22.278  0.00  0.00    +0.000 C 
ATOM     30  C   UNL     1      37.016 -18.629 -21.819  0.00  0.00    +0.000 C 
ATOM     31  C   UNL     1      35.908 -18.740 -22.659  0.00  0.00    +0.000 C 
ENDBRANCH  23  26
ENDBRANCH  19  20
ENDBRANCH   1  19
TORSDOF 12
ENDMDL
MODEL 7
REMARK VINA RESULT:      -9.6      2.326      5.430
REMARK  Name = 10430040
REMARK  12 active torsions:
REMARK  status: ('A' for Active; 'I' for Inactive)
REMARK    1  A    between atoms: C_1  and  N_3
REMARK    2  A    between atoms: C_1  and  C_12
REMARK    3  A    between atoms: C_1  and  C_19
REMARK    4  A    between atoms: C_4  and  C_6
REMARK    5  A    between atoms: C_6  and  C_7
REMARK    6  A    between atoms: C_7  and  C_9
REMARK    7  A    between atoms: C_9  and  O_10
REMARK    8  A    between atoms: C_12  and  C_13
REMARK    9  A    between atoms: C_13  and  C_16
REMARK   10  A    between atoms: C_16  and  O_17
REMARK   11  A    between atoms: C_19  and  C_20
REMARK   12  A    between atoms: C_23  and  C_26
REMARK                            x       y       z     vdW  Elec       q    Type
REMARK                         _______ _______ _______ _____ _____    ______ ____
ROOT
ATOM      1  C   UNL     1      34.037 -23.646 -14.361  0.00  0.00    +0.076 C 
ENDROOT
BRANCH   1   3
ATOM      2  O   UNL     1      34.672 -24.692 -11.740  0.00  0.00    -0.275 OA
ATOM      3  N   UNL     1      35.119 -23.232 -13.490  0.00  0.00    -0.306 N 
ATOM      4  C   UNL     1      35.343 -23.797 -12.246  0.00  0.00    +0.223 C 
ATOM      5  H   UNL     1      35.723 -22.517 -13.797  0.00  0.00    +0.149 HD
BRANCH   4   6
ATOM      6  C   UNL     1      36.541 -23.167 -11.560  0.00  0.00    +0.097 C 
BRANCH   6   7
ATOM      7  C   UNL     1      37.687 -24.155 -11.363  0.00  0.00    +0.119 C 
BRANCH   7   9
ATOM      8  O   UNL     1      38.346 -24.163 -13.705  0.00  0.00    -0.250 OA
ATOM      9  C   UNL     1      38.131 -24.773 -12.668  0.00  0.00    +0.314 C 
BRANCH   9  10
ATOM     10  O   UNL     1      38.269 -26.120 -12.556  0.00  0.00    -0.480 OA
ATOM     11  H   UNL     1      39.123 -26.506 -12.563  0.00  0.00    +0.295 HD
ENDBRANCH   9  10
ENDBRANCH   7   9
ENDBRANCH   6   7
ENDBRANCH   4   6
ENDBRANCH   1   3
BRANCH   1  12
ATOM     12  C   UNL     1      33.142 -22.422 -14.647  0.00  0.00    +0.031 C 
BRANCH  12  13
ATOM     13  C   UNL     1      31.680 -22.559 -14.182  0.00  0.00    +0.101 C 
ATOM     14  C   UNL     1      30.863 -23.345 -15.205  0.00  0.00    +0.012 C 
BRANCH  13  16
ATOM     15  O   UNL     1      30.968 -24.313 -12.650  0.00  0.00    -0.250 OA
ATOM     16  C   UNL     1      31.582 -23.272 -12.844  0.00  0.00    +0.313 C 
BRANCH  16  17
ATOM     17  O   UNL     1      32.235 -22.607 -11.856  0.00  0.00    -0.480 OA
ATOM     18  H   UNL     1      33.167 -22.523 -11.885  0.00  0.00    +0.295 HD
ENDBRANCH  16  17
ENDBRANCH  13  16
ENDBRANCH  12  13
ENDBRANCH   1  12
BRANCH   1  19
ATOM     19  C   UNL     1      34.597 -24.286 -15.643  0.00  0.00    +0.046 C 
BRANCH  19  20
ATOM     20  C   UNL     1      34.852 -23.281 -16.742  0.00  0.00    -0.021 C 
ATOM     21  C   UNL     1      33.908 -23.097 -17.754  0.00  0.00    -0.004 C 
ATOM     22  C   UNL     1      36.032 -22.536 -16.747  0.00  0.00    -0.004 C 
ATOM     23  C   UNL     1      35.323 -21.425 -18.772  0.00  0.00    -0.000 C 
ATOM     24  C   UNL     1      34.144 -22.170 -18.767  0.00  0.00    -0.000 C 
ATOM     25  C   UNL     1      36.267 -21.608 -17.761  0.00  0.00    -0.000 C 
BRANCH  23  26
ATOM     26  C   UNL     1      35.568 -20.463 -19.823  0.00  0.00    -0.000 C 
ATOM     27  C   UNL     1      36.813 -19.843 -19.926  0.00  0.00    -0.000 C 
ATOM     28  C   UNL     1      34.559 -20.155 -20.736  0.00  0.00    -0.000 C 
ATOM     29  C   UNL     1      37.050 -18.916 -20.941  0.00  0.00    +0.000 C 
ATOM     30  C   UNL     1      34.795 -19.227 -21.751  0.00  0.00    +0.000 C 
ATOM     31  C   UNL     1      36.041 -18.608 -21.853  0.00  0.00    +0.000 C 
ENDBRANCH  23  26
ENDBRANCH  19  20
ENDBRANCH   1  19
TORSDOF 12
ENDMDL
MODEL 8
REMARK VINA RESULT:      -9.5      2.122      2.797
REMARK  Name = 10430040
REMARK  12 active torsions:
REMARK  status: ('A' for Active; 'I' for Inactive)
REMARK    1  A    between atoms: C_1  and  N_3
REMARK    2  A    between atoms: C_1  and  C_12
REMARK    3  A    between atoms: C_1  and  C_19
REMARK    4  A    between atoms: C_4  and  C_6
REMARK    5  A    between atoms: C_6  and  C_7
REMARK    6  A    between atoms: C_7  and  C_9
REMARK    7  A    between atoms: C_9  and  O_10
REMARK    8  A    between atoms: C_12  and  C_13
REMARK    9  A    between atoms: C_13  and  C_16
REMARK   10  A    between atoms: C_16  and  O_17
REMARK   11  A    between atoms: C_19  and  C_20
REMARK   12  A    between atoms: C_23  and  C_26
REMARK                            x       y       z     vdW  Elec       q    Type
REMARK                         _______ _______ _______ _____ _____    ______ ____
ROOT
ATOM      1  C   UNL     1      34.440 -22.829 -15.899  0.00  0.00    +0.076 C 
ENDROOT
BRANCH   1   3
ATOM      2  O   UNL     1      31.861 -24.053 -16.366  0.00  0.00    -0.275 OA
ATOM      3  N   UNL     1      33.240 -22.677 -15.100  0.00  0.00    -0.306 N 
ATOM      4  C   UNL     1      32.047 -23.309 -15.407  0.00  0.00    +0.223 C 
ATOM      5  H   UNL     1      33.275 -22.101 -14.303  0.00  0.00    +0.149 HD
BRANCH   4   6
ATOM      6  C   UNL     1      30.964 -22.966 -14.400  0.00  0.00    +0.097 C 
BRANCH   6   7
ATOM      7  C   UNL     1      30.483 -24.188 -13.624  0.00  0.00    +0.119 C 
BRANCH   7   9
ATOM      8  O   UNL     1      28.643 -24.430 -15.197  0.00  0.00    -0.250 OA
ATOM      9  C   UNL     1      29.374 -24.916 -14.346  0.00  0.00    +0.314 C 
BRANCH   9  10
ATOM     10  O   UNL     1      29.278 -26.207 -13.935  0.00  0.00    -0.480 OA
ATOM     11  H   UNL     1      28.999 -26.402 -13.063  0.00  0.00    +0.295 HD
ENDBRANCH   9  10
ENDBRANCH   7   9
ENDBRANCH   6   7
ENDBRANCH   4   6
ENDBRANCH   1   3
BRANCH   1  12
ATOM     12  C   UNL     1      35.399 -23.791 -15.166  0.00  0.00    +0.031 C 
BRANCH  12  13
ATOM     13  C   UNL     1      36.563 -23.112 -14.422  0.00  0.00    +0.101 C 
ATOM     14  C   UNL     1      37.220 -24.088 -13.448  0.00  0.00    +0.012 C 
BRANCH  13  16
ATOM     15  O   UNL     1      37.557 -21.568 -16.022  0.00  0.00    -0.250 OA
ATOM     16  C   UNL     1      37.626 -22.610 -15.383  0.00  0.00    +0.313 C 
BRANCH  16  17
ATOM     17  O   UNL     1      38.673 -23.469 -15.488  0.00  0.00    -0.480 OA
ATOM     18  H   UNL     1      38.677 -24.124 -16.158  0.00  0.00    +0.295 HD
ENDBRANCH  16  17
ENDBRANCH  13  16
ENDBRANCH  12  13
ENDBRANCH   1  12
BRANCH   1  19
ATOM     19  C   UNL     1      34.083 -23.311 -17.316  0.00  0.00    +0.046 C 
BRANCH  19  20
ATOM     20  C   UNL     1      34.272 -22.244 -18.368  0.00  0.00    -0.021 C 
ATOM     21  C   UNL     1      33.162 -21.599 -18.916  0.00  0.00    -0.004 C 
ATOM     22  C   UNL     1      35.557 -21.902 -18.794  0.00  0.00    -0.004 C 
ATOM     23  C   UNL     1      34.620 -20.272 -20.312  0.00  0.00    -0.000 C 
ATOM     24  C   UNL     1      33.336 -20.614 -19.887  0.00  0.00    -0.000 C 
ATOM     25  C   UNL     1      35.731 -20.916 -19.764  0.00  0.00    -0.000 C 
BRANCH  23  26
ATOM     26  C   UNL     1      34.802 -19.250 -21.319  0.00  0.00    -0.000 C 
ATOM     27  C   UNL     1      35.270 -17.988 -20.955  0.00  0.00    -0.000 C 
ATOM     28  C   UNL     1      34.510 -19.527 -22.655  0.00  0.00    -0.000 C 
ATOM     29  C   UNL     1      35.446 -17.002 -21.926  0.00  0.00    +0.000 C 
ATOM     30  C   UNL     1      34.686 -18.541 -23.626  0.00  0.00    +0.000 C 
ATOM     31  C   UNL     1      35.154 -17.278 -23.261  0.00  0.00    +0.000 C 
ENDBRANCH  23  26
ENDBRANCH  19  20
ENDBRANCH   1  19
TORSDOF 12
ENDMDL
MODEL 9
REMARK VINA RESULT:      -9.2      3.455      5.666
REMARK  Name = 10430040
REMARK  12 active torsions:
REMARK  status: ('A' for Active; 'I' for Inactive)
REMARK    1  A    between atoms: C_1  and  N_3
REMARK    2  A    between atoms: C_1  and  C_12
REMARK    3  A    between atoms: C_1  and  C_19
REMARK    4  A    between atoms: C_4  and  C_6
REMARK    5  A    between atoms: C_6  and  C_7
REMARK    6  A    between atoms: C_7  and  C_9
REMARK    7  A    between atoms: C_9  and  O_10
REMARK    8  A    between atoms: C_12  and  C_13
REMARK    9  A    between atoms: C_13  and  C_16
REMARK   10  A    between atoms: C_16  and  O_17
REMARK   11  A    between atoms: C_19  and  C_20
REMARK   12  A    between atoms: C_23  and  C_26
REMARK                            x       y       z     vdW  Elec       q    Type
REMARK                         _______ _______ _______ _____ _____    ______ ____
ROOT
ATOM      1  C   UNL     1      36.644 -23.314 -14.535  0.00  0.00    +0.076 C 
ENDROOT
BRANCH   1   3
ATOM      2  O   UNL     1      34.063 -23.570 -13.254  0.00  0.00    -0.275 OA
ATOM      3  N   UNL     1      36.356 -23.942 -13.260  0.00  0.00    -0.306 N 
ATOM      4  C   UNL     1      35.080 -24.016 -12.728  0.00  0.00    +0.223 C 
ATOM      5  H   UNL     1      37.101 -24.335 -12.751  0.00  0.00    +0.149 HD
BRANCH   4   6
ATOM      6  C   UNL     1      35.079 -24.725 -11.387  0.00  0.00    +0.097 C 
BRANCH   6   7
ATOM      7  C   UNL     1      35.770 -23.913 -10.297  0.00  0.00    +0.119 C 
BRANCH   7   9
ATOM      8  O   UNL     1      38.087 -24.479 -10.781  0.00  0.00    -0.250 OA
ATOM      9  C   UNL     1      37.217 -23.632 -10.631  0.00  0.00    +0.314 C 
BRANCH   9  10
ATOM     10  O   UNL     1      37.449 -22.299 -10.752  0.00  0.00    -0.480 OA
ATOM     11  H   UNL     1      37.979 -21.856 -10.119  0.00  0.00    +0.295 HD
ENDBRANCH   9  10
ENDBRANCH   7   9
ENDBRANCH   6   7
ENDBRANCH   4   6
ENDBRANCH   1   3
BRANCH   1  12
ATOM     12  C   UNL     1      38.014 -23.818 -15.032  0.00  0.00    +0.031 C 
BRANCH  12  13
ATOM     13  C   UNL     1      38.585 -25.023 -14.262  0.00  0.00    +0.101 C 
ATOM     14  C   UNL     1      37.829 -26.299 -14.626  0.00  0.00    +0.012 C 
BRANCH  13  16
ATOM     15  O   UNL     1      40.982 -24.855 -13.864  0.00  0.00    -0.250 OA
ATOM     16  C   UNL     1      40.057 -25.238 -14.569  0.00  0.00    +0.313 C 
BRANCH  16  17
ATOM     17  O   UNL     1      40.249 -25.887 -15.746  0.00  0.00    -0.480 OA
ATOM     18  H   UNL     1      40.664 -25.447 -16.462  0.00  0.00    +0.295 HD
ENDBRANCH  16  17
ENDBRANCH  13  16
ENDBRANCH  12  13
ENDBRANCH   1  12
BRANCH   1  19
ATOM     19  C   UNL     1      35.509 -23.592 -15.537  0.00  0.00    +0.046 C 
BRANCH  19  20
ATOM     20  C   UNL     1      35.566 -22.701 -16.756  0.00  0.00    -0.021 C 
ATOM     21  C   UNL     1      34.487 -22.658 -17.640  0.00  0.00    -0.004 C 
ATOM     22  C   UNL     1      36.698 -21.921 -16.999  0.00  0.00    -0.004 C 
ATOM     23  C   UNL     1      35.671 -21.055 -19.007  0.00  0.00    -0.000 C 
ATOM     24  C   UNL     1      34.540 -21.835 -18.764  0.00  0.00    -0.000 C 
ATOM     25  C   UNL     1      36.750 -21.098 -18.123  0.00  0.00    -0.000 C 
BRANCH  23  26
ATOM     26  C   UNL     1      35.725 -20.202 -20.173  0.00  0.00    -0.000 C 
ATOM     27  C   UNL     1      36.857 -19.425 -20.416  0.00  0.00    -0.000 C 
ATOM     28  C   UNL     1      34.646 -20.158 -21.056  0.00  0.00    -0.000 C 
ATOM     29  C   UNL     1      36.911 -18.602 -21.542  0.00  0.00    +0.000 C 
ATOM     30  C   UNL     1      34.700 -19.335 -22.182  0.00  0.00    +0.000 C 
ATOM     31  C   UNL     1      35.832 -18.557 -22.424  0.00  0.00    +0.000 C 
ENDBRANCH  23  26
ENDBRANCH  19  20
ENDBRANCH   1  19
TORSDOF 12
ENDMDL
