MODEL 1
REMARK VINA RESULT:     -11.8      0.000      0.000
REMARK  Name = 46937091
REMARK  8 active torsions:
REMARK  status: ('A' for Active; 'I' for Inactive)
REMARK    1  A    between atoms: C_1  and  C_4
REMARK    2  A    between atoms: C_1  and  C_18
REMARK    3  A    between atoms: C_10  and  C_12
REMARK    4  A    between atoms: C_18  and  C_19
REMARK    5  A    between atoms: C_19  and  N_20
REMARK    6  A    between atoms: C_19  and  C_30
REMARK    7  A    between atoms: C_24  and  C_27
REMARK    8  A    between atoms: C_30  and  O_32
REMARK                            x       y       z     vdW  Elec       q    Type
REMARK                         _______ _______ _______ _____ _____    ______ ____
ROOT
ATOM      1  C   UNL     1      34.738 -24.532 -14.105  0.00  0.00    +0.031 C 
ENDROOT
BRANCH   1   4
ATOM      2  O   UNL     1      33.758 -22.964 -16.540  0.00  0.00    -0.425 OA
ATOM      3  N   UNL     1      31.617 -22.551 -17.158  0.00  0.00    -0.368 NA
ATOM      4  C   UNL     1      33.305 -24.273 -14.494  0.00  0.00    +0.014 C 
ATOM      5  C   UNL     1      32.935 -23.547 -15.620  0.00  0.00    +0.170 C 
ATOM      6  C   UNL     1      32.250 -24.762 -13.716  0.00  0.00    -0.005 C 
ATOM      7  C   UNL     1      31.626 -23.293 -16.001  0.00  0.00    +0.151 C 
ATOM      8  C   UNL     1      30.914 -24.528 -14.066  0.00  0.00    -0.019 C 
ATOM      9  C   UNL     1      30.580 -23.791 -15.212  0.00  0.00    +0.088 C 
ATOM     10  C   UNL     1      32.895 -22.391 -17.424  0.00  0.00    +0.282 C 
BRANCH  10  12
ATOM     11 CL   UNL     1      35.463 -19.510 -21.948  0.00  0.00    -0.082 Cl
ATOM     12  C   UNL     1      33.515 -21.694 -18.517  0.00  0.00    +0.066 C 
ATOM     13  C   UNL     1      34.877 -21.860 -18.766  0.00  0.00    +0.007 C 
ATOM     14  C   UNL     1      32.755 -20.853 -19.330  0.00  0.00    +0.007 C 
ATOM     15  C   UNL     1      35.480 -21.184 -19.827  0.00  0.00    +0.012 C 
ATOM     16  C   UNL     1      33.358 -20.178 -20.391  0.00  0.00    +0.012 C 
ATOM     17  C   UNL     1      34.720 -20.343 -20.640  0.00  0.00    +0.058 C 
ENDBRANCH  10  12
ENDBRANCH   1   4
BRANCH   1  18
ATOM     18  C   UNL     1      35.045 -24.296 -12.616  0.00  0.00    +0.023 C 
BRANCH  18  19
ATOM     19  C   UNL     1      36.388 -23.573 -12.328  0.00  0.00    +0.087 C 
BRANCH  19  20
ATOM     20  N   UNL     1      37.499 -23.989 -13.284  0.00  0.00    -0.246 NA
ATOM     21  N   UNL     1      38.844 -23.956 -15.051  0.00  0.00    -0.251 NA
ATOM     22  C   UNL     1      38.330 -25.063 -13.140  0.00  0.00    +0.125 C 
ATOM     23  C   UNL     1      37.844 -23.355 -14.445  0.00  0.00    +0.201 C 
ATOM     24  C   UNL     1      39.152 -25.022 -14.242  0.00  0.00    +0.124 C 
BRANCH  24  27
ATOM     25  O   UNL     1      40.638 -26.101 -15.716  0.00  0.00    -0.269 OA
ATOM     26  N   UNL     1      40.771 -26.685 -13.503  0.00  0.00    -0.324 N 
ATOM     27  C   UNL     1      40.201 -25.944 -14.549  0.00  0.00    +0.257 C 
ATOM     28  H   UNL     1      41.495 -27.326 -13.690  0.00  0.00    +0.145 HD
ATOM     29  H   UNL     1      40.448 -26.564 -12.581  0.00  0.00    +0.145 HD
ENDBRANCH  24  27
ENDBRANCH  19  20
BRANCH  19  30
ATOM     30  C   UNL     1      36.783 -23.734 -10.835  0.00  0.00    +0.125 C 
ATOM     31  C   UNL     1      35.679 -24.329  -9.967  0.00  0.00    +0.033 C 
BRANCH  30  32
ATOM     32  O   UNL     1      37.195 -22.487 -10.282  0.00  0.00    -0.383 OA
ATOM     33  H   UNL     1      36.664 -21.772 -10.667  0.00  0.00    +0.210 HD
ENDBRANCH  30  32
ENDBRANCH  19  30
ENDBRANCH  18  19
ENDBRANCH   1  18
TORSDOF 8
ENDMDL
MODEL 2
REMARK VINA RESULT:     -11.3      3.604      7.463
REMARK  Name = 46937091
REMARK  8 active torsions:
REMARK  status: ('A' for Active; 'I' for Inactive)
REMARK    1  A    between atoms: C_1  and  C_4
REMARK    2  A    between atoms: C_1  and  C_18
REMARK    3  A    between atoms: C_10  and  C_12
REMARK    4  A    between atoms: C_18  and  C_19
REMARK    5  A    between atoms: C_19  and  N_20
REMARK    6  A    between atoms: C_19  and  C_30
REMARK    7  A    between atoms: C_24  and  C_27
REMARK    8  A    between atoms: C_30  and  O_32
REMARK                            x       y       z     vdW  Elec       q    Type
REMARK                         _______ _______ _______ _____ _____    ______ ____
ROOT
ATOM      1  C   UNL     1      32.961 -23.469 -16.684  0.00  0.00    +0.031 C 
ENDROOT
BRANCH   1   4
ATOM      2  O   UNL     1      34.693 -21.654 -18.432  0.00  0.00    -0.425 OA
ATOM      3  N   UNL     1      36.873 -21.111 -18.139  0.00  0.00    -0.368 NA
ATOM      4  C   UNL     1      34.411 -23.123 -16.465  0.00  0.00    +0.014 C 
ATOM      5  C   UNL     1      35.136 -22.287 -17.307  0.00  0.00    +0.170 C 
ATOM      6  C   UNL     1      35.117 -23.643 -15.375  0.00  0.00    -0.005 C 
ATOM      7  C   UNL     1      36.471 -21.953 -17.130  0.00  0.00    +0.151 C 
ATOM      8  C   UNL     1      36.465 -23.331 -15.161  0.00  0.00    -0.019 C 
ATOM      9  C   UNL     1      37.163 -22.482 -16.033  0.00  0.00    +0.088 C 
ATOM     10  C   UNL     1      35.788 -20.973 -18.869  0.00  0.00    +0.282 C 
BRANCH  10  12
ATOM     11 CL   UNL     1      34.968 -17.793 -23.827  0.00  0.00    -0.082 Cl
ATOM     12  C   UNL     1      35.591 -20.204 -20.067  0.00  0.00    +0.066 C 
ATOM     13  C   UNL     1      34.353 -20.222 -20.710  0.00  0.00    +0.007 C 
ATOM     14  C   UNL     1      36.635 -19.441 -20.586  0.00  0.00    +0.007 C 
ATOM     15  C   UNL     1      34.161 -19.477 -21.873  0.00  0.00    +0.012 C 
ATOM     16  C   UNL     1      36.443 -18.695 -21.749  0.00  0.00    +0.012 C 
ATOM     17  C   UNL     1      35.205 -18.713 -22.392  0.00  0.00    +0.058 C 
ENDBRANCH  10  12
ENDBRANCH   1   4
BRANCH   1  18
ATOM     18  C   UNL     1      32.001 -22.872 -15.640  0.00  0.00    +0.023 C 
BRANCH  18  19
ATOM     19  C   UNL     1      30.968 -23.868 -15.049  0.00  0.00    +0.087 C 
BRANCH  19  20
ATOM     20  N   UNL     1      29.572 -23.682 -15.628  0.00  0.00    -0.246 NA
ATOM     21  N   UNL     1      27.742 -24.089 -16.819  0.00  0.00    -0.251 NA
ATOM     22  C   UNL     1      28.719 -22.648 -15.367  0.00  0.00    +0.125 C 
ATOM     23  C   UNL     1      28.943 -24.522 -16.504  0.00  0.00    +0.201 C 
ATOM     24  C   UNL     1      27.596 -22.920 -16.113  0.00  0.00    +0.124 C 
BRANCH  24  27
ATOM     25  O   UNL     1      25.569 -22.092 -15.246  0.00  0.00    -0.269 OA
ATOM     26  N   UNL     1      26.192 -21.337 -17.319  0.00  0.00    -0.324 N 
ATOM     27  C   UNL     1      26.411 -22.123 -16.179  0.00  0.00    +0.257 C 
ATOM     28  H   UNL     1      25.383 -20.780 -17.387  0.00  0.00    +0.145 HD
ATOM     29  H   UNL     1      26.848 -21.341 -18.053  0.00  0.00    +0.145 HD
ENDBRANCH  24  27
ENDBRANCH  19  20
BRANCH  19  30
ATOM     30  C   UNL     1      30.992 -23.818 -13.497  0.00  0.00    +0.125 C 
ATOM     31  C   UNL     1      32.370 -23.526 -12.911  0.00  0.00    +0.033 C 
BRANCH  30  32
ATOM     32  O   UNL     1      30.493 -25.033 -12.943  0.00  0.00    -0.383 OA
ATOM     33  H   UNL     1      30.321 -24.910 -11.996  0.00  0.00    +0.210 HD
ENDBRANCH  30  32
ENDBRANCH  19  30
ENDBRANCH  18  19
ENDBRANCH   1  18
TORSDOF 8
ENDMDL
MODEL 3
REMARK VINA RESULT:     -10.4      7.793     12.923
REMARK  Name = 46937091
REMARK  8 active torsions:
REMARK  status: ('A' for Active; 'I' for Inactive)
REMARK    1  A    between atoms: C_1  and  C_4
REMARK    2  A    between atoms: C_1  and  C_18
REMARK    3  A    between atoms: C_10  and  C_12
REMARK    4  A    between atoms: C_18  and  C_19
REMARK    5  A    between atoms: C_19  and  N_20
REMARK    6  A    between atoms: C_19  and  C_30
REMARK    7  A    between atoms: C_24  and  C_27
REMARK    8  A    between atoms: C_30  and  O_32
REMARK                            x       y       z     vdW  Elec       q    Type
REMARK                         _______ _______ _______ _____ _____    ______ ____
ROOT
ATOM      1  C   UNL     1      34.844 -15.099 -20.727  0.00  0.00    +0.031 C 
ENDROOT
BRANCH   1   4
ATOM      2  O   UNL     1      34.724 -18.153 -20.646  0.00  0.00    -0.425 OA
ATOM      3  N   UNL     1      34.750 -19.592 -22.397  0.00  0.00    -0.368 NA
ATOM      4  C   UNL     1      34.862 -16.034 -21.909  0.00  0.00    +0.014 C 
ATOM      5  C   UNL     1      34.805 -17.418 -21.794  0.00  0.00    +0.170 C 
ATOM      6  C   UNL     1      34.941 -15.538 -23.215  0.00  0.00    -0.005 C 
ATOM      7  C   UNL     1      34.820 -18.301 -22.863  0.00  0.00    +0.151 C 
ATOM      8  C   UNL     1      34.959 -16.396 -24.322  0.00  0.00    -0.019 C 
ATOM      9  C   UNL     1      34.899 -17.788 -24.166  0.00  0.00    +0.088 C 
ATOM     10  C   UNL     1      34.696 -19.440 -21.093  0.00  0.00    +0.282 C 
BRANCH  10  12
ATOM     11 CL   UNL     1      34.343 -23.579 -16.836  0.00  0.00    -0.082 Cl
ATOM     12  C   UNL     1      34.611 -20.440 -20.064  0.00  0.00    +0.066 C 
ATOM     13  C   UNL     1      33.366 -20.916 -19.656  0.00  0.00    +0.007 C 
ATOM     14  C   UNL     1      35.774 -20.935 -19.474  0.00  0.00    +0.007 C 
ATOM     15  C   UNL     1      33.283 -21.886 -18.658  0.00  0.00    +0.012 C 
ATOM     16  C   UNL     1      35.691 -21.905 -18.476  0.00  0.00    +0.012 C 
ATOM     17  C   UNL     1      34.445 -22.381 -18.068  0.00  0.00    +0.058 C 
ENDBRANCH  10  12
ENDBRANCH   1   4
BRANCH   1  18
ATOM     18  C   UNL     1      34.511 -13.638 -21.076  0.00  0.00    +0.023 C 
BRANCH  18  19
ATOM     19  C   UNL     1      33.083 -13.405 -21.638  0.00  0.00    +0.087 C 
BRANCH  19  20
ATOM     20  N   UNL     1      32.996 -12.174 -22.532  0.00  0.00    -0.246 NA
ATOM     21  N   UNL     1      33.406 -10.804 -24.231  0.00  0.00    -0.251 NA
ATOM     22  C   UNL     1      32.200 -11.083 -22.332  0.00  0.00    +0.125 C 
ATOM     23  C   UNL     1      33.701 -11.963 -23.684  0.00  0.00    +0.201 C 
ATOM     24  C   UNL     1      32.470 -10.251 -23.393  0.00  0.00    +0.124 C 
BRANCH  24  27
ATOM     25  O   UNL     1      31.901  -8.422 -24.764  0.00  0.00    -0.269 OA
ATOM     26  N   UNL     1      31.242  -8.314 -22.571  0.00  0.00    -0.324 N 
ATOM     27  C   UNL     1      31.881  -8.970 -23.633  0.00  0.00    +0.257 C 
ATOM     28  H   UNL     1      30.829  -7.431 -22.713  0.00  0.00    +0.145 HD
ATOM     29  H   UNL     1      31.206  -8.736 -21.682  0.00  0.00    +0.145 HD
ENDBRANCH  24  27
ENDBRANCH  19  20
BRANCH  19  30
ATOM     30  C   UNL     1      32.043 -13.390 -20.485  0.00  0.00    +0.125 C 
ATOM     31  C   UNL     1      32.401 -12.446 -19.343  0.00  0.00    +0.033 C 
BRANCH  30  32
ATOM     32  O   UNL     1      31.844 -14.703 -19.966  0.00  0.00    -0.383 OA
ATOM     33  H   UNL     1      32.175 -15.356 -20.603  0.00  0.00    +0.210 HD
ENDBRANCH  30  32
ENDBRANCH  19  30
ENDBRANCH  18  19
ENDBRANCH   1  18
TORSDOF 8
ENDMDL
MODEL 4
REMARK VINA RESULT:     -10.4      3.650      7.656
REMARK  Name = 46937091
REMARK  8 active torsions:
REMARK  status: ('A' for Active; 'I' for Inactive)
REMARK    1  A    between atoms: C_1  and  C_4
REMARK    2  A    between atoms: C_1  and  C_18
REMARK    3  A    between atoms: C_10  and  C_12
REMARK    4  A    between atoms: C_18  and  C_19
REMARK    5  A    between atoms: C_19  and  N_20
REMARK    6  A    between atoms: C_19  and  C_30
REMARK    7  A    between atoms: C_24  and  C_27
REMARK    8  A    between atoms: C_30  and  O_32
REMARK                            x       y       z     vdW  Elec       q    Type
REMARK                         _______ _______ _______ _____ _____    ______ ____
ROOT
ATOM      1  C   UNL     1      37.067 -21.993 -16.790  0.00  0.00    +0.031 C 
ENDROOT
BRANCH   1   4
ATOM      2  O   UNL     1      34.492 -22.963 -15.455  0.00  0.00    -0.425 OA
ATOM      3  N   UNL     1      34.284 -24.422 -13.733  0.00  0.00    -0.368 NA
ATOM      4  C   UNL     1      36.956 -22.967 -15.645  0.00  0.00    +0.014 C 
ATOM      5  C   UNL     1      35.745 -23.362 -15.088  0.00  0.00    +0.170 C 
ATOM      6  C   UNL     1      38.099 -23.535 -15.072  0.00  0.00    -0.005 C 
ATOM      7  C   UNL     1      35.614 -24.255 -14.034  0.00  0.00    +0.151 C 
ATOM      8  C   UNL     1      38.011 -24.440 -14.008  0.00  0.00    -0.019 C 
ATOM      9  C   UNL     1      36.770 -24.815 -13.472  0.00  0.00    +0.088 C 
ATOM     10  C   UNL     1      33.678 -23.640 -14.599  0.00  0.00    +0.282 C 
BRANCH  10  12
ATOM     11 CL   UNL     1      27.862 -22.627 -15.322  0.00  0.00    -0.082 Cl
ATOM     12  C   UNL     1      32.272 -23.395 -14.773  0.00  0.00    +0.066 C 
ATOM     13  C   UNL     1      31.777 -23.038 -16.027  0.00  0.00    +0.007 C 
ATOM     14  C   UNL     1      31.403 -23.515 -13.689  0.00  0.00    +0.007 C 
ATOM     15  C   UNL     1      30.414 -22.801 -16.197  0.00  0.00    +0.012 C 
ATOM     16  C   UNL     1      30.040 -23.277 -13.859  0.00  0.00    +0.012 C 
ATOM     17  C   UNL     1      29.545 -22.920 -15.113  0.00  0.00    +0.058 C 
ENDBRANCH  10  12
ENDBRANCH   1   4
BRANCH   1  18
ATOM     18  C   UNL     1      35.718 -21.569 -17.396  0.00  0.00    +0.023 C 
BRANCH  18  19
ATOM     19  C   UNL     1      35.563 -21.843 -18.916  0.00  0.00    +0.087 C 
BRANCH  19  20
ATOM     20  N   UNL     1      35.852 -20.614 -19.768  0.00  0.00    -0.246 NA
ATOM     21  N   UNL     1      36.896 -18.805 -20.524  0.00  0.00    -0.251 NA
ATOM     22  C   UNL     1      35.089 -20.146 -20.799  0.00  0.00    +0.125 C 
ATOM     23  C   UNL     1      36.926 -19.778 -19.639  0.00  0.00    +0.201 C 
ATOM     24  C   UNL     1      35.753 -19.029 -21.251  0.00  0.00    +0.124 C 
BRANCH  24  27
ATOM     25  O   UNL     1      34.617 -18.590 -23.267  0.00  0.00    -0.269 OA
ATOM     26  N   UNL     1      35.764 -16.843 -22.324  0.00  0.00    -0.324 N 
ATOM     27  C   UNL     1      35.346 -18.182 -22.328  0.00  0.00    +0.257 C 
ATOM     28  H   UNL     1      35.496 -16.240 -23.056  0.00  0.00    +0.145 HD
ATOM     29  H   UNL     1      36.325 -16.504 -21.590  0.00  0.00    +0.145 HD
ENDBRANCH  24  27
ENDBRANCH  19  20
BRANCH  19  30
ATOM     30  C   UNL     1      34.176 -22.474 -19.215  0.00  0.00    +0.125 C 
ATOM     31  C   UNL     1      33.002 -21.540 -18.943  0.00  0.00    +0.033 C 
BRANCH  30  32
ATOM     32  O   UNL     1      33.998 -23.680 -18.476  0.00  0.00    -0.383 OA
ATOM     33  H   UNL     1      34.863 -24.015 -18.192  0.00  0.00    +0.210 HD
ENDBRANCH  30  32
ENDBRANCH  19  30
ENDBRANCH  18  19
ENDBRANCH   1  18
TORSDOF 8
ENDMDL
MODEL 5
REMARK VINA RESULT:     -10.2     11.831     15.641
REMARK  Name = 46937091
REMARK  8 active torsions:
REMARK  status: ('A' for Active; 'I' for Inactive)
REMARK    1  A    between atoms: C_1  and  C_4
REMARK    2  A    between atoms: C_1  and  C_18
REMARK    3  A    between atoms: C_10  and  C_12
REMARK    4  A    between atoms: C_18  and  C_19
REMARK    5  A    between atoms: C_19  and  N_20
REMARK    6  A    between atoms: C_19  and  C_30
REMARK    7  A    between atoms: C_24  and  C_27
REMARK    8  A    between atoms: C_30  and  O_32
REMARK                            x       y       z     vdW  Elec       q    Type
REMARK                         _______ _______ _______ _____ _____    ______ ____
ROOT
ATOM      1  C   UNL     1      31.324 -11.659 -21.603  0.00  0.00    +0.031 C 
ENDROOT
BRANCH   1   4
ATOM      2  O   UNL     1      32.588  -8.899 -21.971  0.00  0.00    -0.425 OA
ATOM      3  N   UNL     1      33.072  -7.368 -20.372  0.00  0.00    -0.368 NA
ATOM      4  C   UNL     1      31.635 -10.658 -20.520  0.00  0.00    +0.014 C 
ATOM      5  C   UNL     1      32.213  -9.418 -20.765  0.00  0.00    +0.170 C 
ATOM      6  C   UNL     1      31.349 -10.938 -19.180  0.00  0.00    -0.005 C 
ATOM      7  C   UNL     1      32.510  -8.478 -19.789  0.00  0.00    +0.151 C 
ATOM      8  C   UNL     1      31.634 -10.017 -18.164  0.00  0.00    -0.019 C 
ATOM      9  C   UNL     1      32.217  -8.774 -18.451  0.00  0.00    +0.088 C 
ATOM     10  C   UNL     1      33.091  -7.675 -21.650  0.00  0.00    +0.282 C 
BRANCH  10  12
ATOM     11 CL   UNL     1      35.063  -4.473 -26.258  0.00  0.00    -0.082 Cl
ATOM     12  C   UNL     1      33.568  -6.901 -22.764  0.00  0.00    +0.066 C 
ATOM     13  C   UNL     1      32.706  -6.026 -23.425  0.00  0.00    +0.007 C 
ATOM     14  C   UNL     1      34.892  -7.024 -23.183  0.00  0.00    +0.007 C 
ATOM     15  C   UNL     1      33.168  -5.276 -24.506  0.00  0.00    +0.012 C 
ATOM     16  C   UNL     1      35.355  -6.273 -24.264  0.00  0.00    +0.012 C 
ATOM     17  C   UNL     1      34.492  -5.399 -24.925  0.00  0.00    +0.058 C 
ENDBRANCH  10  12
ENDBRANCH   1   4
BRANCH   1  18
ATOM     18  C   UNL     1      32.559 -12.368 -22.187  0.00  0.00    +0.023 C 
BRANCH  18  19
ATOM     19  C   UNL     1      32.588 -12.470 -23.735  0.00  0.00    +0.087 C 
BRANCH  19  20
ATOM     20  N   UNL     1      33.090 -13.822 -24.227  0.00  0.00    -0.246 NA
ATOM     21  N   UNL     1      33.495 -15.513 -25.607  0.00  0.00    -0.251 NA
ATOM     22  C   UNL     1      33.750 -14.758 -23.485  0.00  0.00    +0.125 C 
ATOM     23  C   UNL     1      32.959 -14.318 -25.494  0.00  0.00    +0.201 C 
ATOM     24  C   UNL     1      33.991 -15.794 -24.358  0.00  0.00    +0.124 C 
BRANCH  24  27
ATOM     25  O   UNL     1      34.434 -18.085 -24.677  0.00  0.00    -0.269 OA
ATOM     26  N   UNL     1      35.622 -17.021 -23.029  0.00  0.00    -0.324 N 
ATOM     27  C   UNL     1      34.662 -17.019 -24.052  0.00  0.00    +0.257 C 
ATOM     28  H   UNL     1      36.097 -17.854 -22.801  0.00  0.00    +0.145 HD
ATOM     29  H   UNL     1      35.821 -16.191 -22.539  0.00  0.00    +0.145 HD
ENDBRANCH  24  27
ENDBRANCH  19  20
BRANCH  19  30
ATOM     30  C   UNL     1      33.373 -11.276 -24.343  0.00  0.00    +0.125 C 
ATOM     31  C   UNL     1      34.672 -10.956 -23.612  0.00  0.00    +0.033 C 
BRANCH  30  32
ATOM     32  O   UNL     1      32.559 -10.106 -24.389  0.00  0.00    -0.383 OA
ATOM     33  H   UNL     1      32.113  -9.989 -23.536  0.00  0.00    +0.210 HD
ENDBRANCH  30  32
ENDBRANCH  19  30
ENDBRANCH  18  19
ENDBRANCH   1  18
TORSDOF 8
ENDMDL
MODEL 6
REMARK VINA RESULT:     -10.0     11.023     14.770
REMARK  Name = 46937091
REMARK  8 active torsions:
REMARK  status: ('A' for Active; 'I' for Inactive)
REMARK    1  A    between atoms: C_1  and  C_4
REMARK    2  A    between atoms: C_1  and  C_18
REMARK    3  A    between atoms: C_10  and  C_12
REMARK    4  A    between atoms: C_18  and  C_19
REMARK    5  A    between atoms: C_19  and  N_20
REMARK    6  A    between atoms: C_19  and  C_30
REMARK    7  A    between atoms: C_24  and  C_27
REMARK    8  A    between atoms: C_30  and  O_32
REMARK                            x       y       z     vdW  Elec       q    Type
REMARK                         _______ _______ _______ _____ _____    ______ ____
ROOT
ATOM      1  C   UNL     1      31.828 -11.836 -21.690  0.00  0.00    +0.031 C 
ENDROOT
BRANCH   1   4
ATOM      2  O   UNL     1      32.733  -8.949 -22.137  0.00  0.00    -0.425 OA
ATOM      3  N   UNL     1      32.650  -7.223 -20.671  0.00  0.00    -0.368 NA
ATOM      4  C   UNL     1      31.759 -10.705 -20.696  0.00  0.00    +0.014 C 
ATOM      5  C   UNL     1      32.193  -9.413 -20.973  0.00  0.00    +0.170 C 
ATOM      6  C   UNL     1      31.243 -10.908 -19.412  0.00  0.00    -0.005 C 
ATOM      7  C   UNL     1      32.143  -8.354 -20.078  0.00  0.00    +0.151 C 
ATOM      8  C   UNL     1      31.175  -9.866 -18.479  0.00  0.00    -0.019 C 
ATOM      9  C   UNL     1      31.622  -8.574 -18.795  0.00  0.00    +0.088 C 
ATOM     10  C   UNL     1      32.978  -7.635 -21.876  0.00  0.00    +0.282 C 
BRANCH  10  12
ATOM     11 CL   UNL     1      35.390  -4.574 -26.368  0.00  0.00    -0.082 Cl
ATOM     12  C   UNL     1      33.561  -6.896 -22.961  0.00  0.00    +0.066 C 
ATOM     13  C   UNL     1      32.760  -6.078 -23.757  0.00  0.00    +0.007 C 
ATOM     14  C   UNL     1      34.928  -6.995 -23.218  0.00  0.00    +0.007 C 
ATOM     15  C   UNL     1      33.325  -5.360 -24.811  0.00  0.00    +0.012 C 
ATOM     16  C   UNL     1      35.494  -6.277 -24.272  0.00  0.00    +0.012 C 
ATOM     17  C   UNL     1      34.692  -5.460 -25.068  0.00  0.00    +0.058 C 
ENDBRANCH  10  12
ENDBRANCH   1   4
BRANCH   1  18
ATOM     18  C   UNL     1      33.217 -12.483 -21.822  0.00  0.00    +0.023 C 
BRANCH  18  19
ATOM     19  C   UNL     1      33.243 -13.837 -22.580  0.00  0.00    +0.087 C 
BRANCH  19  20
ATOM     20  N   UNL     1      34.039 -14.909 -21.845  0.00  0.00    -0.246 NA
ATOM     21  N   UNL     1      34.977 -16.018 -20.165  0.00  0.00    -0.251 NA
ATOM     22  C   UNL     1      34.671 -15.978 -22.411  0.00  0.00    +0.125 C 
ATOM     23  C   UNL     1      34.250 -14.973 -20.496  0.00  0.00    +0.201 C 
ATOM     24  C   UNL     1      35.243 -16.649 -21.355  0.00  0.00    +0.124 C 
BRANCH  24  27
ATOM     25  O   UNL     1      36.566 -18.363 -20.429  0.00  0.00    -0.269 OA
ATOM     26  N   UNL     1      36.160 -18.474 -22.683  0.00  0.00    -0.324 N 
ATOM     27  C   UNL     1      36.020 -17.846 -21.436  0.00  0.00    +0.257 C 
ATOM     28  H   UNL     1      36.691 -19.300 -22.762  0.00  0.00    +0.145 HD
ATOM     29  H   UNL     1      35.728 -18.088 -23.478  0.00  0.00    +0.145 HD
ENDBRANCH  24  27
ENDBRANCH  19  20
BRANCH  19  30
ATOM     30  C   UNL     1      33.715 -13.631 -24.044  0.00  0.00    +0.125 C 
ATOM     31  C   UNL     1      33.909 -12.168 -24.429  0.00  0.00    +0.033 C 
BRANCH  30  32
ATOM     32  O   UNL     1      32.808 -14.241 -24.960  0.00  0.00    -0.383 OA
ATOM     33  H   UNL     1      32.104 -14.689 -24.466  0.00  0.00    +0.210 HD
ENDBRANCH  30  32
ENDBRANCH  19  30
ENDBRANCH  18  19
ENDBRANCH   1  18
TORSDOF 8
ENDMDL
MODEL 7
REMARK VINA RESULT:     -10.0      2.941      5.746
REMARK  Name = 46937091
REMARK  8 active torsions:
REMARK  status: ('A' for Active; 'I' for Inactive)
REMARK    1  A    between atoms: C_1  and  C_4
REMARK    2  A    between atoms: C_1  and  C_18
REMARK    3  A    between atoms: C_10  and  C_12
REMARK    4  A    between atoms: C_18  and  C_19
REMARK    5  A    between atoms: C_19  and  N_20
REMARK    6  A    between atoms: C_19  and  C_30
REMARK    7  A    between atoms: C_24  and  C_27
REMARK    8  A    between atoms: C_30  and  O_32
REMARK                            x       y       z     vdW  Elec       q    Type
REMARK                         _______ _______ _______ _____ _____    ______ ____
ROOT
ATOM      1  C   UNL     1      32.866 -22.486 -17.917  0.00  0.00    +0.031 C 
ENDROOT
BRANCH   1   4
ATOM      2  O   UNL     1      34.508 -20.617 -19.695  0.00  0.00    -0.425 OA
ATOM      3  N   UNL     1      36.720 -20.146 -19.548  0.00  0.00    -0.368 NA
ATOM      4  C   UNL     1      34.339 -22.190 -17.796  0.00  0.00    +0.014 C 
ATOM      5  C   UNL     1      35.020 -21.325 -18.646  0.00  0.00    +0.170 C 
ATOM      6  C   UNL     1      35.112 -22.788 -16.796  0.00  0.00    -0.005 C 
ATOM      7  C   UNL     1      36.373 -21.034 -18.558  0.00  0.00    +0.151 C 
ATOM      8  C   UNL     1      36.481 -22.522 -16.674  0.00  0.00    -0.019 C 
ATOM      9  C   UNL     1      37.134 -21.642 -17.550  0.00  0.00    +0.088 C 
ATOM     10  C   UNL     1      35.586 -19.940 -20.180  0.00  0.00    +0.282 C 
BRANCH  10  12
ATOM     11 CL   UNL     1      34.475 -16.462 -24.875  0.00  0.00    -0.082 Cl
ATOM     12  C   UNL     1      35.317 -19.099 -21.314  0.00  0.00    +0.066 C 
ATOM     13  C   UNL     1      34.774 -19.648 -22.475  0.00  0.00    +0.007 C 
ATOM     14  C   UNL     1      35.600 -17.735 -21.254  0.00  0.00    +0.007 C 
ATOM     15  C   UNL     1      34.514 -18.832 -23.577  0.00  0.00    +0.012 C 
ATOM     16  C   UNL     1      35.339 -16.919 -22.355  0.00  0.00    +0.012 C 
ATOM     17  C   UNL     1      34.796 -17.468 -23.516  0.00  0.00    +0.058 C 
ENDBRANCH  10  12
ENDBRANCH   1   4
BRANCH   1  18
ATOM     18  C   UNL     1      32.335 -23.498 -16.888  0.00  0.00    +0.023 C 
BRANCH  18  19
ATOM     19  C   UNL     1      31.673 -22.873 -15.631  0.00  0.00    +0.087 C 
BRANCH  19  20
ATOM     20  N   UNL     1      32.379 -23.263 -14.338  0.00  0.00    -0.246 NA
ATOM     21  N   UNL     1      32.717 -23.583 -12.167  0.00  0.00    -0.251 NA
ATOM     22  C   UNL     1      33.642 -23.771 -14.227  0.00  0.00    +0.125 C 
ATOM     23  C   UNL     1      31.863 -23.167 -13.076  0.00  0.00    +0.201 C 
ATOM     24  C   UNL     1      33.828 -23.961 -12.878  0.00  0.00    +0.124 C 
BRANCH  24  27
ATOM     25  O   UNL     1      34.986 -24.990 -11.103  0.00  0.00    -0.269 OA
ATOM     26  N   UNL     1      36.217 -24.430 -12.955  0.00  0.00    -0.324 N 
ATOM     27  C   UNL     1      35.005 -24.479 -12.251  0.00  0.00    +0.257 C 
ATOM     28  H   UNL     1      37.040 -24.781 -12.544  0.00  0.00    +0.145 HD
ATOM     29  H   UNL     1      36.245 -24.045 -13.860  0.00  0.00    +0.145 HD
ENDBRANCH  24  27
ENDBRANCH  19  20
BRANCH  19  30
ATOM     30  C   UNL     1      30.152 -23.183 -15.606  0.00  0.00    +0.125 C 
ATOM     31  C   UNL     1      29.827 -24.672 -15.572  0.00  0.00    +0.033 C 
BRANCH  30  32
ATOM     32  O   UNL     1      29.496 -22.583 -16.721  0.00  0.00    -0.383 OA
ATOM     33  H   UNL     1      28.609 -22.966 -16.817  0.00  0.00    +0.210 HD
ENDBRANCH  30  32
ENDBRANCH  19  30
ENDBRANCH  18  19
ENDBRANCH   1  18
TORSDOF 8
ENDMDL
MODEL 8
REMARK VINA RESULT:      -9.9      1.662      3.474
REMARK  Name = 46937091
REMARK  8 active torsions:
REMARK  status: ('A' for Active; 'I' for Inactive)
REMARK    1  A    between atoms: C_1  and  C_4
REMARK    2  A    between atoms: C_1  and  C_18
REMARK    3  A    between atoms: C_10  and  C_12
REMARK    4  A    between atoms: C_18  and  C_19
REMARK    5  A    between atoms: C_19  and  N_20
REMARK    6  A    between atoms: C_19  and  C_30
REMARK    7  A    between atoms: C_24  and  C_27
REMARK    8  A    between atoms: C_30  and  O_32
REMARK                            x       y       z     vdW  Elec       q    Type
REMARK                         _______ _______ _______ _____ _____    ______ ____
ROOT
ATOM      1  C   UNL     1      34.316 -23.873 -14.324  0.00  0.00    +0.031 C 
ENDROOT
BRANCH   1   4
ATOM      2  O   UNL     1      33.660 -22.447 -16.948  0.00  0.00    -0.425 OA
ATOM      3  N   UNL     1      31.621 -22.132 -17.886  0.00  0.00    -0.368 NA
ATOM      4  C   UNL     1      32.949 -23.678 -14.927  0.00  0.00    +0.014 C 
ATOM      5  C   UNL     1      32.727 -23.015 -16.129  0.00  0.00    +0.170 C 
ATOM      6  C   UNL     1      31.805 -24.167 -14.286  0.00  0.00    -0.005 C 
ATOM      7  C   UNL     1      31.481 -22.821 -16.706  0.00  0.00    +0.151 C 
ATOM      8  C   UNL     1      30.529 -23.992 -14.835  0.00  0.00    -0.019 C 
ATOM      9  C   UNL     1      30.345 -23.318 -16.051  0.00  0.00    +0.088 C 
ATOM     10  C   UNL     1      32.919 -21.942 -17.973  0.00  0.00    +0.282 C 
BRANCH  10  12
ATOM     11 CL   UNL     1      36.036 -19.179 -22.219  0.00  0.00    -0.082 Cl
ATOM     12  C   UNL     1      33.673 -21.274 -18.999  0.00  0.00    +0.066 C 
ATOM     13  C   UNL     1      33.021 -20.459 -19.923  0.00  0.00    +0.007 C 
ATOM     14  C   UNL     1      35.055 -21.442 -19.070  0.00  0.00    +0.007 C 
ATOM     15  C   UNL     1      33.752 -19.811 -20.919  0.00  0.00    +0.012 C 
ATOM     16  C   UNL     1      35.786 -20.794 -20.065  0.00  0.00    +0.012 C 
ATOM     17  C   UNL     1      35.134 -19.978 -20.990  0.00  0.00    +0.058 C 
ENDBRANCH  10  12
ENDBRANCH   1   4
BRANCH   1  18
ATOM     18  C   UNL     1      35.401 -24.292 -15.332  0.00  0.00    +0.023 C 
BRANCH  18  19
ATOM     19  C   UNL     1      36.806 -24.540 -14.721  0.00  0.00    +0.087 C 
BRANCH  19  20
ATOM     20  N   UNL     1      36.751 -24.893 -13.240  0.00  0.00    -0.246 NA
ATOM     21  N   UNL     1      37.007 -26.062 -11.369  0.00  0.00    -0.251 NA
ATOM     22  C   UNL     1      36.254 -24.109 -12.239  0.00  0.00    +0.125 C 
ATOM     23  C   UNL     1      37.192 -26.055 -12.671  0.00  0.00    +0.201 C 
ATOM     24  C   UNL     1      36.423 -24.850 -11.094  0.00  0.00    +0.124 C 
BRANCH  24  27
ATOM     25  O   UNL     1      35.314 -25.163  -9.039  0.00  0.00    -0.269 OA
ATOM     26  N   UNL     1      36.552 -23.246  -9.265  0.00  0.00    -0.324 N 
ATOM     27  C   UNL     1      36.053 -24.456  -9.769  0.00  0.00    +0.257 C 
ATOM     28  H   UNL     1      36.311 -22.954  -8.356  0.00  0.00    +0.145 HD
ATOM     29  H   UNL     1      37.142 -22.688  -9.820  0.00  0.00    +0.145 HD
ENDBRANCH  24  27
ENDBRANCH  19  20
BRANCH  19  30
ATOM     30  C   UNL     1      37.749 -23.344 -15.024  0.00  0.00    +0.125 C 
ATOM     31  C   UNL     1      37.218 -22.397 -16.095  0.00  0.00    +0.033 C 
BRANCH  30  32
ATOM     32  O   UNL     1      39.045 -23.802 -15.402  0.00  0.00    -0.383 OA
ATOM     33  H   UNL     1      39.598 -23.043 -15.643  0.00  0.00    +0.210 HD
ENDBRANCH  30  32
ENDBRANCH  19  30
ENDBRANCH  18  19
ENDBRANCH   1  18
TORSDOF 8
ENDMDL
MODEL 9
REMARK VINA RESULT:      -9.8      3.461      8.475
REMARK  Name = 46937091
REMARK  8 active torsions:
REMARK  status: ('A' for Active; 'I' for Inactive)
REMARK    1  A    between atoms: C_1  and  C_4
REMARK    2  A    between atoms: C_1  and  C_18
REMARK    3  A    between atoms: C_10  and  C_12
REMARK    4  A    between atoms: C_18  and  C_19
REMARK    5  A    between atoms: C_19  and  N_20
REMARK    6  A    between atoms: C_19  and  C_30
REMARK    7  A    between atoms: C_24  and  C_27
REMARK    8  A    between atoms: C_30  and  O_32
REMARK                            x       y       z     vdW  Elec       q    Type
REMARK                         _______ _______ _______ _____ _____    ______ ____
ROOT
ATOM      1  C   UNL     1      32.971 -22.897 -18.200  0.00  0.00    +0.031 C 
ENDROOT
BRANCH   1   4
ATOM      2  O   UNL     1      35.445 -23.018 -16.405  0.00  0.00    -0.425 OA
ATOM      3  N   UNL     1      37.426 -21.958 -16.696  0.00  0.00    -0.368 NA
ATOM      4  C   UNL     1      34.280 -22.181 -18.418  0.00  0.00    +0.014 C 
ATOM      5  C   UNL     1      35.364 -22.284 -17.554  0.00  0.00    +0.170 C 
ATOM      6  C   UNL     1      34.469 -21.354 -19.530  0.00  0.00    -0.005 C 
ATOM      7  C   UNL     1      36.579 -21.637 -17.730  0.00  0.00    +0.151 C 
ATOM      8  C   UNL     1      35.679 -20.683 -19.744  0.00  0.00    -0.019 C 
ATOM      9  C   UNL     1      36.752 -20.813 -18.850  0.00  0.00    +0.088 C 
ATOM     10  C   UNL     1      36.705 -22.769 -15.954  0.00  0.00    +0.282 C 
BRANCH  10  12
ATOM     11 CL   UNL     1      38.159 -25.519 -10.885  0.00  0.00    -0.082 Cl
ATOM     12  C   UNL     1      37.057 -23.434 -14.730  0.00  0.00    +0.066 C 
ATOM     13  C   UNL     1      36.262 -23.271 -13.595  0.00  0.00    +0.007 C 
ATOM     14  C   UNL     1      38.192 -24.241 -14.675  0.00  0.00    +0.007 C 
ATOM     15  C   UNL     1      36.603 -23.916 -12.406  0.00  0.00    +0.012 C 
ATOM     16  C   UNL     1      38.533 -24.886 -13.487  0.00  0.00    +0.012 C 
ATOM     17  C   UNL     1      37.738 -24.724 -12.352  0.00  0.00    +0.058 C 
ENDBRANCH  10  12
ENDBRANCH   1   4
BRANCH   1  18
ATOM     18  C   UNL     1      32.144 -22.363 -17.017  0.00  0.00    +0.023 C 
BRANCH  18  19
ATOM     19  C   UNL     1      31.741 -23.428 -15.962  0.00  0.00    +0.087 C 
BRANCH  19  20
ATOM     20  N   UNL     1      30.238 -23.476 -15.719  0.00  0.00    -0.246 NA
ATOM     21  N   UNL     1      28.267 -24.219 -15.016  0.00  0.00    -0.251 NA
ATOM     22  C   UNL     1      29.324 -22.542 -16.114  0.00  0.00    +0.125 C 
ATOM     23  C   UNL     1      29.558 -24.464 -15.063  0.00  0.00    +0.201 C 
ATOM     24  C   UNL     1      28.114 -23.022 -15.669  0.00  0.00    +0.124 C 
BRANCH  24  27
ATOM     25  O   UNL     1      25.988 -22.340 -14.919  0.00  0.00    -0.269 OA
ATOM     26  N   UNL     1      26.544 -21.804 -17.078  0.00  0.00    -0.324 N 
ATOM     27  C   UNL     1      26.841 -22.394 -15.841  0.00  0.00    +0.257 C 
ATOM     28  H   UNL     1      25.673 -21.366 -17.219  0.00  0.00    +0.145 HD
ATOM     29  H   UNL     1      27.207 -21.827 -17.806  0.00  0.00    +0.145 HD
ENDBRANCH  24  27
ENDBRANCH  19  20
BRANCH  19  30
ATOM     30  C   UNL     1      32.560 -23.236 -14.657  0.00  0.00    +0.125 C 
ATOM     31  C   UNL     1      32.728 -24.514 -13.842  0.00  0.00    +0.033 C 
BRANCH  30  32
ATOM     32  O   UNL     1      31.974 -22.229 -13.835  0.00  0.00    -0.383 OA
ATOM     33  H   UNL     1      31.101 -21.993 -14.186  0.00  0.00    +0.210 HD
ENDBRANCH  30  32
ENDBRANCH  19  30
ENDBRANCH  18  19
ENDBRANCH   1  18
TORSDOF 8
ENDMDL
