MODEL 1
REMARK VINA RESULT:     -13.1      0.000      0.000
REMARK  Name = 11581936
REMARK  5 active torsions:
REMARK  status: ('A' for Active; 'I' for Inactive)
REMARK    1  A    between atoms: C_1  and  C_9
REMARK    2  A    between atoms: C_4  and  O_19
REMARK    3  A    between atoms: C_10  and  C_14
REMARK    4  A    between atoms: O_19  and  C_20
REMARK    5  A    between atoms: C_20  and  C_22
REMARK                            x       y       z     vdW  Elec       q    Type
REMARK                         _______ _______ _______ _____ _____    ______ ____
ROOT
ATOM      1  C   UNL     1      33.822 -21.863 -18.390  0.00  0.00    +0.019 C 
ATOM      2  C   UNL     1      33.070 -20.954 -19.134  0.00  0.00    +0.005 C 
ATOM      3  C   UNL     1      35.158 -22.095 -18.716  0.00  0.00    +0.005 C 
ATOM      4  C   UNL     1      34.987 -20.514 -20.524  0.00  0.00    +0.139 C 
ATOM      5  C   UNL     1      33.655 -20.278 -20.205  0.00  0.00    +0.037 C 
ATOM      6  C   UNL     1      35.743 -21.417 -19.786  0.00  0.00    +0.037 C 
ENDROOT
BRANCH   1   9
ATOM      7  N   UNL     1      31.712 -23.429 -16.106  0.00  0.00    -0.208 N 
ATOM      8  N   UNL     1      31.897 -22.764 -17.259  0.00  0.00    -0.178 NA
ATOM      9  C   UNL     1      33.221 -22.559 -17.288  0.00  0.00    +0.100 C 
ATOM     10  C   UNL     1      33.870 -23.094 -16.155  0.00  0.00    +0.036 C 
ATOM     11  C   UNL     1      32.863 -23.652 -15.407  0.00  0.00    +0.086 C 
ATOM     12  C   UNL     1      30.383 -23.833 -15.718  0.00  0.00    +0.140 C 
BRANCH  10  14
ATOM     13  N   UNL     1      37.940 -23.149 -15.002  0.00  0.00    -0.242 NA
ATOM     14  C   UNL     1      35.247 -23.112 -15.764  0.00  0.00    +0.006 C 
ATOM     15  C   UNL     1      35.773 -24.215 -15.097  0.00  0.00    +0.021 C 
ATOM     16  C   UNL     1      36.073 -22.027 -16.049  0.00  0.00    +0.021 C 
ATOM     17  C   UNL     1      37.111 -24.184 -14.741  0.00  0.00    +0.099 C 
ATOM     18  C   UNL     1      37.398 -22.094 -15.651  0.00  0.00    +0.099 C 
ENDBRANCH  10  14
ENDBRANCH   1   9
BRANCH   4  19
ATOM     19  O   UNL     1      35.561 -19.848 -21.575  0.00  0.00    -0.468 OA
BRANCH  19  20
ATOM     20  C   UNL     1      36.017 -18.525 -21.323  0.00  0.00    +0.264 C 
BRANCH  20  22
ATOM     21  N   UNL     1      35.211 -16.312 -21.882  0.00  0.00    -0.406 NA
ATOM     22  C   UNL     1      35.379 -17.589 -22.295  0.00  0.00    +0.152 C 
ATOM     23  C   UNL     1      34.215 -15.822 -24.021  0.00  0.00    +0.026 C 
ATOM     24  C   UNL     1      34.638 -15.438 -22.732  0.00  0.00    +0.113 C 
ATOM     25  C   UNL     1      34.998 -18.057 -23.536  0.00  0.00    +0.031 C 
ATOM     26  C   UNL     1      34.407 -17.154 -24.409  0.00  0.00    +0.005 C 
ATOM     27  C   UNL     1      33.620 -14.884 -24.881  0.00  0.00    +0.002 C 
ATOM     28  C   UNL     1      34.447 -14.114 -22.346  0.00  0.00    +0.085 C 
ATOM     29  C   UNL     1      33.441 -13.565 -24.471  0.00  0.00    -0.004 C 
ATOM     30  C   UNL     1      33.855 -13.180 -23.201  0.00  0.00    -0.019 C 
ENDBRANCH  20  22
ENDBRANCH  19  20
ENDBRANCH   4  19
TORSDOF 5
ENDMDL
MODEL 2
REMARK VINA RESULT:     -12.9      1.543      2.612
REMARK  Name = 11581936
REMARK  5 active torsions:
REMARK  status: ('A' for Active; 'I' for Inactive)
REMARK    1  A    between atoms: C_1  and  C_9
REMARK    2  A    between atoms: C_4  and  O_19
REMARK    3  A    between atoms: C_10  and  C_14
REMARK    4  A    between atoms: O_19  and  C_20
REMARK    5  A    between atoms: C_20  and  C_22
REMARK                            x       y       z     vdW  Elec       q    Type
REMARK                         _______ _______ _______ _____ _____    ______ ____
ROOT
ATOM      1  C   UNL     1      34.186 -22.995 -16.405  0.00  0.00    +0.019 C 
ATOM      2  C   UNL     1      35.494 -22.510 -16.384  0.00  0.00    +0.005 C 
ATOM      3  C   UNL     1      33.440 -22.941 -17.582  0.00  0.00    +0.005 C 
ATOM      4  C   UNL     1      35.306 -21.921 -18.711  0.00  0.00    +0.139 C 
ATOM      5  C   UNL     1      36.055 -21.972 -17.542  0.00  0.00    +0.037 C 
ATOM      6  C   UNL     1      34.002 -22.403 -18.740  0.00  0.00    +0.037 C 
ENDROOT
BRANCH   1   9
ATOM      7  N   UNL     1      32.138 -24.021 -13.783  0.00  0.00    -0.208 N 
ATOM      8  N   UNL     1      32.305 -23.378 -14.951  0.00  0.00    -0.178 NA
ATOM      9  C   UNL     1      33.608 -23.550 -15.213  0.00  0.00    +0.100 C 
ATOM     10  C   UNL     1      34.261 -24.299 -14.212  0.00  0.00    +0.036 C 
ATOM     11  C   UNL     1      33.278 -24.590 -13.298  0.00  0.00    +0.086 C 
ATOM     12  C   UNL     1      30.833 -24.056 -13.166  0.00  0.00    +0.140 C 
BRANCH  10  14
ATOM     13  N   UNL     1      38.282 -25.545 -13.790  0.00  0.00    -0.242 NA
ATOM     14  C   UNL     1      35.622 -24.720 -14.070  0.00  0.00    +0.006 C 
ATOM     15  C   UNL     1      36.494 -24.011 -13.248  0.00  0.00    +0.021 C 
ATOM     16  C   UNL     1      36.084 -25.843 -14.751  0.00  0.00    +0.021 C 
ATOM     17  C   UNL     1      37.801 -24.460 -13.144  0.00  0.00    +0.099 C 
ATOM     18  C   UNL     1      37.409 -26.210 -14.579  0.00  0.00    +0.099 C 
ENDBRANCH  10  14
ENDBRANCH   1   9
BRANCH   4  19
ATOM     19  O   UNL     1      35.859 -21.393 -19.849  0.00  0.00    -0.468 OA
BRANCH  19  20
ATOM     20  C   UNL     1      36.241 -20.024 -19.798  0.00  0.00    +0.264 C 
BRANCH  20  22
ATOM     21  N   UNL     1      35.722 -17.973 -20.975  0.00  0.00    -0.406 NA
ATOM     22  C   UNL     1      35.739 -19.325 -21.018  0.00  0.00    +0.152 C 
ATOM     23  C   UNL     1      34.829 -17.981 -23.213  0.00  0.00    +0.026 C 
ATOM     24  C   UNL     1      35.275 -17.307 -22.057  0.00  0.00    +0.113 C 
ATOM     25  C   UNL     1      35.323 -20.070 -22.103  0.00  0.00    +0.031 C 
ATOM     26  C   UNL     1      34.862 -19.381 -23.216  0.00  0.00    +0.005 C 
ATOM     27  C   UNL     1      34.368 -17.254 -24.324  0.00  0.00    +0.002 C 
ATOM     28  C   UNL     1      35.243 -15.915 -22.055  0.00  0.00    +0.085 C 
ATOM     29  C   UNL     1      34.345 -15.862 -24.296  0.00  0.00    -0.004 C 
ATOM     30  C   UNL     1      34.783 -15.192 -23.160  0.00  0.00    -0.019 C 
ENDBRANCH  20  22
ENDBRANCH  19  20
ENDBRANCH   4  19
TORSDOF 5
ENDMDL
MODEL 3
REMARK VINA RESULT:     -12.7      1.520      3.672
REMARK  Name = 11581936
REMARK  5 active torsions:
REMARK  status: ('A' for Active; 'I' for Inactive)
REMARK    1  A    between atoms: C_1  and  C_9
REMARK    2  A    between atoms: C_4  and  O_19
REMARK    3  A    between atoms: C_10  and  C_14
REMARK    4  A    between atoms: O_19  and  C_20
REMARK    5  A    between atoms: C_20  and  C_22
REMARK                            x       y       z     vdW  Elec       q    Type
REMARK                         _______ _______ _______ _____ _____    ______ ____
ROOT
ATOM      1  C   UNL     1      34.718 -22.817 -16.891  0.00  0.00    +0.019 C 
ATOM      2  C   UNL     1      35.840 -22.126 -17.349  0.00  0.00    +0.005 C 
ATOM      3  C   UNL     1      33.516 -22.740 -17.593  0.00  0.00    +0.005 C 
ATOM      4  C   UNL     1      34.557 -21.286 -19.206  0.00  0.00    +0.139 C 
ATOM      5  C   UNL     1      35.758 -21.358 -18.511  0.00  0.00    +0.037 C 
ATOM      6  C   UNL     1      33.434 -21.973 -18.756  0.00  0.00    +0.037 C 
ENDROOT
BRANCH   1   9
ATOM      7  N   UNL     1      35.666 -24.777 -14.174  0.00  0.00    -0.208 N 
ATOM      8  N   UNL     1      35.978 -24.114 -15.301  0.00  0.00    -0.178 NA
ATOM      9  C   UNL     1      34.802 -23.608 -15.695  0.00  0.00    +0.100 C 
ATOM     10  C   UNL     1      33.750 -23.951 -14.820  0.00  0.00    +0.036 C 
ATOM     11  C   UNL     1      34.345 -24.709 -13.842  0.00  0.00    +0.086 C 
ATOM     12  C   UNL     1      36.699 -25.471 -13.443  0.00  0.00    +0.140 C 
BRANCH  10  14
ATOM     13  N   UNL     1      29.619 -23.040 -14.875  0.00  0.00    -0.242 NA
ATOM     14  C   UNL     1      32.352 -23.642 -14.839  0.00  0.00    +0.006 C 
ATOM     15  C   UNL     1      31.450 -24.510 -15.448  0.00  0.00    +0.021 C 
ATOM     16  C   UNL     1      31.884 -22.471 -14.249  0.00  0.00    +0.021 C 
ATOM     17  C   UNL     1      30.108 -24.167 -15.439  0.00  0.00    +0.099 C 
ATOM     18  C   UNL     1      30.522 -22.219 -14.294  0.00  0.00    +0.099 C 
ENDBRANCH  10  14
ENDBRANCH   1   9
BRANCH   4  19
ATOM     19  O   UNL     1      34.477 -20.532 -20.348  0.00  0.00    -0.468 OA
BRANCH  19  20
ATOM     20  C   UNL     1      35.691 -19.974 -20.833  0.00  0.00    +0.264 C 
BRANCH  20  22
ATOM     21  N   UNL     1      35.190 -17.617 -20.598  0.00  0.00    -0.406 NA
ATOM     22  C   UNL     1      35.412 -18.644 -21.450  0.00  0.00    +0.152 C 
ATOM     23  C   UNL     1      34.893 -16.182 -22.511  0.00  0.00    +0.026 C 
ATOM     24  C   UNL     1      34.935 -16.402 -21.118  0.00  0.00    +0.113 C 
ATOM     25  C   UNL     1      35.391 -18.526 -22.825  0.00  0.00    +0.031 C 
ATOM     26  C   UNL     1      35.128 -17.273 -23.358  0.00  0.00    +0.005 C 
ATOM     27  C   UNL     1      34.622 -14.900 -23.019  0.00  0.00    +0.002 C 
ATOM     28  C   UNL     1      34.702 -15.318 -20.276  0.00  0.00    +0.085 C 
ATOM     29  C   UNL     1      34.392 -13.833 -22.155  0.00  0.00    -0.004 C 
ATOM     30  C   UNL     1      34.432 -14.042 -20.782  0.00  0.00    -0.019 C 
ENDBRANCH  20  22
ENDBRANCH  19  20
ENDBRANCH   4  19
TORSDOF 5
ENDMDL
MODEL 4
REMARK VINA RESULT:     -11.7      1.172      3.482
REMARK  Name = 11581936
REMARK  5 active torsions:
REMARK  status: ('A' for Active; 'I' for Inactive)
REMARK    1  A    between atoms: C_1  and  C_9
REMARK    2  A    between atoms: C_4  and  O_19
REMARK    3  A    between atoms: C_10  and  C_14
REMARK    4  A    between atoms: O_19  and  C_20
REMARK    5  A    between atoms: C_20  and  C_22
REMARK                            x       y       z     vdW  Elec       q    Type
REMARK                         _______ _______ _______ _____ _____    ______ ____
ROOT
ATOM      1  C   UNL     1      35.550 -22.160 -17.439  0.00  0.00    +0.019 C 
ATOM      2  C   UNL     1      34.340 -22.245 -18.127  0.00  0.00    +0.005 C 
ATOM      3  C   UNL     1      36.574 -21.348 -17.927  0.00  0.00    +0.005 C 
ATOM      4  C   UNL     1      35.180 -20.712 -19.783  0.00  0.00    +0.139 C 
ATOM      5  C   UNL     1      34.155 -21.519 -19.304  0.00  0.00    +0.037 C 
ATOM      6  C   UNL     1      36.389 -20.621 -19.103  0.00  0.00    +0.037 C 
ENDROOT
BRANCH   1   9
ATOM      7  N   UNL     1      36.755 -23.947 -14.705  0.00  0.00    -0.208 N 
ATOM      8  N   UNL     1      36.971 -23.286 -15.855  0.00  0.00    -0.178 NA
ATOM      9  C   UNL     1      35.741 -22.907 -16.228  0.00  0.00    +0.100 C 
ATOM     10  C   UNL     1      34.751 -23.327 -15.315  0.00  0.00    +0.036 C 
ATOM     11  C   UNL     1      35.442 -23.999 -14.337  0.00  0.00    +0.086 C 
ATOM     12  C   UNL     1      37.869 -24.518 -13.987  0.00  0.00    +0.140 C 
BRANCH  10  14
ATOM     13  N   UNL     1      30.551 -22.818 -15.278  0.00  0.00    -0.242 NA
ATOM     14  C   UNL     1      33.330 -23.156 -15.303  0.00  0.00    +0.006 C 
ATOM     15  C   UNL     1      32.679 -22.778 -14.131  0.00  0.00    +0.021 C 
ATOM     16  C   UNL     1      32.587 -23.363 -16.462  0.00  0.00    +0.021 C 
ATOM     17  C   UNL     1      31.302 -22.625 -14.171  0.00  0.00    +0.099 C 
ATOM     18  C   UNL     1      31.215 -23.184 -16.398  0.00  0.00    +0.099 C 
ENDBRANCH  10  14
ENDBRANCH   1   9
BRANCH   4  19
ATOM     19  O   UNL     1      34.998 -19.998 -20.939  0.00  0.00    -0.468 OA
BRANCH  19  20
ATOM     20  C   UNL     1      36.047 -19.118 -21.320  0.00  0.00    +0.264 C 
BRANCH  20  22
ATOM     21  N   UNL     1      35.115 -17.646 -23.001  0.00  0.00    -0.406 NA
ATOM     22  C   UNL     1      35.469 -17.796 -21.704  0.00  0.00    +0.152 C 
ATOM     23  C   UNL     1      34.405 -15.403 -22.477  0.00  0.00    +0.026 C 
ATOM     24  C   UNL     1      34.590 -16.466 -23.385  0.00  0.00    +0.113 C 
ATOM     25  C   UNL     1      35.326 -16.814 -20.745  0.00  0.00    +0.031 C 
ATOM     26  C   UNL     1      34.785 -15.601 -21.143  0.00  0.00    +0.005 C 
ATOM     27  C   UNL     1      33.855 -14.186 -22.913  0.00  0.00    +0.002 C 
ATOM     28  C   UNL     1      34.212 -16.270 -24.711  0.00  0.00    +0.085 C 
ATOM     29  C   UNL     1      33.486 -14.015 -24.245  0.00  0.00    -0.004 C 
ATOM     30  C   UNL     1      33.665 -15.059 -25.145  0.00  0.00    -0.019 C 
ENDBRANCH  20  22
ENDBRANCH  19  20
ENDBRANCH   4  19
TORSDOF 5
ENDMDL
MODEL 5
REMARK VINA RESULT:     -11.4      7.807     14.603
REMARK  Name = 11581936
REMARK  5 active torsions:
REMARK  status: ('A' for Active; 'I' for Inactive)
REMARK    1  A    between atoms: C_1  and  C_9
REMARK    2  A    between atoms: C_4  and  O_19
REMARK    3  A    between atoms: C_10  and  C_14
REMARK    4  A    between atoms: O_19  and  C_20
REMARK    5  A    between atoms: C_20  and  C_22
REMARK                            x       y       z     vdW  Elec       q    Type
REMARK                         _______ _______ _______ _____ _____    ______ ____
ROOT
ATOM      1  C   UNL     1      31.629  -6.643 -21.656  0.00  0.00    +0.019 C 
ATOM      2  C   UNL     1      31.206  -7.700 -22.462  0.00  0.00    +0.005 C 
ATOM      3  C   UNL     1      32.159  -6.899 -20.392  0.00  0.00    +0.005 C 
ATOM      4  C   UNL     1      31.844  -9.260 -20.742  0.00  0.00    +0.139 C 
ATOM      5  C   UNL     1      31.314  -9.013 -22.003  0.00  0.00    +0.037 C 
ATOM      6  C   UNL     1      32.268  -8.212 -19.933  0.00  0.00    +0.037 C 
ENDROOT
BRANCH   1   9
ATOM      7  N   UNL     1      30.863  -3.294 -22.221  0.00  0.00    -0.208 N 
ATOM      8  N   UNL     1      30.704  -4.425 -21.513  0.00  0.00    -0.178 NA
ATOM      9  C   UNL     1      31.518  -5.292 -22.129  0.00  0.00    +0.100 C 
ATOM     10  C   UNL     1      32.191  -4.709 -23.223  0.00  0.00    +0.036 C 
ATOM     11  C   UNL     1      31.744  -3.411 -23.255  0.00  0.00    +0.086 C 
ATOM     12  C   UNL     1      30.130  -2.108 -21.850  0.00  0.00    +0.140 C 
BRANCH  10  14
ATOM     13  N   UNL     1      34.991  -6.281 -25.979  0.00  0.00    -0.242 NA
ATOM     14  C   UNL     1      33.138  -5.242 -24.156  0.00  0.00    +0.006 C 
ATOM     15  C   UNL     1      32.944  -5.078 -25.524  0.00  0.00    +0.021 C 
ATOM     16  C   UNL     1      34.262  -5.926 -23.701  0.00  0.00    +0.021 C 
ATOM     17  C   UNL     1      33.889  -5.611 -26.385  0.00  0.00    +0.099 C 
ATOM     18  C   UNL     1      35.149  -6.421 -24.643  0.00  0.00    +0.099 C 
ENDBRANCH  10  14
ENDBRANCH   1   9
BRANCH   4  19
ATOM     19  O   UNL     1      31.950 -10.550 -20.291  0.00  0.00    -0.468 OA
BRANCH  19  20
ATOM     20  C   UNL     1      31.286 -11.551 -21.053  0.00  0.00    +0.264 C 
BRANCH  20  22
ATOM     21  N   UNL     1      32.296 -13.035 -22.677  0.00  0.00    -0.406 NA
ATOM     22  C   UNL     1      32.251 -12.641 -21.383  0.00  0.00    +0.152 C 
ATOM     23  C   UNL     1      33.992 -14.632 -22.060  0.00  0.00    +0.026 C 
ATOM     24  C   UNL     1      33.155 -14.017 -23.013  0.00  0.00    +0.113 C 
ATOM     25  C   UNL     1      33.030 -13.183 -20.382  0.00  0.00    +0.031 C 
ATOM     26  C   UNL     1      33.914 -14.194 -20.732  0.00  0.00    +0.005 C 
ATOM     27  C   UNL     1      34.875 -15.654 -22.447  0.00  0.00    +0.002 C 
ATOM     28  C   UNL     1      33.234 -14.452 -24.334  0.00  0.00    +0.085 C 
ATOM     29  C   UNL     1      34.935 -16.071 -23.774  0.00  0.00    -0.004 C 
ATOM     30  C   UNL     1      34.112 -15.469 -24.718  0.00  0.00    -0.019 C 
ENDBRANCH  20  22
ENDBRANCH  19  20
ENDBRANCH   4  19
TORSDOF 5
ENDMDL
MODEL 6
REMARK VINA RESULT:     -11.4      2.117      4.506
REMARK  Name = 11581936
REMARK  5 active torsions:
REMARK  status: ('A' for Active; 'I' for Inactive)
REMARK    1  A    between atoms: C_1  and  C_9
REMARK    2  A    between atoms: C_4  and  O_19
REMARK    3  A    between atoms: C_10  and  C_14
REMARK    4  A    between atoms: O_19  and  C_20
REMARK    5  A    between atoms: C_20  and  C_22
REMARK                            x       y       z     vdW  Elec       q    Type
REMARK                         _______ _______ _______ _____ _____    ______ ____
ROOT
ATOM      1  C   UNL     1      35.027 -23.115 -15.531  0.00  0.00    +0.019 C 
ATOM      2  C   UNL     1      33.922 -23.270 -16.367  0.00  0.00    +0.005 C 
ATOM      3  C   UNL     1      36.166 -22.456 -15.994  0.00  0.00    +0.005 C 
ATOM      4  C   UNL     1      35.094 -22.109 -18.121  0.00  0.00    +0.139 C 
ATOM      5  C   UNL     1      33.956 -22.765 -17.667  0.00  0.00    +0.037 C 
ATOM      6  C   UNL     1      36.200 -21.951 -17.293  0.00  0.00    +0.037 C 
ENDROOT
BRANCH   1   9
ATOM      7  N   UNL     1      35.706 -24.306 -12.330  0.00  0.00    -0.208 N 
ATOM      8  N   UNL     1      36.129 -23.820 -13.510  0.00  0.00    -0.178 NA
ATOM      9  C   UNL     1      34.992 -23.635 -14.192  0.00  0.00    +0.100 C 
ATOM     10  C   UNL     1      33.853 -24.002 -13.446  0.00  0.00    +0.036 C 
ATOM     11  C   UNL     1      34.351 -24.433 -12.241  0.00  0.00    +0.086 C 
ATOM     12  C   UNL     1      36.668 -24.636 -11.306  0.00  0.00    +0.140 C 
BRANCH  10  14
ATOM     13  N   UNL     1      29.725 -23.933 -14.372  0.00  0.00    -0.242 NA
ATOM     14  C   UNL     1      32.456 -23.979 -13.760  0.00  0.00    +0.006 C 
ATOM     15  C   UNL     1      31.730 -25.165 -13.818  0.00  0.00    +0.021 C 
ATOM     16  C   UNL     1      31.813 -22.769 -14.008  0.00  0.00    +0.021 C 
ATOM     17  C   UNL     1      30.381 -25.089 -14.126  0.00  0.00    +0.099 C 
ATOM     18  C   UNL     1      30.461 -22.800 -14.307  0.00  0.00    +0.099 C 
ENDBRANCH  10  14
ENDBRANCH   1   9
BRANCH   4  19
ATOM     19  O   UNL     1      35.128 -21.613 -19.399  0.00  0.00    -0.468 OA
BRANCH  19  20
ATOM     20  C   UNL     1      36.327 -20.964 -19.802  0.00  0.00    +0.264 C 
BRANCH  20  22
ATOM     21  N   UNL     1      35.163 -20.193 -21.781  0.00  0.00    -0.406 NA
ATOM     22  C   UNL     1      35.997 -19.871 -20.765  0.00  0.00    +0.152 C 
ATOM     23  C   UNL     1      35.352 -17.922 -22.564  0.00  0.00    +0.026 C 
ATOM     24  C   UNL     1      34.843 -19.233 -22.669  0.00  0.00    +0.113 C 
ATOM     25  C   UNL     1      36.543 -18.618 -20.580  0.00  0.00    +0.031 C 
ATOM     26  C   UNL     1      36.212 -17.631 -21.498  0.00  0.00    +0.005 C 
ATOM     27  C   UNL     1      34.997 -16.946 -23.511  0.00  0.00    +0.002 C 
ATOM     28  C   UNL     1      33.988 -19.522 -23.730  0.00  0.00    +0.085 C 
ATOM     29  C   UNL     1      34.140 -17.261 -24.562  0.00  0.00    -0.004 C 
ATOM     30  C   UNL     1      33.635 -18.551 -24.671  0.00  0.00    -0.019 C 
ENDBRANCH  20  22
ENDBRANCH  19  20
ENDBRANCH   4  19
TORSDOF 5
ENDMDL
MODEL 7
REMARK VINA RESULT:     -11.3      3.223      5.670
REMARK  Name = 11581936
REMARK  5 active torsions:
REMARK  status: ('A' for Active; 'I' for Inactive)
REMARK    1  A    between atoms: C_1  and  C_9
REMARK    2  A    between atoms: C_4  and  O_19
REMARK    3  A    between atoms: C_10  and  C_14
REMARK    4  A    between atoms: O_19  and  C_20
REMARK    5  A    between atoms: C_20  and  C_22
REMARK                            x       y       z     vdW  Elec       q    Type
REMARK                         _______ _______ _______ _____ _____    ______ ____
ROOT
ATOM      1  C   UNL     1      34.869 -23.911 -13.514  0.00  0.00    +0.019 C 
ATOM      2  C   UNL     1      33.551 -24.255 -13.812  0.00  0.00    +0.005 C 
ATOM      3  C   UNL     1      35.625 -23.183 -14.433  0.00  0.00    +0.005 C 
ATOM      4  C   UNL     1      33.748 -23.144 -15.939  0.00  0.00    +0.139 C 
ATOM      5  C   UNL     1      32.989 -23.869 -15.029  0.00  0.00    +0.037 C 
ATOM      6  C   UNL     1      35.063 -22.797 -15.650  0.00  0.00    +0.037 C 
ENDROOT
BRANCH   1   9
ATOM      7  N   UNL     1      35.660 -24.519 -10.178  0.00  0.00    -0.208 N 
ATOM      8  N   UNL     1      34.842 -23.997 -11.108  0.00  0.00    -0.178 NA
ATOM      9  C   UNL     1      35.449 -24.307 -12.261  0.00  0.00    +0.100 C 
ATOM     10  C   UNL     1      36.647 -25.025 -12.060  0.00  0.00    +0.036 C 
ATOM     11  C   UNL     1      36.755 -25.146 -10.697  0.00  0.00    +0.086 C 
ATOM     12  C   UNL     1      35.333 -24.383  -8.780  0.00  0.00    +0.140 C 
BRANCH  10  14
ATOM     13  N   UNL     1      39.490 -26.590 -14.774  0.00  0.00    -0.242 NA
ATOM     14  C   UNL     1      37.609 -25.554 -12.979  0.00  0.00    +0.006 C 
ATOM     15  C   UNL     1      38.915 -25.071 -12.983  0.00  0.00    +0.021 C 
ATOM     16  C   UNL     1      37.246 -26.556 -13.875  0.00  0.00    +0.021 C 
ATOM     17  C   UNL     1      39.808 -25.617 -13.891  0.00  0.00    +0.099 C 
ATOM     18  C   UNL     1      38.214 -27.035 -14.743  0.00  0.00    +0.099 C 
ENDBRANCH  10  14
ENDBRANCH   1   9
BRANCH   4  19
ATOM     19  O   UNL     1      33.195 -22.765 -17.135  0.00  0.00    -0.468 OA
BRANCH  19  20
ATOM     20  C   UNL     1      33.915 -23.111 -18.311  0.00  0.00    +0.264 C 
BRANCH  20  22
ATOM     21  N   UNL     1      35.419 -21.496 -19.308  0.00  0.00    -0.406 NA
ATOM     22  C   UNL     1      34.134 -21.885 -19.134  0.00  0.00    +0.152 C 
ATOM     23  C   UNL     1      34.610 -19.649 -20.628  0.00  0.00    +0.026 C 
ATOM     24  C   UNL     1      35.656 -20.393 -20.045  0.00  0.00    +0.113 C 
ATOM     25  C   UNL     1      33.047 -21.221 -19.665  0.00  0.00    +0.031 C 
ATOM     26  C   UNL     1      33.295 -20.085 -20.423  0.00  0.00    +0.005 C 
ATOM     27  C   UNL     1      34.894 -18.503 -21.389  0.00  0.00    +0.002 C 
ATOM     28  C   UNL     1      36.963 -19.959 -20.249  0.00  0.00    +0.085 C 
ATOM     29  C   UNL     1      36.211 -18.090 -21.578  0.00  0.00    -0.004 C 
ATOM     30  C   UNL     1      37.246 -18.819 -21.006  0.00  0.00    -0.019 C 
ENDBRANCH  20  22
ENDBRANCH  19  20
ENDBRANCH   4  19
TORSDOF 5
ENDMDL
MODEL 8
REMARK VINA RESULT:     -11.2      3.172      6.120
REMARK  Name = 11581936
REMARK  5 active torsions:
REMARK  status: ('A' for Active; 'I' for Inactive)
REMARK    1  A    between atoms: C_1  and  C_9
REMARK    2  A    between atoms: C_4  and  O_19
REMARK    3  A    between atoms: C_10  and  C_14
REMARK    4  A    between atoms: O_19  and  C_20
REMARK    5  A    between atoms: C_20  and  C_22
REMARK                            x       y       z     vdW  Elec       q    Type
REMARK                         _______ _______ _______ _____ _____    ______ ____
ROOT
ATOM      1  C   UNL     1      36.784 -24.207 -14.809  0.00  0.00    +0.019 C 
ATOM      2  C   UNL     1      35.523 -24.802 -14.799  0.00  0.00    +0.005 C 
ATOM      3  C   UNL     1      36.988 -23.016 -15.507  0.00  0.00    +0.005 C 
ATOM      4  C   UNL     1      34.677 -23.020 -16.180  0.00  0.00    +0.139 C 
ATOM      5  C   UNL     1      34.466 -24.207 -15.487  0.00  0.00    +0.037 C 
ATOM      6  C   UNL     1      35.931 -22.420 -16.194  0.00  0.00    +0.037 C 
ENDROOT
BRANCH   1   9
ATOM      7  N   UNL     1      39.700 -25.818 -13.798  0.00  0.00    -0.208 N 
ATOM      8  N   UNL     1      38.902 -25.352 -14.773  0.00  0.00    -0.178 NA
ATOM      9  C   UNL     1      37.873 -24.819 -14.101  0.00  0.00    +0.100 C 
ATOM     10  C   UNL     1      38.021 -24.949 -12.704  0.00  0.00    +0.036 C 
ATOM     11  C   UNL     1      39.219 -25.601 -12.540  0.00  0.00    +0.086 C 
ATOM     12  C   UNL     1      40.938 -26.476 -14.139  0.00  0.00    +0.140 C 
BRANCH  10  14
ATOM     13  N   UNL     1      35.561 -23.737  -9.482  0.00  0.00    -0.242 NA
ATOM     14  C   UNL     1      37.189 -24.539 -11.613  0.00  0.00    +0.006 C 
ATOM     15  C   UNL     1      37.351 -23.280 -11.042  0.00  0.00    +0.021 C 
ATOM     16  C   UNL     1      36.211 -25.396 -11.116  0.00  0.00    +0.021 C 
ATOM     17  C   UNL     1      36.520 -22.931  -9.989  0.00  0.00    +0.099 C 
ATOM     18  C   UNL     1      35.431 -24.952 -10.061  0.00  0.00    +0.099 C 
ENDBRANCH  10  14
ENDBRANCH   1   9
BRANCH   4  19
ATOM     19  O   UNL     1      33.637 -22.435 -16.855  0.00  0.00    -0.468 OA
BRANCH  19  20
ATOM     20  C   UNL     1      33.458 -22.820 -18.212  0.00  0.00    +0.264 C 
BRANCH  20  22
ATOM     21  N   UNL     1      35.160 -21.402 -19.189  0.00  0.00    -0.406 NA
ATOM     22  C   UNL     1      33.840 -21.684 -19.102  0.00  0.00    +0.152 C 
ATOM     23  C   UNL     1      34.610 -19.617 -20.712  0.00  0.00    +0.026 C 
ATOM     24  C   UNL     1      35.543 -20.384 -19.983  0.00  0.00    +0.113 C 
ATOM     25  C   UNL     1      32.855 -20.991 -19.777  0.00  0.00    +0.031 C 
ATOM     26  C   UNL     1      33.253 -19.942 -20.594  0.00  0.00    +0.005 C 
ATOM     27  C   UNL     1      35.045 -18.561 -21.530  0.00  0.00    +0.002 C 
ATOM     28  C   UNL     1      36.892 -20.060 -20.101  0.00  0.00    +0.085 C 
ATOM     29  C   UNL     1      36.401 -18.258 -21.630  0.00  0.00    -0.004 C 
ATOM     30  C   UNL     1      37.325 -19.009 -20.914  0.00  0.00    -0.019 C 
ENDBRANCH  20  22
ENDBRANCH  19  20
ENDBRANCH   4  19
TORSDOF 5
ENDMDL
MODEL 9
REMARK VINA RESULT:     -11.2      6.187     14.049
REMARK  Name = 11581936
REMARK  5 active torsions:
REMARK  status: ('A' for Active; 'I' for Inactive)
REMARK    1  A    between atoms: C_1  and  C_9
REMARK    2  A    between atoms: C_4  and  O_19
REMARK    3  A    between atoms: C_10  and  C_14
REMARK    4  A    between atoms: O_19  and  C_20
REMARK    5  A    between atoms: C_20  and  C_22
REMARK                            x       y       z     vdW  Elec       q    Type
REMARK                         _______ _______ _______ _____ _____    ______ ____
ROOT
ATOM      1  C   UNL     1      33.087  -8.249 -23.379  0.00  0.00    +0.019 C 
ATOM      2  C   UNL     1      32.126  -9.259 -23.431  0.00  0.00    +0.005 C 
ATOM      3  C   UNL     1      34.441  -8.570 -23.465  0.00  0.00    +0.005 C 
ATOM      4  C   UNL     1      33.873 -10.901 -23.655  0.00  0.00    +0.139 C 
ATOM      5  C   UNL     1      32.521 -10.590 -23.569  0.00  0.00    +0.037 C 
ATOM      6  C   UNL     1      34.837  -9.900 -23.604  0.00  0.00    +0.037 C 
ENDROOT
BRANCH   1   9
ATOM      7  N   UNL     1      31.753  -5.186 -22.401  0.00  0.00    -0.208 N 
ATOM      8  N   UNL     1      31.925  -6.503 -22.198  0.00  0.00    -0.178 NA
ATOM      9  C   UNL     1      32.681  -6.879 -23.237  0.00  0.00    +0.100 C 
ATOM     10  C   UNL     1      32.985  -5.802 -24.096  0.00  0.00    +0.036 C 
ATOM     11  C   UNL     1      32.368  -4.716 -23.524  0.00  0.00    +0.086 C 
ATOM     12  C   UNL     1      30.972  -4.413 -21.466  0.00  0.00    +0.140 C 
BRANCH  10  14
ATOM     13  N   UNL     1      35.234  -5.591 -27.673  0.00  0.00    -0.242 NA
ATOM     14  C   UNL     1      33.747  -5.731 -25.306  0.00  0.00    +0.006 C 
ATOM     15  C   UNL     1      33.124  -5.910 -26.538  0.00  0.00    +0.021 C 
ATOM     16  C   UNL     1      35.116  -5.482 -25.261  0.00  0.00    +0.021 C 
ATOM     17  C   UNL     1      33.904  -5.831 -27.680  0.00  0.00    +0.099 C 
ATOM     18  C   UNL     1      35.807  -5.422 -26.460  0.00  0.00    +0.099 C 
ENDBRANCH  10  14
ENDBRANCH   1   9
BRANCH   4  19
ATOM     19  O   UNL     1      34.261 -12.209 -23.791  0.00  0.00    -0.468 OA
BRANCH  19  20
ATOM     20  C   UNL     1      34.233 -13.011 -22.617  0.00  0.00    +0.264 C 
BRANCH  20  22
ATOM     21  N   UNL     1      34.826 -15.289 -22.050  0.00  0.00    -0.406 NA
ATOM     22  C   UNL     1      34.350 -14.449 -22.999  0.00  0.00    +0.152 C 
ATOM     23  C   UNL     1      34.592 -17.095 -23.628  0.00  0.00    +0.026 C 
ATOM     24  C   UNL     1      34.946 -16.594 -22.358  0.00  0.00    +0.113 C 
ATOM     25  C   UNL     1      33.978 -14.847 -24.267  0.00  0.00    +0.031 C 
ATOM     26  C   UNL     1      34.102 -16.192 -24.581  0.00  0.00    +0.005 C 
ATOM     27  C   UNL     1      34.731 -18.464 -23.914  0.00  0.00    +0.002 C 
ATOM     28  C   UNL     1      35.431 -17.492 -21.411  0.00  0.00    +0.085 C 
ATOM     29  C   UNL     1      35.219 -19.341 -22.949  0.00  0.00    -0.004 C 
ATOM     30  C   UNL     1      35.570 -18.854 -21.696  0.00  0.00    -0.019 C 
ENDBRANCH  20  22
ENDBRANCH  19  20
ENDBRANCH   4  19
TORSDOF 5
ENDMDL
