MODEL 1
REMARK VINA RESULT:     -10.3      0.000      0.000
REMARK  Name = 25271556
REMARK  1 active torsions:
REMARK  status: ('A' for Active; 'I' for Inactive)
REMARK    1  A    between atoms: C_6  and  C_18
REMARK                            x       y       z     vdW  Elec       q    Type
REMARK                         _______ _______ _______ _____ _____    ______ ____
ROOT
ATOM      1  N   UNL     1      35.821 -22.782 -17.007  0.00  0.00    -0.332 NA
ATOM      2  N   UNL     1      33.439 -23.077 -16.805  0.00  0.00    -0.313 NA
ATOM      3  N   UNL     1      31.951 -22.005 -18.227  0.00  0.00    -0.332 N 
ATOM      4  N   UNL     1      34.913 -24.174 -15.352  0.00  0.00    -0.283 N 
ATOM      5  C   UNL     1      34.172 -20.765 -19.606  0.00  0.00    -0.016 C 
ATOM      6  C   UNL     1      35.277 -20.197 -20.233  0.00  0.00    -0.008 C 
ATOM      7  C   UNL     1      34.352 -21.637 -18.518  0.00  0.00    +0.067 C 
ATOM      8  C   UNL     1      35.637 -21.949 -18.047  0.00  0.00    +0.130 C 
ATOM      9  C   UNL     1      36.554 -20.498 -19.775  0.00  0.00    -0.019 C 
ATOM     10  C   UNL     1      36.725 -21.366 -18.692  0.00  0.00    +0.086 C 
ATOM     11  C   UNL     1      32.823 -20.397 -20.151  0.00  0.00    +0.031 C 
ATOM     12  C   UNL     1      33.291 -22.239 -17.849  0.00  0.00    +0.193 C 
ATOM     13  C   UNL     1      34.712 -23.300 -16.443  0.00  0.00    +0.197 C 
ATOM     14  H   UNL     1      31.216 -22.441 -17.738  0.00  0.00    +0.145 HD
ATOM     15  H   UNL     1      31.750 -21.403 -18.981  0.00  0.00    +0.145 HD
ATOM     16  H   UNL     1      35.825 -24.374 -15.042  0.00  0.00    +0.156 HD
ATOM     17  H   UNL     1      34.140 -24.582 -14.899  0.00  0.00    +0.156 HD
ENDROOT
BRANCH   6  18
ATOM     18  C   UNL     1      35.139 -19.292 -21.357  0.00  0.00    -0.001 C 
ATOM     19  C   UNL     1      34.690 -19.772 -22.587  0.00  0.00    -0.000 C 
ATOM     20  C   UNL     1      35.457 -17.942 -21.210  0.00  0.00    -0.000 C 
ATOM     21  C   UNL     1      34.557 -18.902 -23.670  0.00  0.00    -0.000 C 
ATOM     22  C   UNL     1      35.324 -17.071 -22.292  0.00  0.00    -0.000 C 
ATOM     23  C   UNL     1      34.874 -17.552 -23.522  0.00  0.00    -0.000 C 
ENDBRANCH   6  18
TORSDOF 1
ENDMDL
MODEL 2
REMARK VINA RESULT:      -9.7      5.292      7.516
REMARK  Name = 25271556
REMARK  1 active torsions:
REMARK  status: ('A' for Active; 'I' for Inactive)
REMARK    1  A    between atoms: C_6  and  C_18
REMARK                            x       y       z     vdW  Elec       q    Type
REMARK                         _______ _______ _______ _____ _____    ______ ____
ROOT
ATOM      1  N   UNL     1      35.447 -17.151 -20.620  0.00  0.00    -0.332 NA
ATOM      2  N   UNL     1      35.472 -18.021 -22.867  0.00  0.00    -0.313 NA
ATOM      3  N   UNL     1      34.652 -16.796 -24.659  0.00  0.00    -0.332 N 
ATOM      4  N   UNL     1      36.308 -19.284 -21.079  0.00  0.00    -0.283 N 
ATOM      5  C   UNL     1      33.986 -14.627 -22.864  0.00  0.00    -0.016 C 
ATOM      6  C   UNL     1      33.688 -13.615 -21.956  0.00  0.00    -0.008 C 
ATOM      7  C   UNL     1      34.580 -15.821 -22.417  0.00  0.00    +0.067 C 
ATOM      8  C   UNL     1      34.880 -16.014 -21.059  0.00  0.00    +0.130 C 
ATOM      9  C   UNL     1      33.980 -13.795 -20.609  0.00  0.00    -0.019 C 
ATOM     10  C   UNL     1      34.569 -14.985 -20.172  0.00  0.00    +0.086 C 
ATOM     11  C   UNL     1      33.644 -14.367 -24.302  0.00  0.00    +0.031 C 
ATOM     12  C   UNL     1      34.904 -16.869 -23.272  0.00  0.00    +0.193 C 
ATOM     13  C   UNL     1      35.712 -18.093 -21.548  0.00  0.00    +0.197 C 
ATOM     14  H   UNL     1      34.889 -17.551 -25.244  0.00  0.00    +0.145 HD
ATOM     15  H   UNL     1      34.236 -15.989 -25.042  0.00  0.00    +0.145 HD
ATOM     16  H   UNL     1      36.506 -19.393 -20.122  0.00  0.00    +0.156 HD
ATOM     17  H   UNL     1      36.524 -20.008 -21.711  0.00  0.00    +0.156 HD
ENDROOT
BRANCH   6  18
ATOM     18  C   UNL     1      33.076 -12.368 -22.372  0.00  0.00    -0.001 C 
ATOM     19  C   UNL     1      31.815 -12.016 -21.891  0.00  0.00    -0.000 C 
ATOM     20  C   UNL     1      33.749 -11.521 -23.252  0.00  0.00    -0.000 C 
ATOM     21  C   UNL     1      31.226 -10.816 -22.291  0.00  0.00    -0.000 C 
ATOM     22  C   UNL     1      33.160 -10.320 -23.651  0.00  0.00    -0.000 C 
ATOM     23  C   UNL     1      31.899  -9.968 -23.171  0.00  0.00    -0.000 C 
ENDBRANCH   6  18
TORSDOF 1
ENDMDL
MODEL 3
REMARK VINA RESULT:      -9.6      5.223      7.739
REMARK  Name = 25271556
REMARK  1 active torsions:
REMARK  status: ('A' for Active; 'I' for Inactive)
REMARK    1  A    between atoms: C_6  and  C_18
REMARK                            x       y       z     vdW  Elec       q    Type
REMARK                         _______ _______ _______ _____ _____    ______ ____
ROOT
ATOM      1  N   UNL     1      29.741 -23.626 -14.454  0.00  0.00    -0.332 NA
ATOM      2  N   UNL     1      29.989 -22.568 -16.605  0.00  0.00    -0.313 NA
ATOM      3  N   UNL     1      32.071 -22.274 -17.588  0.00  0.00    -0.332 N 
ATOM      4  N   UNL     1      27.873 -22.848 -15.640  0.00  0.00    -0.283 N 
ATOM      5  C   UNL     1      33.320 -23.543 -15.307  0.00  0.00    -0.016 C 
ATOM      6  C   UNL     1      33.867 -24.161 -14.187  0.00  0.00    -0.008 C 
ATOM      7  C   UNL     1      31.929 -23.361 -15.401  0.00  0.00    +0.067 C 
ATOM      8  C   UNL     1      31.073 -23.795 -14.376  0.00  0.00    +0.130 C 
ATOM      9  C   UNL     1      33.030 -24.594 -13.165  0.00  0.00    -0.019 C 
ATOM     10  C   UNL     1      31.648 -24.409 -13.266  0.00  0.00    +0.086 C 
ATOM     11  C   UNL     1      34.281 -23.100 -16.371  0.00  0.00    +0.031 C 
ATOM     12  C   UNL     1      31.319 -22.753 -16.493  0.00  0.00    +0.193 C 
ATOM     13  C   UNL     1      29.272 -23.022 -15.565  0.00  0.00    +0.197 C 
ATOM     14  H   UNL     1      31.617 -21.846 -18.349  0.00  0.00    +0.145 HD
ATOM     15  H   UNL     1      33.052 -22.367 -17.589  0.00  0.00    +0.145 HD
ATOM     16  H   UNL     1      27.297 -23.161 -14.906  0.00  0.00    +0.156 HD
ATOM     17  H   UNL     1      27.473 -22.412 -16.428  0.00  0.00    +0.156 HD
ENDROOT
BRANCH   6  18
ATOM     18  C   UNL     1      35.295 -24.369 -14.047  0.00  0.00    -0.001 C 
ATOM     19  C   UNL     1      35.890 -25.508 -14.590  0.00  0.00    -0.000 C 
ATOM     20  C   UNL     1      36.074 -23.431 -13.369  0.00  0.00    -0.000 C 
ATOM     21  C   UNL     1      37.264 -25.708 -14.456  0.00  0.00    -0.000 C 
ATOM     22  C   UNL     1      37.449 -23.632 -13.236  0.00  0.00    -0.000 C 
ATOM     23  C   UNL     1      38.044 -24.770 -13.779  0.00  0.00    -0.000 C 
ENDBRANCH   6  18
TORSDOF 1
ENDMDL
MODEL 4
REMARK VINA RESULT:      -9.5      3.341      7.363
REMARK  Name = 25271556
REMARK  1 active torsions:
REMARK  status: ('A' for Active; 'I' for Inactive)
REMARK    1  A    between atoms: C_6  and  C_18
REMARK                            x       y       z     vdW  Elec       q    Type
REMARK                         _______ _______ _______ _____ _____    ______ ____
ROOT
ATOM      1  N   UNL     1      34.759 -21.530 -18.667  0.00  0.00    -0.332 NA
ATOM      2  N   UNL     1      32.602 -22.409 -18.051  0.00  0.00    -0.313 NA
ATOM      3  N   UNL     1      32.298 -23.652 -16.115  0.00  0.00    -0.332 N 
ATOM      4  N   UNL     1      32.875 -21.160 -20.014  0.00  0.00    -0.283 N 
ATOM      5  C   UNL     1      35.109 -23.364 -15.497  0.00  0.00    -0.016 C 
ATOM      6  C   UNL     1      36.469 -23.194 -15.248  0.00  0.00    -0.008 C 
ATOM      7  C   UNL     1      34.530 -22.805 -16.649  0.00  0.00    +0.067 C 
ATOM      8  C   UNL     1      35.303 -22.070 -17.562  0.00  0.00    +0.130 C 
ATOM      9  C   UNL     1      37.244 -22.469 -16.146  0.00  0.00    -0.019 C 
ATOM     10  C   UNL     1      36.660 -21.916 -17.289  0.00  0.00    +0.086 C 
ATOM     11  C   UNL     1      34.333 -24.158 -14.487  0.00  0.00    +0.031 C 
ATOM     12  C   UNL     1      33.179 -22.937 -16.955  0.00  0.00    +0.193 C 
ATOM     13  C   UNL     1      33.439 -21.730 -18.852  0.00  0.00    +0.197 C 
ATOM     14  H   UNL     1      31.346 -23.733 -16.353  0.00  0.00    +0.145 HD
ATOM     15  H   UNL     1      32.636 -24.072 -15.290  0.00  0.00    +0.145 HD
ATOM     16  H   UNL     1      33.441 -20.650 -20.638  0.00  0.00    +0.156 HD
ATOM     17  H   UNL     1      31.915 -21.272 -20.202  0.00  0.00    +0.156 HD
ENDROOT
BRANCH   6  18
ATOM     18  C   UNL     1      37.109 -23.754 -14.074  0.00  0.00    -0.001 C 
ATOM     19  C   UNL     1      36.988 -23.112 -12.841  0.00  0.00    -0.000 C 
ATOM     20  C   UNL     1      37.846 -24.934 -14.176  0.00  0.00    -0.000 C 
ATOM     21  C   UNL     1      37.605 -23.650 -11.711  0.00  0.00    -0.000 C 
ATOM     22  C   UNL     1      38.461 -25.472 -13.046  0.00  0.00    -0.000 C 
ATOM     23  C   UNL     1      38.341 -24.830 -11.813  0.00  0.00    -0.000 C 
ENDBRANCH   6  18
TORSDOF 1
ENDMDL
MODEL 5
REMARK VINA RESULT:      -9.4      0.771      2.548
REMARK  Name = 25271556
REMARK  1 active torsions:
REMARK  status: ('A' for Active; 'I' for Inactive)
REMARK    1  A    between atoms: C_6  and  C_18
REMARK                            x       y       z     vdW  Elec       q    Type
REMARK                         _______ _______ _______ _____ _____    ______ ____
ROOT
ATOM      1  N   UNL     1      33.115 -22.777 -17.327  0.00  0.00    -0.332 NA
ATOM      2  N   UNL     1      35.411 -23.014 -16.635  0.00  0.00    -0.313 NA
ATOM      3  N   UNL     1      37.133 -21.889 -17.711  0.00  0.00    -0.332 N 
ATOM      4  N   UNL     1      33.697 -24.165 -15.528  0.00  0.00    -0.283 N 
ATOM      5  C   UNL     1      35.214 -20.690 -19.513  0.00  0.00    -0.016 C 
ATOM      6  C   UNL     1      34.249 -20.141 -20.352  0.00  0.00    -0.008 C 
ATOM      7  C   UNL     1      34.836 -21.579 -18.492  0.00  0.00    +0.067 C 
ATOM      8  C   UNL     1      33.489 -21.927 -18.300  0.00  0.00    +0.130 C 
ATOM      9  C   UNL     1      32.912 -20.479 -20.172  0.00  0.00    -0.019 C 
ATOM     10  C   UNL     1      32.544 -21.365 -19.155  0.00  0.00    +0.086 C 
ATOM     11  C   UNL     1      36.637 -20.282 -19.764  0.00  0.00    +0.031 C 
ATOM     12  C   UNL     1      35.750 -22.160 -17.620  0.00  0.00    +0.193 C 
ATOM     13  C   UNL     1      34.097 -23.274 -16.548  0.00  0.00    +0.197 C 
ATOM     14  H   UNL     1      37.761 -22.313 -17.083  0.00  0.00    +0.145 HD
ATOM     15  H   UNL     1      37.470 -21.276 -18.404  0.00  0.00    +0.145 HD
ATOM     16  H   UNL     1      32.746 -24.392 -15.417  0.00  0.00    +0.156 HD
ATOM     17  H   UNL     1      34.370 -24.560 -14.927  0.00  0.00    +0.156 HD
ENDROOT
BRANCH   6  18
ATOM     18  C   UNL     1      34.593 -19.221 -21.418  0.00  0.00    -0.001 C 
ATOM     19  C   UNL     1      35.097 -17.956 -21.112  0.00  0.00    -0.000 C 
ATOM     20  C   UNL     1      34.420 -19.599 -22.750  0.00  0.00    -0.000 C 
ATOM     21  C   UNL     1      35.428 -17.071 -22.138  0.00  0.00    -0.000 C 
ATOM     22  C   UNL     1      34.752 -18.713 -23.776  0.00  0.00    -0.000 C 
ATOM     23  C   UNL     1      35.256 -17.449 -23.470  0.00  0.00    -0.000 C 
ENDBRANCH   6  18
TORSDOF 1
ENDMDL
MODEL 6
REMARK VINA RESULT:      -9.4      4.949      7.649
REMARK  Name = 25271556
REMARK  1 active torsions:
REMARK  status: ('A' for Active; 'I' for Inactive)
REMARK    1  A    between atoms: C_6  and  C_18
REMARK                            x       y       z     vdW  Elec       q    Type
REMARK                         _______ _______ _______ _____ _____    ______ ____
ROOT
ATOM      1  N   UNL     1      33.632 -16.083 -25.392  0.00  0.00    -0.332 NA
ATOM      2  N   UNL     1      33.780 -14.099 -24.033  0.00  0.00    -0.313 NA
ATOM      3  N   UNL     1      34.508 -14.179 -21.830  0.00  0.00    -0.332 N 
ATOM      4  N   UNL     1      33.040 -13.983 -26.253  0.00  0.00    -0.283 N 
ATOM      5  C   UNL     1      34.859 -17.042 -22.057  0.00  0.00    -0.016 C 
ATOM      6  C   UNL     1      35.010 -18.416 -22.222  0.00  0.00    -0.008 C 
ATOM      7  C   UNL     1      34.395 -16.252 -23.124  0.00  0.00    +0.067 C 
ATOM      8  C   UNL     1      34.077 -16.828 -24.364  0.00  0.00    +0.130 C 
ATOM      9  C   UNL     1      34.698 -18.997 -23.446  0.00  0.00    -0.019 C 
ATOM     10  C   UNL     1      34.237 -18.205 -24.502  0.00  0.00    +0.086 C 
ATOM     11  C   UNL     1      35.213 -16.481 -20.711  0.00  0.00    +0.031 C 
ATOM     12  C   UNL     1      34.223 -14.875 -23.025  0.00  0.00    +0.193 C 
ATOM     13  C   UNL     1      33.508 -14.759 -25.170  0.00  0.00    +0.197 C 
ATOM     14  H   UNL     1      34.378 -13.205 -21.784  0.00  0.00    +0.145 HD
ATOM     15  H   UNL     1      34.836 -14.670 -21.041  0.00  0.00    +0.145 HD
ATOM     16  H   UNL     1      32.825 -14.414 -27.111  0.00  0.00    +0.156 HD
ATOM     17  H   UNL     1      32.929 -13.010 -26.149  0.00  0.00    +0.156 HD
ENDROOT
BRANCH   6  18
ATOM     18  C   UNL     1      35.485 -19.269 -21.151  0.00  0.00    -0.001 C 
ATOM     19  C   UNL     1      34.614 -20.170 -20.539  0.00  0.00    -0.000 C 
ATOM     20  C   UNL     1      36.813 -19.189 -20.732  0.00  0.00    -0.000 C 
ATOM     21  C   UNL     1      35.071 -20.991 -19.507  0.00  0.00    -0.000 C 
ATOM     22  C   UNL     1      37.271 -20.011 -19.701  0.00  0.00    -0.000 C 
ATOM     23  C   UNL     1      36.400 -20.912 -19.089  0.00  0.00    -0.000 C 
ENDBRANCH   6  18
TORSDOF 1
ENDMDL
MODEL 7
REMARK VINA RESULT:      -9.3      5.329      7.751
REMARK  Name = 25271556
REMARK  1 active torsions:
REMARK  status: ('A' for Active; 'I' for Inactive)
REMARK    1  A    between atoms: C_6  and  C_18
REMARK                            x       y       z     vdW  Elec       q    Type
REMARK                         _______ _______ _______ _____ _____    ______ ____
ROOT
ATOM      1  N   UNL     1      30.178 -22.670 -16.696  0.00  0.00    -0.332 NA
ATOM      2  N   UNL     1      29.037 -23.679 -14.829  0.00  0.00    -0.313 NA
ATOM      3  N   UNL     1      30.196 -24.715 -13.105  0.00  0.00    -0.332 N 
ATOM      4  N   UNL     1      27.837 -22.642 -16.552  0.00  0.00    -0.283 N 
ATOM      5  C   UNL     1      32.696 -24.086 -14.417  0.00  0.00    -0.016 C 
ATOM      6  C   UNL     1      33.869 -23.757 -15.091  0.00  0.00    -0.008 C 
ATOM      7  C   UNL     1      31.450 -23.721 -14.955  0.00  0.00    +0.067 C 
ATOM      8  C   UNL     1      31.365 -23.024 -16.171  0.00  0.00    +0.130 C 
ATOM      9  C   UNL     1      33.797 -23.067 -16.296  0.00  0.00    -0.019 C 
ATOM     10  C   UNL     1      32.553 -22.709 -16.825  0.00  0.00    +0.086 C 
ATOM     11  C   UNL     1      32.848 -24.830 -13.122  0.00  0.00    +0.031 C 
ATOM     12  C   UNL     1      30.242 -24.018 -14.332  0.00  0.00    +0.193 C 
ATOM     13  C   UNL     1      29.079 -23.017 -15.996  0.00  0.00    +0.197 C 
ATOM     14  H   UNL     1      29.329 -24.915 -12.684  0.00  0.00    +0.145 HD
ATOM     15  H   UNL     1      31.032 -25.003 -12.671  0.00  0.00    +0.145 HD
ATOM     16  H   UNL     1      27.807 -22.155 -17.407  0.00  0.00    +0.156 HD
ATOM     17  H   UNL     1      26.999 -22.869 -16.086  0.00  0.00    +0.156 HD
ENDROOT
BRANCH   6  18
ATOM     18  C   UNL     1      35.176 -24.113 -14.574  0.00  0.00    -0.001 C 
ATOM     19  C   UNL     1      35.912 -23.183 -13.838  0.00  0.00    -0.000 C 
ATOM     20  C   UNL     1      35.698 -25.384 -14.811  0.00  0.00    -0.000 C 
ATOM     21  C   UNL     1      37.169 -23.526 -13.341  0.00  0.00    -0.000 C 
ATOM     22  C   UNL     1      36.955 -25.727 -14.313  0.00  0.00    -0.000 C 
ATOM     23  C   UNL     1      37.691 -24.798 -13.578  0.00  0.00    -0.000 C 
ENDBRANCH   6  18
TORSDOF 1
ENDMDL
MODEL 8
REMARK VINA RESULT:      -9.2      3.386      7.839
REMARK  Name = 25271556
REMARK  1 active torsions:
REMARK  status: ('A' for Active; 'I' for Inactive)
REMARK    1  A    between atoms: C_6  and  C_18
REMARK                            x       y       z     vdW  Elec       q    Type
REMARK                         _______ _______ _______ _____ _____    ______ ____
ROOT
ATOM      1  N   UNL     1      32.802 -22.478 -17.895  0.00  0.00    -0.332 NA
ATOM      2  N   UNL     1      34.716 -21.519 -19.001  0.00  0.00    -0.313 NA
ATOM      3  N   UNL     1      36.837 -21.605 -18.063  0.00  0.00    -0.332 N 
ATOM      4  N   UNL     1      32.588 -21.414 -19.975  0.00  0.00    -0.283 N 
ATOM      5  C   UNL     1      35.765 -23.025 -15.782  0.00  0.00    -0.016 C 
ATOM      6  C   UNL     1      35.195 -23.706 -14.709  0.00  0.00    -0.008 C 
ATOM      7  C   UNL     1      34.960 -22.610 -16.858  0.00  0.00    +0.067 C 
ATOM      8  C   UNL     1      33.581 -22.871 -16.871  0.00  0.00    +0.130 C 
ATOM      9  C   UNL     1      33.831 -23.970 -14.712  0.00  0.00    -0.019 C 
ATOM     10  C   UNL     1      33.038 -23.552 -15.785  0.00  0.00    +0.086 C 
ATOM     11  C   UNL     1      37.243 -22.774 -15.714  0.00  0.00    +0.031 C 
ATOM     12  C   UNL     1      35.466 -21.927 -17.959  0.00  0.00    +0.193 C 
ATOM     13  C   UNL     1      33.412 -21.823 -18.903  0.00  0.00    +0.197 C 
ATOM     14  H   UNL     1      37.172 -21.121 -18.852  0.00  0.00    +0.145 HD
ATOM     15  H   UNL     1      37.460 -21.865 -17.344  0.00  0.00    +0.145 HD
ATOM     16  H   UNL     1      31.624 -21.610 -19.957  0.00  0.00    +0.156 HD
ATOM     17  H   UNL     1      32.978 -20.932 -20.740  0.00  0.00    +0.156 HD
ENDROOT
BRANCH   6  18
ATOM     18  C   UNL     1      35.985 -24.153 -13.579  0.00  0.00    -0.001 C 
ATOM     19  C   UNL     1      36.141 -23.326 -12.466  0.00  0.00    -0.000 C 
ATOM     20  C   UNL     1      36.590 -25.410 -13.604  0.00  0.00    -0.000 C 
ATOM     21  C   UNL     1      36.902 -23.756 -11.379  0.00  0.00    -0.000 C 
ATOM     22  C   UNL     1      37.349 -25.841 -12.515  0.00  0.00    -0.000 C 
ATOM     23  C   UNL     1      37.505 -25.014 -11.403  0.00  0.00    -0.000 C 
ENDBRANCH   6  18
TORSDOF 1
ENDMDL
MODEL 9
REMARK VINA RESULT:      -9.1      5.676      8.195
REMARK  Name = 25271556
REMARK  1 active torsions:
REMARK  status: ('A' for Active; 'I' for Inactive)
REMARK    1  A    between atoms: C_6  and  C_18
REMARK                            x       y       z     vdW  Elec       q    Type
REMARK                         _______ _______ _______ _____ _____    ______ ____
ROOT
ATOM      1  N   UNL     1      34.874 -17.077 -23.736  0.00  0.00    -0.332 NA
ATOM      2  N   UNL     1      35.357 -17.255 -21.382  0.00  0.00    -0.313 NA
ATOM      3  N   UNL     1      34.872 -15.533 -19.902  0.00  0.00    -0.332 N 
ATOM      4  N   UNL     1      35.859 -19.012 -22.847  0.00  0.00    -0.283 N 
ATOM      5  C   UNL     1      33.819 -13.960 -22.089  0.00  0.00    -0.016 C 
ATOM      6  C   UNL     1      33.324 -13.247 -23.178  0.00  0.00    -0.008 C 
ATOM      7  C   UNL     1      34.342 -15.252 -22.274  0.00  0.00    +0.067 C 
ATOM      8  C   UNL     1      34.375 -15.842 -23.547  0.00  0.00    +0.130 C 
ATOM      9  C   UNL     1      33.352 -13.822 -24.443  0.00  0.00    -0.019 C 
ATOM     10  C   UNL     1      33.875 -15.107 -24.618  0.00  0.00    +0.086 C 
ATOM     11  C   UNL     1      33.757 -13.280 -20.753  0.00  0.00    +0.031 C 
ATOM     12  C   UNL     1      34.850 -16.016 -21.229  0.00  0.00    +0.193 C 
ATOM     13  C   UNL     1      35.337 -17.716 -22.642  0.00  0.00    +0.197 C 
ATOM     14  H   UNL     1      35.238 -16.093 -19.180  0.00  0.00    +0.145 HD
ATOM     15  H   UNL     1      34.522 -14.635 -19.700  0.00  0.00    +0.145 HD
ATOM     16  H   UNL     1      35.871 -19.401 -23.751  0.00  0.00    +0.156 HD
ATOM     17  H   UNL     1      36.212 -19.527 -22.086  0.00  0.00    +0.156 HD
ENDROOT
BRANCH   6  18
ATOM     18  C   UNL     1      32.775 -11.913 -23.035  0.00  0.00    -0.001 C 
ATOM     19  C   UNL     1      33.426 -10.825 -23.617  0.00  0.00    -0.000 C 
ATOM     20  C   UNL     1      31.596 -11.717 -22.316  0.00  0.00    -0.000 C 
ATOM     21  C   UNL     1      32.898  -9.541 -23.480  0.00  0.00    -0.000 C 
ATOM     22  C   UNL     1      31.067 -10.433 -22.180  0.00  0.00    -0.000 C 
ATOM     23  C   UNL     1      31.718  -9.345 -22.761  0.00  0.00    -0.000 C 
ENDBRANCH   6  18
TORSDOF 1
ENDMDL
