MODEL 1
REMARK VINA RESULT:     -13.3      0.000      0.000
REMARK  Name = 16741238
REMARK  6 active torsions:
REMARK  status: ('A' for Active; 'I' for Inactive)
REMARK    1  A    between atoms: N_1  and  C_22
REMARK    2  A    between atoms: C_10  and  C_15
REMARK    3  A    between atoms: C_15  and  C_16
REMARK    4  A    between atoms: C_22  and  C_23
REMARK    5  A    between atoms: C_23  and  C_26
REMARK    6  A    between atoms: N_25  and  C_28
REMARK                            x       y       z     vdW  Elec       q    Type
REMARK                         _______ _______ _______ _____ _____    ______ ____
ROOT
ATOM      1  N   UNL     1      33.917 -14.088 -24.078  0.00  0.00    -0.249 N 
ATOM      2  N   UNL     1      33.574 -16.180 -25.214  0.00  0.00    -0.373 NA
ATOM      3  N   UNL     1      32.824 -14.208 -26.163  0.00  0.00    -0.321 N 
ATOM      4  C   UNL     1      34.604 -14.688 -22.933  0.00  0.00    +0.071 C 
ATOM      5  C   UNL     1      34.725 -16.182 -23.045  0.00  0.00    +0.045 C 
ATOM      6  C   UNL     1      33.453 -14.877 -25.135  0.00  0.00    +0.239 C 
ATOM      7  C   UNL     1      34.214 -16.856 -24.163  0.00  0.00    +0.136 C 
ATOM      8  C   UNL     1      35.356 -16.906 -22.024  0.00  0.00    +0.007 C 
ATOM      9  C   UNL     1      34.343 -18.248 -24.242  0.00  0.00    +0.032 C 
ATOM     10  C   UNL     1      35.478 -18.293 -22.112  0.00  0.00    +0.039 C 
ATOM     11  C   UNL     1      34.971 -18.964 -23.222  0.00  0.00    +0.006 C 
ATOM     12  H   UNL     1      32.724 -13.229 -26.124  0.00  0.00    +0.146 HD
ATOM     13  H   UNL     1      32.476 -14.709 -26.936  0.00  0.00    +0.146 HD
ENDROOT
BRANCH  10  15
ATOM     14  O   UNL     1      37.320 -18.813 -20.768  0.00  0.00    -0.287 OA
ATOM     15  C   UNL     1      36.133 -19.036 -21.048  0.00  0.00    +0.196 C 
BRANCH  15  16
ATOM     16  C   UNL     1      35.425 -20.083 -20.251  0.00  0.00    +0.039 C 
ATOM     17  C   UNL     1      34.032 -20.142 -20.255  0.00  0.00    +0.003 C 
ATOM     18  C   UNL     1      36.159 -21.004 -19.502  0.00  0.00    +0.003 C 
ATOM     19  C   UNL     1      33.372 -21.120 -19.512  0.00  0.00    +0.000 C 
ATOM     20  C   UNL     1      35.500 -21.982 -18.759  0.00  0.00    +0.000 C 
ATOM     21  C   UNL     1      34.106 -22.040 -18.763  0.00  0.00    +0.000 C 
ENDBRANCH  15  16
ENDBRANCH  10  15
BRANCH   1  22
ATOM     22  C   UNL     1      33.767 -12.638 -24.020  0.00  0.00    +0.109 C 
BRANCH  22  23
ATOM     23  C   UNL     1      32.837 -12.243 -22.875  0.00  0.00    +0.107 C 
BRANCH  23  26
ATOM     24  O   UNL     1      33.432  -9.957 -23.311  0.00  0.00    -0.275 OA
ATOM     25  N   UNL     1      31.733 -10.311 -21.774  0.00  0.00    -0.279 N 
ATOM     26  C   UNL     1      32.707 -10.735 -22.684  0.00  0.00    +0.227 C 
ATOM     27  C   UNL     1      30.885 -11.249 -21.041  0.00  0.00    +0.115 C 
BRANCH  25  28
ATOM     28  C   UNL     1      31.493  -8.917 -21.490  0.00  0.00    +0.075 C 
ATOM     29  C   UNL     1      31.138  -8.162 -22.773  0.00  0.00    +0.020 C 
ATOM     30  C   UNL     1      32.702  -8.290 -20.791  0.00  0.00    +0.020 C 
ATOM     31  C   UNL     1      30.931  -6.672 -22.512  0.00  0.00    +0.002 C 
ATOM     32  C   UNL     1      32.491  -6.800 -20.530  0.00  0.00    +0.002 C 
ATOM     33  C   UNL     1      32.135  -6.051 -21.811  0.00  0.00    +0.000 C 
ENDBRANCH  25  28
ENDBRANCH  23  26
ENDBRANCH  22  23
ENDBRANCH   1  22
TORSDOF 6
ENDMDL
MODEL 2
REMARK VINA RESULT:     -13.2      0.895      1.477
REMARK  Name = 16741238
REMARK  6 active torsions:
REMARK  status: ('A' for Active; 'I' for Inactive)
REMARK    1  A    between atoms: N_1  and  C_22
REMARK    2  A    between atoms: C_10  and  C_15
REMARK    3  A    between atoms: C_15  and  C_16
REMARK    4  A    between atoms: C_22  and  C_23
REMARK    5  A    between atoms: C_23  and  C_26
REMARK    6  A    between atoms: N_25  and  C_28
REMARK                            x       y       z     vdW  Elec       q    Type
REMARK                         _______ _______ _______ _____ _____    ______ ____
ROOT
ATOM      1  N   UNL     1      33.868 -14.153 -24.117  0.00  0.00    -0.249 N 
ATOM      2  N   UNL     1      33.593 -16.260 -25.243  0.00  0.00    -0.373 NA
ATOM      3  N   UNL     1      32.788 -14.317 -26.206  0.00  0.00    -0.321 N 
ATOM      4  C   UNL     1      34.568 -14.726 -22.966  0.00  0.00    +0.071 C 
ATOM      5  C   UNL     1      34.735 -16.216 -23.070  0.00  0.00    +0.045 C 
ATOM      6  C   UNL     1      33.432 -14.961 -25.172  0.00  0.00    +0.239 C 
ATOM      7  C   UNL     1      34.248 -16.911 -24.186  0.00  0.00    +0.136 C 
ATOM      8  C   UNL     1      35.383 -16.915 -22.042  0.00  0.00    +0.007 C 
ATOM      9  C   UNL     1      34.419 -18.299 -24.256  0.00  0.00    +0.032 C 
ATOM     10  C   UNL     1      35.547 -18.298 -22.121  0.00  0.00    +0.039 C 
ATOM     11  C   UNL     1      35.065 -18.990 -23.229  0.00  0.00    +0.006 C 
ATOM     12  H   UNL     1      32.658 -13.342 -26.173  0.00  0.00    +0.146 HD
ATOM     13  H   UNL     1      32.458 -14.833 -26.977  0.00  0.00    +0.146 HD
ENDROOT
BRANCH  10  15
ATOM     14  O   UNL     1      37.402 -18.765 -20.777  0.00  0.00    -0.287 OA
ATOM     15  C   UNL     1      36.219 -19.015 -21.051  0.00  0.00    +0.196 C 
BRANCH  15  16
ATOM     16  C   UNL     1      35.535 -20.067 -20.239  0.00  0.00    +0.039 C 
ATOM     17  C   UNL     1      36.289 -20.969 -19.489  0.00  0.00    +0.003 C 
ATOM     18  C   UNL     1      34.142 -20.145 -20.230  0.00  0.00    +0.003 C 
ATOM     19  C   UNL     1      35.650 -21.950 -18.731  0.00  0.00    +0.000 C 
ATOM     20  C   UNL     1      33.504 -21.126 -19.472  0.00  0.00    +0.000 C 
ATOM     21  C   UNL     1      34.258 -22.029 -18.723  0.00  0.00    +0.000 C 
ENDBRANCH  15  16
ENDBRANCH  10  15
BRANCH   1  22
ATOM     22  C   UNL     1      33.674 -12.707 -24.068  0.00  0.00    +0.109 C 
BRANCH  22  23
ATOM     23  C   UNL     1      33.365 -12.258 -22.643  0.00  0.00    +0.107 C 
BRANCH  23  26
ATOM     24  O   UNL     1      31.134 -11.481 -22.216  0.00  0.00    -0.275 OA
ATOM     25  N   UNL     1      32.677  -9.886 -22.887  0.00  0.00    -0.279 N 
ATOM     26  C   UNL     1      32.282 -11.187 -22.559  0.00  0.00    +0.227 C 
ATOM     27  C   UNL     1      34.043  -9.559 -23.290  0.00  0.00    +0.115 C 
BRANCH  25  28
ATOM     28  C   UNL     1      31.764  -8.768 -22.851  0.00  0.00    +0.075 C 
ATOM     29  C   UNL     1      31.711  -8.076 -24.215  0.00  0.00    +0.020 C 
ATOM     30  C   UNL     1      32.153  -7.786 -21.742  0.00  0.00    +0.020 C 
ATOM     31  C   UNL     1      30.793  -6.856 -24.193  0.00  0.00    +0.002 C 
ATOM     32  C   UNL     1      31.233  -6.568 -21.723  0.00  0.00    +0.002 C 
ATOM     33  C   UNL     1      31.180  -5.881 -23.084  0.00  0.00    +0.000 C 
ENDBRANCH  25  28
ENDBRANCH  23  26
ENDBRANCH  22  23
ENDBRANCH   1  22
TORSDOF 6
ENDMDL
MODEL 3
REMARK VINA RESULT:     -12.4      1.353      2.045
REMARK  Name = 16741238
REMARK  6 active torsions:
REMARK  status: ('A' for Active; 'I' for Inactive)
REMARK    1  A    between atoms: N_1  and  C_22
REMARK    2  A    between atoms: C_10  and  C_15
REMARK    3  A    between atoms: C_15  and  C_16
REMARK    4  A    between atoms: C_22  and  C_23
REMARK    5  A    between atoms: C_23  and  C_26
REMARK    6  A    between atoms: N_25  and  C_28
REMARK                            x       y       z     vdW  Elec       q    Type
REMARK                         _______ _______ _______ _____ _____    ______ ____
ROOT
ATOM      1  N   UNL     1      34.169 -14.557 -23.705  0.00  0.00    -0.249 N 
ATOM      2  N   UNL     1      34.024 -16.633 -24.911  0.00  0.00    -0.373 NA
ATOM      3  N   UNL     1      33.291 -14.669 -25.889  0.00  0.00    -0.321 N 
ATOM      4  C   UNL     1      34.765 -15.157 -22.510  0.00  0.00    +0.071 C 
ATOM      5  C   UNL     1      34.957 -16.642 -22.639  0.00  0.00    +0.045 C 
ATOM      6  C   UNL     1      33.843 -15.338 -24.819  0.00  0.00    +0.239 C 
ATOM      7  C   UNL     1      34.585 -17.308 -23.815  0.00  0.00    +0.136 C 
ATOM      8  C   UNL     1      35.513 -17.366 -21.575  0.00  0.00    +0.007 C 
ATOM      9  C   UNL     1      34.777 -18.693 -23.908  0.00  0.00    +0.032 C 
ATOM     10  C   UNL     1      35.699 -18.744 -21.678  0.00  0.00    +0.039 C 
ATOM     11  C   UNL     1      35.331 -19.408 -22.846  0.00  0.00    +0.006 C 
ATOM     12  H   UNL     1      33.148 -13.696 -25.842  0.00  0.00    +0.146 HD
ATOM     13  H   UNL     1      33.041 -15.165 -26.702  0.00  0.00    +0.146 HD
ENDROOT
BRANCH  10  15
ATOM     14  O   UNL     1      37.459 -19.305 -20.243  0.00  0.00    -0.287 OA
ATOM     15  C   UNL     1      36.276 -19.486 -20.570  0.00  0.00    +0.196 C 
BRANCH  15  16
ATOM     16  C   UNL     1      35.492 -20.484 -19.780  0.00  0.00    +0.039 C 
ATOM     17  C   UNL     1      36.145 -21.344 -18.898  0.00  0.00    +0.003 C 
ATOM     18  C   UNL     1      34.106 -20.553 -19.923  0.00  0.00    +0.003 C 
ATOM     19  C   UNL     1      35.414 -22.274 -18.160  0.00  0.00    +0.000 C 
ATOM     20  C   UNL     1      33.374 -21.483 -19.186  0.00  0.00    +0.000 C 
ATOM     21  C   UNL     1      34.028 -22.344 -18.304  0.00  0.00    +0.000 C 
ENDBRANCH  15  16
ENDBRANCH  10  15
BRANCH   1  22
ATOM     22  C   UNL     1      33.956 -13.115 -23.633  0.00  0.00    +0.109 C 
BRANCH  22  23
ATOM     23  C   UNL     1      32.465 -12.799 -23.564  0.00  0.00    +0.107 C 
BRANCH  23  26
ATOM     24  O   UNL     1      31.711 -13.080 -21.301  0.00  0.00    -0.275 OA
ATOM     25  N   UNL     1      31.958 -10.899 -22.048  0.00  0.00    -0.279 N 
ATOM     26  C   UNL     1      32.009 -12.289 -22.200  0.00  0.00    +0.227 C 
ATOM     27  C   UNL     1      32.314  -9.979 -23.126  0.00  0.00    +0.115 C 
BRANCH  25  28
ATOM     28  C   UNL     1      31.548 -10.270 -20.816  0.00  0.00    +0.075 C 
ATOM     29  C   UNL     1      32.027  -8.817 -20.770  0.00  0.00    +0.020 C 
ATOM     30  C   UNL     1      32.056 -11.062 -19.608  0.00  0.00    +0.020 C 
ATOM     31  C   UNL     1      31.654  -8.141 -19.453  0.00  0.00    +0.002 C 
ATOM     32  C   UNL     1      31.680 -10.384 -18.292  0.00  0.00    +0.002 C 
ATOM     33  C   UNL     1      32.157  -8.935 -18.251  0.00  0.00    +0.000 C 
ENDBRANCH  25  28
ENDBRANCH  23  26
ENDBRANCH  22  23
ENDBRANCH   1  22
TORSDOF 6
ENDMDL
MODEL 4
REMARK VINA RESULT:     -12.0      6.192     10.890
REMARK  Name = 16741238
REMARK  6 active torsions:
REMARK  status: ('A' for Active; 'I' for Inactive)
REMARK    1  A    between atoms: N_1  and  C_22
REMARK    2  A    between atoms: C_10  and  C_15
REMARK    3  A    between atoms: C_15  and  C_16
REMARK    4  A    between atoms: C_22  and  C_23
REMARK    5  A    between atoms: C_23  and  C_26
REMARK    6  A    between atoms: N_25  and  C_28
REMARK                            x       y       z     vdW  Elec       q    Type
REMARK                         _______ _______ _______ _____ _____    ______ ____
ROOT
ATOM      1  N   UNL     1      36.240 -22.515 -16.406  0.00  0.00    -0.249 N 
ATOM      2  N   UNL     1      36.574 -23.725 -14.355  0.00  0.00    -0.373 NA
ATOM      3  N   UNL     1      38.390 -23.122 -15.655  0.00  0.00    -0.321 N 
ATOM      4  C   UNL     1      34.782 -22.467 -16.277  0.00  0.00    +0.071 C 
ATOM      5  C   UNL     1      34.286 -23.150 -15.034  0.00  0.00    +0.045 C 
ATOM      6  C   UNL     1      37.030 -23.139 -15.435  0.00  0.00    +0.239 C 
ATOM      7  C   UNL     1      35.187 -23.741 -14.138  0.00  0.00    +0.136 C 
ATOM      8  C   UNL     1      32.910 -23.194 -14.768  0.00  0.00    +0.007 C 
ATOM      9  C   UNL     1      34.696 -24.369 -12.986  0.00  0.00    +0.032 C 
ATOM     10  C   UNL     1      32.432 -23.823 -13.619  0.00  0.00    +0.039 C 
ATOM     11  C   UNL     1      33.326 -24.410 -12.727  0.00  0.00    +0.006 C 
ATOM     12  H   UNL     1      38.753 -22.686 -16.460  0.00  0.00    +0.146 HD
ATOM     13  H   UNL     1      38.998 -23.545 -15.006  0.00  0.00    +0.146 HD
ENDROOT
BRANCH  10  15
ATOM     14  O   UNL     1      30.588 -23.999 -12.191  0.00  0.00    -0.287 OA
ATOM     15  C   UNL     1      31.004 -23.865 -13.352  0.00  0.00    +0.196 C 
BRANCH  15  16
ATOM     16  C   UNL     1      29.983 -23.750 -14.437  0.00  0.00    +0.039 C 
ATOM     17  C   UNL     1      29.387 -22.518 -14.707  0.00  0.00    +0.003 C 
ATOM     18  C   UNL     1      29.625 -24.875 -15.181  0.00  0.00    +0.003 C 
ATOM     19  C   UNL     1      28.435 -22.410 -15.720  0.00  0.00    +0.000 C 
ATOM     20  C   UNL     1      28.673 -24.767 -16.194  0.00  0.00    +0.000 C 
ATOM     21  C   UNL     1      28.077 -23.535 -16.463  0.00  0.00    +0.000 C 
ENDBRANCH  15  16
ENDBRANCH  10  15
BRANCH   1  22
ATOM     22  C   UNL     1      36.778 -21.870 -17.600  0.00  0.00    +0.109 C 
BRANCH  22  23
ATOM     23  C   UNL     1      35.649 -21.470 -18.545  0.00  0.00    +0.107 C 
BRANCH  23  26
ATOM     24  O   UNL     1      37.299 -20.347 -19.880  0.00  0.00    -0.275 OA
ATOM     25  N   UNL     1      35.085 -20.042 -20.496  0.00  0.00    -0.279 N 
ATOM     26  C   UNL     1      36.100 -20.572 -19.693  0.00  0.00    +0.227 C 
ATOM     27  C   UNL     1      33.670 -20.321 -20.257  0.00  0.00    +0.115 C 
BRANCH  25  28
ATOM     28  C   UNL     1      35.358 -19.179 -21.620  0.00  0.00    +0.075 C 
ATOM     29  C   UNL     1      35.311 -17.710 -21.192  0.00  0.00    +0.020 C 
ATOM     30  C   UNL     1      34.381 -19.456 -22.766  0.00  0.00    +0.020 C 
ATOM     31  C   UNL     1      35.544 -16.771 -22.373  0.00  0.00    +0.002 C 
ATOM     32  C   UNL     1      34.617 -18.516 -23.946  0.00  0.00    +0.002 C 
ATOM     33  C   UNL     1      34.572 -17.053 -23.515  0.00  0.00    +0.000 C 
ENDBRANCH  25  28
ENDBRANCH  23  26
ENDBRANCH  22  23
ENDBRANCH   1  22
TORSDOF 6
ENDMDL
MODEL 5
REMARK VINA RESULT:     -11.9      3.239      5.683
REMARK  Name = 16741238
REMARK  6 active torsions:
REMARK  status: ('A' for Active; 'I' for Inactive)
REMARK    1  A    between atoms: N_1  and  C_22
REMARK    2  A    between atoms: C_10  and  C_15
REMARK    3  A    between atoms: C_15  and  C_16
REMARK    4  A    between atoms: C_22  and  C_23
REMARK    5  A    between atoms: C_23  and  C_26
REMARK    6  A    between atoms: N_25  and  C_28
REMARK                            x       y       z     vdW  Elec       q    Type
REMARK                         _______ _______ _______ _____ _____    ______ ____
ROOT
ATOM      1  N   UNL     1      35.355 -18.868 -21.659  0.00  0.00    -0.249 N 
ATOM      2  N   UNL     1      37.059 -19.501 -20.084  0.00  0.00    -0.373 NA
ATOM      3  N   UNL     1      37.475 -17.838 -21.637  0.00  0.00    -0.321 N 
ATOM      4  C   UNL     1      34.368 -19.824 -21.154  0.00  0.00    +0.071 C 
ATOM      5  C   UNL     1      34.889 -20.647 -20.009  0.00  0.00    +0.045 C 
ATOM      6  C   UNL     1      36.628 -18.775 -21.087  0.00  0.00    +0.239 C 
ATOM      7  C   UNL     1      36.192 -20.455 -19.528  0.00  0.00    +0.136 C 
ATOM      8  C   UNL     1      34.064 -21.614 -19.417  0.00  0.00    +0.007 C 
ATOM      9  C   UNL     1      36.649 -21.235 -18.459  0.00  0.00    +0.032 C 
ATOM     10  C   UNL     1      34.530 -22.386 -18.353  0.00  0.00    +0.039 C 
ATOM     11  C   UNL     1      35.824 -22.196 -17.874  0.00  0.00    +0.006 C 
ATOM     12  H   UNL     1      37.171 -17.282 -22.390  0.00  0.00    +0.146 HD
ATOM     13  H   UNL     1      38.384 -17.726 -21.277  0.00  0.00    +0.146 HD
ENDROOT
BRANCH  10  15
ATOM     14  O   UNL     1      33.508 -24.488 -18.291  0.00  0.00    -0.287 OA
ATOM     15  C   UNL     1      33.668 -23.386 -17.745  0.00  0.00    +0.196 C 
BRANCH  15  16
ATOM     16  C   UNL     1      32.947 -23.147 -16.459  0.00  0.00    +0.039 C 
ATOM     17  C   UNL     1      31.592 -22.819 -16.469  0.00  0.00    +0.003 C 
ATOM     18  C   UNL     1      33.630 -23.254 -15.246  0.00  0.00    +0.003 C 
ATOM     19  C   UNL     1      30.919 -22.597 -15.268  0.00  0.00    +0.000 C 
ATOM     20  C   UNL     1      32.957 -23.032 -14.045  0.00  0.00    +0.000 C 
ATOM     21  C   UNL     1      31.601 -22.703 -14.056  0.00  0.00    +0.000 C 
ENDBRANCH  15  16
ENDBRANCH  10  15
BRANCH   1  22
ATOM     22  C   UNL     1      34.904 -18.044 -22.775  0.00  0.00    +0.109 C 
BRANCH  22  23
ATOM     23  C   UNL     1      35.393 -16.608 -22.610  0.00  0.00    +0.107 C 
BRANCH  23  26
ATOM     24  O   UNL     1      34.064 -15.681 -24.382  0.00  0.00    -0.275 OA
ATOM     25  N   UNL     1      34.085 -14.509 -22.382  0.00  0.00    -0.279 N 
ATOM     26  C   UNL     1      34.456 -15.568 -23.218  0.00  0.00    +0.227 C 
ATOM     27  C   UNL     1      34.562 -14.394 -21.005  0.00  0.00    +0.115 C 
BRANCH  25  28
ATOM     28  C   UNL     1      33.204 -13.452 -22.816  0.00  0.00    +0.075 C 
ATOM     29  C   UNL     1      34.003 -12.325 -23.474  0.00  0.00    +0.020 C 
ATOM     30  C   UNL     1      32.365 -12.931 -21.646  0.00  0.00    +0.020 C 
ATOM     31  C   UNL     1      33.102 -11.167 -23.896  0.00  0.00    +0.002 C 
ATOM     32  C   UNL     1      31.464 -11.774 -22.071  0.00  0.00    +0.002 C 
ATOM     33  C   UNL     1      32.263 -10.653 -22.729  0.00  0.00    +0.000 C 
ENDBRANCH  25  28
ENDBRANCH  23  26
ENDBRANCH  22  23
ENDBRANCH   1  22
TORSDOF 6
ENDMDL
MODEL 6
REMARK VINA RESULT:     -11.8      2.250     10.218
REMARK  Name = 16741238
REMARK  6 active torsions:
REMARK  status: ('A' for Active; 'I' for Inactive)
REMARK    1  A    between atoms: N_1  and  C_22
REMARK    2  A    between atoms: C_10  and  C_15
REMARK    3  A    between atoms: C_15  and  C_16
REMARK    4  A    between atoms: C_22  and  C_23
REMARK    5  A    between atoms: C_23  and  C_26
REMARK    6  A    between atoms: N_25  and  C_28
REMARK                            x       y       z     vdW  Elec       q    Type
REMARK                         _______ _______ _______ _____ _____    ______ ____
ROOT
ATOM      1  N   UNL     1      35.292 -17.995 -22.644  0.00  0.00    -0.249 N 
ATOM      2  N   UNL     1      34.087 -17.563 -24.680  0.00  0.00    -0.373 NA
ATOM      3  N   UNL     1      34.764 -19.715 -24.167  0.00  0.00    -0.321 N 
ATOM      4  C   UNL     1      35.278 -16.599 -22.202  0.00  0.00    +0.071 C 
ATOM      5  C   UNL     1      34.580 -15.689 -23.173  0.00  0.00    +0.045 C 
ATOM      6  C   UNL     1      34.695 -18.376 -23.850  0.00  0.00    +0.239 C 
ATOM      7  C   UNL     1      34.022 -16.200 -24.353  0.00  0.00    +0.136 C 
ATOM      8  C   UNL     1      34.486 -14.318 -22.895  0.00  0.00    +0.007 C 
ATOM      9  C   UNL     1      33.376 -15.328 -25.239  0.00  0.00    +0.032 C 
ATOM     10  C   UNL     1      33.841 -13.459 -23.784  0.00  0.00    +0.039 C 
ATOM     11  C   UNL     1      33.286 -13.964 -24.957  0.00  0.00    +0.006 C 
ATOM     12  H   UNL     1      35.215 -20.342 -23.556  0.00  0.00    +0.146 HD
ATOM     13  H   UNL     1      34.361 -20.044 -25.003  0.00  0.00    +0.146 HD
ENDROOT
BRANCH  10  15
ATOM     14  O   UNL     1      34.493 -11.230 -24.064  0.00  0.00    -0.287 OA
ATOM     15  C   UNL     1      33.749 -12.039 -23.488  0.00  0.00    +0.196 C 
BRANCH  15  16
ATOM     16  C   UNL     1      32.775 -11.489 -22.498  0.00  0.00    +0.039 C 
ATOM     17  C   UNL     1      32.429 -10.138 -22.535  0.00  0.00    +0.003 C 
ATOM     18  C   UNL     1      32.209 -12.326 -21.536  0.00  0.00    +0.003 C 
ATOM     19  C   UNL     1      31.519  -9.625 -21.612  0.00  0.00    +0.000 C 
ATOM     20  C   UNL     1      31.299 -11.813 -20.613  0.00  0.00    +0.000 C 
ATOM     21  C   UNL     1      30.954 -10.462 -20.650  0.00  0.00    +0.000 C 
ENDBRANCH  15  16
ENDBRANCH  10  15
BRANCH   1  22
ATOM     22  C   UNL     1      35.962 -18.925 -21.740  0.00  0.00    +0.109 C 
BRANCH  22  23
ATOM     23  C   UNL     1      34.938 -19.687 -20.904  0.00  0.00    +0.107 C 
BRANCH  23  26
ATOM     24  O   UNL     1      36.788 -20.688 -19.747  0.00  0.00    -0.275 OA
ATOM     25  N   UNL     1      34.669 -21.350 -19.081  0.00  0.00    -0.279 N 
ATOM     26  C   UNL     1      35.562 -20.614 -19.866  0.00  0.00    +0.227 C 
ATOM     27  C   UNL     1      33.219 -21.248 -19.239  0.00  0.00    +0.115 C 
BRANCH  25  28
ATOM     28  C   UNL     1      35.111 -22.266 -18.057  0.00  0.00    +0.075 C 
ATOM     29  C   UNL     1      33.926 -22.737 -17.211  0.00  0.00    +0.020 C 
ATOM     30  C   UNL     1      36.197 -21.625 -17.189  0.00  0.00    +0.020 C 
ATOM     31  C   UNL     1      34.372 -23.667 -16.085  0.00  0.00    +0.002 C 
ATOM     32  C   UNL     1      36.641 -22.557 -16.064  0.00  0.00    +0.002 C 
ATOM     33  C   UNL     1      35.457 -23.027 -15.223  0.00  0.00    +0.000 C 
ENDBRANCH  25  28
ENDBRANCH  23  26
ENDBRANCH  22  23
ENDBRANCH   1  22
TORSDOF 6
ENDMDL
MODEL 7
REMARK VINA RESULT:     -11.7      4.312      7.754
REMARK  Name = 16741238
REMARK  6 active torsions:
REMARK  status: ('A' for Active; 'I' for Inactive)
REMARK    1  A    between atoms: N_1  and  C_22
REMARK    2  A    between atoms: C_10  and  C_15
REMARK    3  A    between atoms: C_15  and  C_16
REMARK    4  A    between atoms: C_22  and  C_23
REMARK    5  A    between atoms: C_23  and  C_26
REMARK    6  A    between atoms: N_25  and  C_28
REMARK                            x       y       z     vdW  Elec       q    Type
REMARK                         _______ _______ _______ _____ _____    ______ ____
ROOT
ATOM      1  N   UNL     1      34.714 -20.636 -20.114  0.00  0.00    -0.249 N 
ATOM      2  N   UNL     1      33.248 -21.777 -18.585  0.00  0.00    -0.373 NA
ATOM      3  N   UNL     1      32.386 -20.744 -20.466  0.00  0.00    -0.321 N 
ATOM      4  C   UNL     1      35.930 -20.936 -19.355  0.00  0.00    +0.071 C 
ATOM      5  C   UNL     1      35.657 -21.731 -18.110  0.00  0.00    +0.045 C 
ATOM      6  C   UNL     1      33.462 -21.079 -19.674  0.00  0.00    +0.239 C 
ATOM      7  C   UNL     1      34.349 -22.113 -17.781  0.00  0.00    +0.136 C 
ATOM      8  C   UNL     1      36.720 -22.094 -17.271  0.00  0.00    +0.007 C 
ATOM      9  C   UNL     1      34.125 -22.855 -16.614  0.00  0.00    +0.032 C 
ATOM     10  C   UNL     1      36.486 -22.833 -16.111  0.00  0.00    +0.039 C 
ATOM     11  C   UNL     1      35.187 -23.214 -15.783  0.00  0.00    +0.006 C 
ATOM     12  H   UNL     1      32.524 -20.222 -21.289  0.00  0.00    +0.146 HD
ATOM     13  H   UNL     1      31.479 -21.028 -20.209  0.00  0.00    +0.146 HD
ENDROOT
BRANCH  10  15
ATOM     14  O   UNL     1      38.706 -22.675 -15.393  0.00  0.00    -0.287 OA
ATOM     15  C   UNL     1      37.594 -23.204 -15.247  0.00  0.00    +0.196 C 
BRANCH  15  16
ATOM     16  C   UNL     1      37.456 -24.220 -14.160  0.00  0.00    +0.039 C 
ATOM     17  C   UNL     1      37.415 -25.578 -14.475  0.00  0.00    +0.003 C 
ATOM     18  C   UNL     1      37.368 -23.810 -12.829  0.00  0.00    +0.003 C 
ATOM     19  C   UNL     1      37.287 -26.526 -13.460  0.00  0.00    +0.000 C 
ATOM     20  C   UNL     1      37.241 -24.758 -11.814  0.00  0.00    +0.000 C 
ATOM     21  C   UNL     1      37.199 -26.116 -12.130  0.00  0.00    +0.000 C 
ENDBRANCH  15  16
ENDBRANCH  10  15
BRANCH   1  22
ATOM     22  C   UNL     1      34.919 -19.861 -21.333  0.00  0.00    +0.109 C 
BRANCH  22  23
ATOM     23  C   UNL     1      35.402 -18.454 -20.995  0.00  0.00    +0.107 C 
BRANCH  23  26
ATOM     24  O   UNL     1      35.489 -17.850 -23.318  0.00  0.00    -0.275 OA
ATOM     25  N   UNL     1      34.968 -16.155 -21.825  0.00  0.00    -0.279 N 
ATOM     26  C   UNL     1      35.295 -17.473 -22.159  0.00  0.00    +0.227 C 
ATOM     27  C   UNL     1      34.742 -15.729 -20.445  0.00  0.00    +0.115 C 
BRANCH  25  28
ATOM     28  C   UNL     1      34.829 -15.116 -22.818  0.00  0.00    +0.075 C 
ATOM     29  C   UNL     1      34.400 -13.802 -22.162  0.00  0.00    +0.020 C 
ATOM     30  C   UNL     1      33.844 -15.541 -23.911  0.00  0.00    +0.020 C 
ATOM     31  C   UNL     1      34.193 -12.697 -23.196  0.00  0.00    +0.002 C 
ATOM     32  C   UNL     1      33.640 -14.434 -24.944  0.00  0.00    +0.002 C 
ATOM     33  C   UNL     1      33.215 -13.124 -24.287  0.00  0.00    +0.000 C 
ENDBRANCH  25  28
ENDBRANCH  23  26
ENDBRANCH  22  23
ENDBRANCH   1  22
TORSDOF 6
ENDMDL
MODEL 8
REMARK VINA RESULT:     -11.5      5.210      9.511
REMARK  Name = 16741238
REMARK  6 active torsions:
REMARK  status: ('A' for Active; 'I' for Inactive)
REMARK    1  A    between atoms: N_1  and  C_22
REMARK    2  A    between atoms: C_10  and  C_15
REMARK    3  A    between atoms: C_15  and  C_16
REMARK    4  A    between atoms: C_22  and  C_23
REMARK    5  A    between atoms: C_23  and  C_26
REMARK    6  A    between atoms: N_25  and  C_28
REMARK                            x       y       z     vdW  Elec       q    Type
REMARK                         _______ _______ _______ _____ _____    ______ ____
ROOT
ATOM      1  N   UNL     1      34.676 -21.925 -18.808  0.00  0.00    -0.249 N 
ATOM      2  N   UNL     1      32.526 -22.456 -17.870  0.00  0.00    -0.373 NA
ATOM      3  N   UNL     1      32.676 -21.590 -20.010  0.00  0.00    -0.321 N 
ATOM      4  C   UNL     1      35.427 -22.347 -17.624  0.00  0.00    +0.071 C 
ATOM      5  C   UNL     1      34.539 -22.848 -16.520  0.00  0.00    +0.045 C 
ATOM      6  C   UNL     1      33.280 -22.011 -18.845  0.00  0.00    +0.239 C 
ATOM      7  C   UNL     1      33.147 -22.882 -16.686  0.00  0.00    +0.136 C 
ATOM      8  C   UNL     1      35.108 -23.285 -15.316  0.00  0.00    +0.007 C 
ATOM      9  C   UNL     1      32.344 -23.354 -15.640  0.00  0.00    +0.032 C 
ATOM     10  C   UNL     1      34.299 -23.754 -14.281  0.00  0.00    +0.039 C 
ATOM     11  C   UNL     1      32.916 -23.789 -14.443  0.00  0.00    +0.006 C 
ATOM     12  H   UNL     1      33.224 -21.253 -20.755  0.00  0.00    +0.146 HD
ATOM     13  H   UNL     1      31.696 -21.627 -20.096  0.00  0.00    +0.146 HD
ENDROOT
BRANCH  10  15
ATOM     14  O   UNL     1      34.255 -24.147 -11.976  0.00  0.00    -0.287 OA
ATOM     15  C   UNL     1      34.897 -24.205 -13.035  0.00  0.00    +0.196 C 
BRANCH  15  16
ATOM     16  C   UNL     1      36.286 -24.752 -12.966  0.00  0.00    +0.039 C 
ATOM     17  C   UNL     1      36.629 -25.881 -13.708  0.00  0.00    +0.003 C 
ATOM     18  C   UNL     1      37.240 -24.131 -12.159  0.00  0.00    +0.003 C 
ATOM     19  C   UNL     1      37.925 -26.391 -13.644  0.00  0.00    +0.000 C 
ATOM     20  C   UNL     1      38.537 -24.641 -12.095  0.00  0.00    +0.000 C 
ATOM     21  C   UNL     1      38.879 -25.772 -12.837  0.00  0.00    +0.000 C 
ENDBRANCH  15  16
ENDBRANCH  10  15
BRANCH   1  22
ATOM     22  C   UNL     1      35.489 -21.424 -19.912  0.00  0.00    +0.109 C 
BRANCH  22  23
ATOM     23  C   UNL     1      36.385 -20.283 -19.440  0.00  0.00    +0.107 C 
BRANCH  23  26
ATOM     24  O   UNL     1      37.781 -18.898 -20.818  0.00  0.00    -0.275 OA
ATOM     25  N   UNL     1      35.491 -18.647 -21.080  0.00  0.00    -0.279 N 
ATOM     26  C   UNL     1      36.631 -19.217 -20.503  0.00  0.00    +0.227 C 
ATOM     27  C   UNL     1      34.137 -19.040 -20.692  0.00  0.00    +0.115 C 
BRANCH  25  28
ATOM     28  C   UNL     1      35.565 -17.629 -22.100  0.00  0.00    +0.075 C 
ATOM     29  C   UNL     1      35.040 -16.295 -21.565  0.00  0.00    +0.020 C 
ATOM     30  C   UNL     1      34.805 -18.063 -23.356  0.00  0.00    +0.020 C 
ATOM     31  C   UNL     1      35.058 -15.210 -22.639  0.00  0.00    +0.002 C 
ATOM     32  C   UNL     1      34.825 -16.977 -24.429  0.00  0.00    +0.002 C 
ATOM     33  C   UNL     1      34.304 -15.648 -23.892  0.00  0.00    +0.000 C 
ENDBRANCH  25  28
ENDBRANCH  23  26
ENDBRANCH  22  23
ENDBRANCH   1  22
TORSDOF 6
ENDMDL
MODEL 9
REMARK VINA RESULT:     -11.5      2.488     10.932
REMARK  Name = 16741238
REMARK  6 active torsions:
REMARK  status: ('A' for Active; 'I' for Inactive)
REMARK    1  A    between atoms: N_1  and  C_22
REMARK    2  A    between atoms: C_10  and  C_15
REMARK    3  A    between atoms: C_15  and  C_16
REMARK    4  A    between atoms: C_22  and  C_23
REMARK    5  A    between atoms: C_23  and  C_26
REMARK    6  A    between atoms: N_25  and  C_28
REMARK                            x       y       z     vdW  Elec       q    Type
REMARK                         _______ _______ _______ _____ _____    ______ ____
ROOT
ATOM      1  N   UNL     1      32.757 -13.208 -22.064  0.00  0.00    -0.249 N 
ATOM      2  N   UNL     1      31.898 -12.003 -20.168  0.00  0.00    -0.373 NA
ATOM      3  N   UNL     1      32.290 -14.277 -20.016  0.00  0.00    -0.321 N 
ATOM      4  C   UNL     1      32.819 -12.031 -22.932  0.00  0.00    +0.071 C 
ATOM      5  C   UNL     1      32.345 -10.779 -22.249  0.00  0.00    +0.045 C 
ATOM      6  C   UNL     1      32.302 -13.108 -20.745  0.00  0.00    +0.239 C 
ATOM      7  C   UNL     1      31.911 -10.815 -20.916  0.00  0.00    +0.136 C 
ATOM      8  C   UNL     1      32.338  -9.565 -22.950  0.00  0.00    +0.007 C 
ATOM      9  C   UNL     1      31.476  -9.633 -20.305  0.00  0.00    +0.032 C 
ATOM     10  C   UNL     1      31.903  -8.393 -22.332  0.00  0.00    +0.039 C 
ATOM     11  C   UNL     1      31.472  -8.427 -21.008  0.00  0.00    +0.006 C 
ATOM     12  H   UNL     1      32.591 -15.119 -20.430  0.00  0.00    +0.146 HD
ATOM     13  H   UNL     1      31.980 -14.271 -19.082  0.00  0.00    +0.146 HD
ENDROOT
BRANCH  10  15
ATOM     14  O   UNL     1      30.894  -6.411 -23.056  0.00  0.00    -0.287 OA
ATOM     15  C   UNL     1      31.898  -7.139 -23.067  0.00  0.00    +0.196 C 
BRANCH  15  16
ATOM     16  C   UNL     1      33.077  -6.670 -23.856  0.00  0.00    +0.039 C 
ATOM     17  C   UNL     1      32.901  -6.187 -25.153  0.00  0.00    +0.003 C 
ATOM     18  C   UNL     1      34.354  -6.712 -23.295  0.00  0.00    +0.003 C 
ATOM     19  C   UNL     1      34.001  -5.748 -25.889  0.00  0.00    +0.000 C 
ATOM     20  C   UNL     1      35.454  -6.273 -24.031  0.00  0.00    +0.000 C 
ATOM     21  C   UNL     1      35.278  -5.791 -25.329  0.00  0.00    +0.000 C 
ENDBRANCH  15  16
ENDBRANCH  10  15
BRANCH   1  22
ATOM     22  C   UNL     1      33.202 -14.455 -22.678  0.00  0.00    +0.109 C 
BRANCH  22  23
ATOM     23  C   UNL     1      34.674 -14.708 -22.364  0.00  0.00    +0.107 C 
BRANCH  23  26
ATOM     24  O   UNL     1      34.868 -15.443 -20.086  0.00  0.00    -0.275 OA
ATOM     25  N   UNL     1      35.129 -17.063 -21.724  0.00  0.00    -0.279 N 
ATOM     26  C   UNL     1      34.897 -15.757 -21.279  0.00  0.00    +0.227 C 
ATOM     27  C   UNL     1      35.160 -17.415 -23.142  0.00  0.00    +0.115 C 
BRANCH  25  28
ATOM     28  C   UNL     1      35.355 -18.162 -20.815  0.00  0.00    +0.075 C 
ATOM     29  C   UNL     1      36.785 -18.688 -20.955  0.00  0.00    +0.020 C 
ATOM     30  C   UNL     1      34.327 -19.274 -21.043  0.00  0.00    +0.020 C 
ATOM     31  C   UNL     1      37.037 -19.886 -20.043  0.00  0.00    +0.002 C 
ATOM     32  C   UNL     1      34.581 -20.470 -20.129  0.00  0.00    +0.002 C 
ATOM     33  C   UNL     1      36.008 -20.991 -20.269  0.00  0.00    +0.000 C 
ENDBRANCH  25  28
ENDBRANCH  23  26
ENDBRANCH  22  23
ENDBRANCH   1  22
TORSDOF 6
ENDMDL
