MODEL 1
REMARK VINA RESULT:     -11.2      0.000      0.000
REMARK  Name = 24901696
REMARK  4 active torsions:
REMARK  status: ('A' for Active; 'I' for Inactive)
REMARK    1  A    between atoms: C_5  and  C_16
REMARK    2  A    between atoms: C_7  and  C_10
REMARK    3  A    between atoms: C_16  and  C_17
REMARK    4  A    between atoms: C_22  and  O_23
REMARK                            x       y       z     vdW  Elec       q    Type
REMARK                         _______ _______ _______ _____ _____    ______ ____
ROOT
ATOM      1  N   UNL     1      34.775 -17.058 -22.842  0.00  0.00    -0.195 N 
ATOM      2  N   UNL     1      34.907 -17.786 -21.705  0.00  0.00    -0.163 NA
ATOM      3  N   UNL     1      34.618 -15.354 -24.212  0.00  0.00    -0.131 NA
ATOM      4  N   UNL     1      34.515 -16.513 -24.954  0.00  0.00    -0.127 NA
ATOM      5  C   UNL     1      34.774 -15.699 -22.953  0.00  0.00    +0.168 A 
ATOM      6  C   UNL     1      34.610 -17.531 -24.124  0.00  0.00    +0.186 A 
ATOM      7  C   UNL     1      34.863 -19.073 -21.895  0.00  0.00    +0.101 C 
ATOM      8  C   UNL     1      34.584 -18.928 -24.302  0.00  0.00    +0.042 C 
ATOM      9  C   UNL     1      34.707 -19.728 -23.234  0.00  0.00    +0.024 C 
ENDROOT
BRANCH   7  10
ATOM     10  C   UNL     1      34.990 -19.979 -20.724  0.00  0.00    +0.019 C 
ATOM     11  C   UNL     1      33.859 -20.598 -20.193  0.00  0.00    +0.002 C 
ATOM     12  C   UNL     1      36.244 -20.213 -20.156  0.00  0.00    +0.002 C 
ATOM     13  C   UNL     1      33.979 -21.448 -19.093  0.00  0.00    +0.000 C 
ATOM     14  C   UNL     1      36.364 -21.062 -19.057  0.00  0.00    +0.000 C 
ATOM     15  C   UNL     1      35.231 -21.681 -18.526  0.00  0.00    +0.000 C 
ENDBRANCH   7  10
BRANCH   5  16
ATOM     16  C   UNL     1      34.928 -14.797 -21.798  0.00  0.00    +0.094 C 
BRANCH  16  17
ATOM     17  C   UNL     1      33.739 -13.880 -21.547  0.00  0.00    -0.014 C 
ATOM     18  C   UNL     1      32.967 -14.038 -20.397  0.00  0.00    -0.001 C 
ATOM     19  C   UNL     1      33.421 -12.883 -22.469  0.00  0.00    -0.001 C 
ATOM     20  C   UNL     1      31.876 -13.198 -20.168  0.00  0.00    +0.036 C 
ATOM     21  C   UNL     1      32.331 -12.043 -22.241  0.00  0.00    +0.036 C 
ATOM     22  C   UNL     1      31.559 -12.201 -21.091  0.00  0.00    +0.134 C 
BRANCH  22  23
ATOM     23  O   UNL     1      30.495 -11.382 -20.867  0.00  0.00    -0.506 OA
ATOM     24  H   UNL     1      30.254 -11.155 -19.991  0.00  0.00    +0.292 HD
ENDBRANCH  22  23
ENDBRANCH  16  17
ENDBRANCH   5  16
TORSDOF 4
ENDMDL
MODEL 2
REMARK VINA RESULT:     -10.9      1.242      2.086
REMARK  Name = 24901696
REMARK  4 active torsions:
REMARK  status: ('A' for Active; 'I' for Inactive)
REMARK    1  A    between atoms: C_5  and  C_16
REMARK    2  A    between atoms: C_7  and  C_10
REMARK    3  A    between atoms: C_16  and  C_17
REMARK    4  A    between atoms: C_22  and  O_23
REMARK                            x       y       z     vdW  Elec       q    Type
REMARK                         _______ _______ _______ _____ _____    ______ ____
ROOT
ATOM      1  N   UNL     1      34.336 -16.407 -23.551  0.00  0.00    -0.195 N 
ATOM      2  N   UNL     1      34.851 -17.021 -22.458  0.00  0.00    -0.163 NA
ATOM      3  N   UNL     1      33.627 -14.845 -24.917  0.00  0.00    -0.131 NA
ATOM      4  N   UNL     1      33.453 -16.067 -25.534  0.00  0.00    -0.127 NA
ATOM      5  C   UNL     1      34.156 -15.067 -23.734  0.00  0.00    +0.168 A 
ATOM      6  C   UNL     1      33.881 -16.998 -24.708  0.00  0.00    +0.186 A 
ATOM      7  C   UNL     1      34.898 -18.319 -22.555  0.00  0.00    +0.101 C 
ATOM      8  C   UNL     1      33.960 -18.403 -24.792  0.00  0.00    +0.042 C 
ATOM      9  C   UNL     1      34.455 -19.096 -23.758  0.00  0.00    +0.024 C 
ENDROOT
BRANCH   7  10
ATOM     10  C   UNL     1      35.437 -19.108 -21.417  0.00  0.00    +0.019 C 
ATOM     11  C   UNL     1      36.753 -18.917 -20.997  0.00  0.00    +0.002 C 
ATOM     12  C   UNL     1      34.625 -20.039 -20.767  0.00  0.00    +0.002 C 
ATOM     13  C   UNL     1      37.259 -19.658 -19.928  0.00  0.00    +0.000 C 
ATOM     14  C   UNL     1      35.132 -20.779 -19.699  0.00  0.00    +0.000 C 
ATOM     15  C   UNL     1      36.449 -20.588 -19.279  0.00  0.00    +0.000 C 
ENDBRANCH   7  10
BRANCH   5  16
ATOM     16  C   UNL     1      34.520 -14.061 -22.721  0.00  0.00    +0.094 C 
BRANCH  16  17
ATOM     17  C   UNL     1      33.616 -12.836 -22.692  0.00  0.00    -0.014 C 
ATOM     18  C   UNL     1      33.906 -11.737 -23.500  0.00  0.00    -0.001 C 
ATOM     19  C   UNL     1      32.499 -12.813 -21.857  0.00  0.00    -0.001 C 
ATOM     20  C   UNL     1      33.078 -10.614 -23.473  0.00  0.00    +0.036 C 
ATOM     21  C   UNL     1      31.671 -11.691 -21.830  0.00  0.00    +0.036 C 
ATOM     22  C   UNL     1      31.961 -10.592 -22.637  0.00  0.00    +0.134 C 
BRANCH  22  23
ATOM     23  O   UNL     1      31.153  -9.496 -22.611  0.00  0.00    -0.506 OA
ATOM     24  H   UNL     1      30.270  -9.571 -22.307  0.00  0.00    +0.292 HD
ENDBRANCH  22  23
ENDBRANCH  16  17
ENDBRANCH   5  16
TORSDOF 4
ENDMDL
MODEL 3
REMARK VINA RESULT:     -10.8      6.031      9.171
REMARK  Name = 24901696
REMARK  4 active torsions:
REMARK  status: ('A' for Active; 'I' for Inactive)
REMARK    1  A    between atoms: C_5  and  C_16
REMARK    2  A    between atoms: C_7  and  C_10
REMARK    3  A    between atoms: C_16  and  C_17
REMARK    4  A    between atoms: C_22  and  O_23
REMARK                            x       y       z     vdW  Elec       q    Type
REMARK                         _______ _______ _______ _____ _____    ______ ____
ROOT
ATOM      1  N   UNL     1      33.572 -23.516 -16.041  0.00  0.00    -0.195 N 
ATOM      2  N   UNL     1      34.780 -24.052 -15.735  0.00  0.00    -0.163 NA
ATOM      3  N   UNL     1      31.901 -22.679 -17.185  0.00  0.00    -0.131 NA
ATOM      4  N   UNL     1      31.543 -22.697 -15.852  0.00  0.00    -0.127 NA
ATOM      5  C   UNL     1      33.115 -23.173 -17.279  0.00  0.00    +0.168 A 
ATOM      6  C   UNL     1      32.552 -23.202 -15.173  0.00  0.00    +0.186 A 
ATOM      7  C   UNL     1      34.951 -24.273 -14.463  0.00  0.00    +0.101 C 
ATOM      8  C   UNL     1      32.759 -23.467 -13.805  0.00  0.00    +0.042 C 
ATOM      9  C   UNL     1      33.923 -23.997 -13.408  0.00  0.00    +0.024 C 
ENDROOT
BRANCH   7  10
ATOM     10  C   UNL     1      36.239 -24.854 -13.999  0.00  0.00    +0.019 C 
ATOM     11  C   UNL     1      36.707 -26.044 -14.554  0.00  0.00    +0.002 C 
ATOM     12  C   UNL     1      36.980 -24.206 -13.010  0.00  0.00    +0.002 C 
ATOM     13  C   UNL     1      37.916 -26.589 -14.118  0.00  0.00    +0.000 C 
ATOM     14  C   UNL     1      38.187 -24.750 -12.575  0.00  0.00    +0.000 C 
ATOM     15  C   UNL     1      38.656 -25.942 -13.130  0.00  0.00    +0.000 C 
ENDBRANCH   7  10
BRANCH   5  16
ATOM     16  C   UNL     1      33.909 -23.351 -18.508  0.00  0.00    +0.094 C 
BRANCH  16  17
ATOM     17  C   UNL     1      34.400 -22.054 -19.138  0.00  0.00    -0.014 C 
ATOM     18  C   UNL     1      33.492 -21.187 -19.746  0.00  0.00    -0.001 C 
ATOM     19  C   UNL     1      35.757 -21.735 -19.109  0.00  0.00    -0.001 C 
ATOM     20  C   UNL     1      33.942 -19.999 -20.324  0.00  0.00    +0.036 C 
ATOM     21  C   UNL     1      36.207 -20.548 -19.686  0.00  0.00    +0.036 C 
ATOM     22  C   UNL     1      35.299 -19.681 -20.294  0.00  0.00    +0.134 C 
BRANCH  22  23
ATOM     23  O   UNL     1      35.738 -18.522 -20.858  0.00  0.00    -0.506 OA
ATOM     24  H   UNL     1      36.630 -18.256 -20.752  0.00  0.00    +0.292 HD
ENDBRANCH  22  23
ENDBRANCH  16  17
ENDBRANCH   5  16
TORSDOF 4
ENDMDL
MODEL 4
REMARK VINA RESULT:     -10.8      6.043      9.195
REMARK  Name = 24901696
REMARK  4 active torsions:
REMARK  status: ('A' for Active; 'I' for Inactive)
REMARK    1  A    between atoms: C_5  and  C_16
REMARK    2  A    between atoms: C_7  and  C_10
REMARK    3  A    between atoms: C_16  and  C_17
REMARK    4  A    between atoms: C_22  and  O_23
REMARK                            x       y       z     vdW  Elec       q    Type
REMARK                         _______ _______ _______ _____ _____    ______ ____
ROOT
ATOM      1  N   UNL     1      33.583 -23.519 -16.026  0.00  0.00    -0.195 N 
ATOM      2  N   UNL     1      34.793 -24.051 -15.722  0.00  0.00    -0.163 NA
ATOM      3  N   UNL     1      31.906 -22.688 -17.167  0.00  0.00    -0.131 NA
ATOM      4  N   UNL     1      31.552 -22.704 -15.833  0.00  0.00    -0.127 NA
ATOM      5  C   UNL     1      33.121 -23.180 -17.263  0.00  0.00    +0.168 A 
ATOM      6  C   UNL     1      32.564 -23.204 -15.156  0.00  0.00    +0.186 A 
ATOM      7  C   UNL     1      34.969 -24.267 -14.450  0.00  0.00    +0.101 C 
ATOM      8  C   UNL     1      32.776 -23.465 -13.787  0.00  0.00    +0.042 C 
ATOM      9  C   UNL     1      33.944 -23.991 -13.392  0.00  0.00    +0.024 C 
ENDROOT
BRANCH   7  10
ATOM     10  C   UNL     1      36.260 -24.844 -13.989  0.00  0.00    +0.019 C 
ATOM     11  C   UNL     1      36.989 -24.208 -12.985  0.00  0.00    +0.002 C 
ATOM     12  C   UNL     1      36.740 -26.023 -14.561  0.00  0.00    +0.002 C 
ATOM     13  C   UNL     1      38.200 -24.749 -12.553  0.00  0.00    +0.000 C 
ATOM     14  C   UNL     1      37.950 -26.563 -14.129  0.00  0.00    +0.000 C 
ATOM     15  C   UNL     1      38.681 -25.927 -13.124  0.00  0.00    +0.000 C 
ENDBRANCH   7  10
BRANCH   5  16
ATOM     16  C   UNL     1      33.911 -23.359 -18.495  0.00  0.00    +0.094 C 
BRANCH  16  17
ATOM     17  C   UNL     1      34.400 -22.063 -19.127  0.00  0.00    -0.014 C 
ATOM     18  C   UNL     1      33.494 -21.207 -19.752  0.00  0.00    -0.001 C 
ATOM     19  C   UNL     1      35.755 -21.734 -19.083  0.00  0.00    -0.001 C 
ATOM     20  C   UNL     1      33.943 -20.020 -20.332  0.00  0.00    +0.036 C 
ATOM     21  C   UNL     1      36.204 -20.548 -19.663  0.00  0.00    +0.036 C 
ATOM     22  C   UNL     1      35.298 -19.691 -20.288  0.00  0.00    +0.134 C 
BRANCH  22  23
ATOM     23  O   UNL     1      35.735 -18.533 -20.854  0.00  0.00    -0.506 OA
ATOM     24  H   UNL     1      36.228 -18.557 -21.650  0.00  0.00    +0.292 HD
ENDBRANCH  22  23
ENDBRANCH  16  17
ENDBRANCH   5  16
TORSDOF 4
ENDMDL
MODEL 5
REMARK VINA RESULT:     -10.5      5.392      8.452
REMARK  Name = 24901696
REMARK  4 active torsions:
REMARK  status: ('A' for Active; 'I' for Inactive)
REMARK    1  A    between atoms: C_5  and  C_16
REMARK    2  A    between atoms: C_7  and  C_10
REMARK    3  A    between atoms: C_16  and  C_17
REMARK    4  A    between atoms: C_22  and  O_23
REMARK                            x       y       z     vdW  Elec       q    Type
REMARK                         _______ _______ _______ _____ _____    ______ ____
ROOT
ATOM      1  N   UNL     1      34.456 -22.772 -16.718  0.00  0.00    -0.195 N 
ATOM      2  N   UNL     1      33.124 -23.019 -16.665  0.00  0.00    -0.163 NA
ATOM      3  N   UNL     1      36.441 -22.232 -17.477  0.00  0.00    -0.131 NA
ATOM      4  N   UNL     1      36.565 -22.558 -16.142  0.00  0.00    -0.127 NA
ATOM      5  C   UNL     1      35.175 -22.364 -17.803  0.00  0.00    +0.168 A 
ATOM      6  C   UNL     1      35.370 -22.880 -15.695  0.00  0.00    +0.186 A 
ATOM      7  C   UNL     1      32.706 -23.405 -15.494  0.00  0.00    +0.101 C 
ATOM      8  C   UNL     1      34.886 -23.284 -14.434  0.00  0.00    +0.042 C 
ATOM      9  C   UNL     1      33.582 -23.551 -14.286  0.00  0.00    +0.024 C 
ENDROOT
BRANCH   7  10
ATOM     10  C   UNL     1      31.264 -23.714 -15.309  0.00  0.00    +0.019 C 
ATOM     11  C   UNL     1      30.875 -24.755 -14.466  0.00  0.00    +0.002 C 
ATOM     12  C   UNL     1      30.298 -22.960 -15.978  0.00  0.00    +0.002 C 
ATOM     13  C   UNL     1      29.521 -25.044 -14.293  0.00  0.00    +0.000 C 
ATOM     14  C   UNL     1      28.946 -23.249 -15.805  0.00  0.00    +0.000 C 
ATOM     15  C   UNL     1      28.556 -24.291 -14.962  0.00  0.00    +0.000 C 
ENDBRANCH   7  10
BRANCH   5  16
ATOM     16  C   UNL     1      34.568 -22.122 -19.125  0.00  0.00    +0.094 C 
BRANCH  16  17
ATOM     17  C   UNL     1      35.097 -20.892 -19.849  0.00  0.00    -0.014 C 
ATOM     18  C   UNL     1      34.231 -20.097 -20.598  0.00  0.00    -0.001 C 
ATOM     19  C   UNL     1      36.450 -20.562 -19.765  0.00  0.00    -0.001 C 
ATOM     20  C   UNL     1      34.716 -18.970 -21.263  0.00  0.00    +0.036 C 
ATOM     21  C   UNL     1      36.936 -19.436 -20.428  0.00  0.00    +0.036 C 
ATOM     22  C   UNL     1      36.069 -18.640 -21.177  0.00  0.00    +0.134 C 
BRANCH  22  23
ATOM     23  O   UNL     1      36.543 -17.541 -21.826  0.00  0.00    -0.506 OA
ATOM     24  H   UNL     1      36.049 -17.159 -22.525  0.00  0.00    +0.292 HD
ENDBRANCH  22  23
ENDBRANCH  16  17
ENDBRANCH   5  16
TORSDOF 4
ENDMDL
MODEL 6
REMARK VINA RESULT:     -10.2      7.745     11.705
REMARK  Name = 24901696
REMARK  4 active torsions:
REMARK  status: ('A' for Active; 'I' for Inactive)
REMARK    1  A    between atoms: C_5  and  C_16
REMARK    2  A    between atoms: C_7  and  C_10
REMARK    3  A    between atoms: C_16  and  C_17
REMARK    4  A    between atoms: C_22  and  O_23
REMARK                            x       y       z     vdW  Elec       q    Type
REMARK                         _______ _______ _______ _____ _____    ______ ____
ROOT
ATOM      1  N   UNL     1      34.449 -23.535 -14.261  0.00  0.00    -0.195 N 
ATOM      2  N   UNL     1      34.947 -22.893 -15.346  0.00  0.00    -0.163 NA
ATOM      3  N   UNL     1      34.278 -24.389 -12.249  0.00  0.00    -0.131 NA
ATOM      4  N   UNL     1      33.110 -24.662 -12.932  0.00  0.00    -0.127 NA
ATOM      5  C   UNL     1      35.065 -23.714 -13.057  0.00  0.00    +0.168 A 
ATOM      6  C   UNL     1      33.222 -24.146 -14.138  0.00  0.00    +0.186 A 
ATOM      7  C   UNL     1      34.139 -22.881 -16.368  0.00  0.00    +0.101 C 
ATOM      8  C   UNL     1      32.362 -24.103 -15.254  0.00  0.00    +0.042 C 
ATOM      9  C   UNL     1      32.769 -23.489 -16.373  0.00  0.00    +0.024 C 
ENDROOT
BRANCH   7  10
ATOM     10  C   UNL     1      34.573 -22.212 -17.622  0.00  0.00    +0.019 C 
ATOM     11  C   UNL     1      35.927 -21.973 -17.853  0.00  0.00    +0.002 C 
ATOM     12  C   UNL     1      33.624 -21.824 -18.570  0.00  0.00    +0.002 C 
ATOM     13  C   UNL     1      36.334 -21.344 -19.030  0.00  0.00    +0.000 C 
ATOM     14  C   UNL     1      34.032 -21.196 -19.746  0.00  0.00    +0.000 C 
ATOM     15  C   UNL     1      35.387 -20.957 -19.977  0.00  0.00    +0.000 C 
ENDBRANCH   7  10
BRANCH   5  16
ATOM     16  C   UNL     1      36.416 -23.205 -12.761  0.00  0.00    +0.094 C 
BRANCH  16  17
ATOM     17  C   UNL     1      37.549 -24.055 -13.320  0.00  0.00    -0.014 C 
ATOM     18  C   UNL     1      38.111 -23.741 -14.557  0.00  0.00    -0.001 C 
ATOM     19  C   UNL     1      38.024 -25.148 -12.595  0.00  0.00    -0.001 C 
ATOM     20  C   UNL     1      39.149 -24.520 -15.070  0.00  0.00    +0.036 C 
ATOM     21  C   UNL     1      39.061 -25.927 -13.107  0.00  0.00    +0.036 C 
ATOM     22  C   UNL     1      39.623 -25.613 -14.344  0.00  0.00    +0.134 C 
BRANCH  22  23
ATOM     23  O   UNL     1      40.635 -26.374 -14.845  0.00  0.00    -0.506 OA
ATOM     24  H   UNL     1      40.563 -26.746 -15.701  0.00  0.00    +0.292 HD
ENDBRANCH  22  23
ENDBRANCH  16  17
ENDBRANCH   5  16
TORSDOF 4
ENDMDL
MODEL 7
REMARK VINA RESULT:     -10.1      5.563     10.341
REMARK  Name = 24901696
REMARK  4 active torsions:
REMARK  status: ('A' for Active; 'I' for Inactive)
REMARK    1  A    between atoms: C_5  and  C_16
REMARK    2  A    between atoms: C_7  and  C_10
REMARK    3  A    between atoms: C_16  and  C_17
REMARK    4  A    between atoms: C_22  and  O_23
REMARK                            x       y       z     vdW  Elec       q    Type
REMARK                         _______ _______ _______ _____ _____    ______ ____
ROOT
ATOM      1  N   UNL     1      32.152  -9.181 -20.794  0.00  0.00    -0.195 N 
ATOM      2  N   UNL     1      32.514  -8.746 -22.027  0.00  0.00    -0.163 NA
ATOM      3  N   UNL     1      31.335 -10.431 -19.189  0.00  0.00    -0.131 NA
ATOM      4  N   UNL     1      31.839  -9.277 -18.622  0.00  0.00    -0.127 NA
ATOM      5  C   UNL     1      31.532 -10.356 -20.486  0.00  0.00    +0.168 A 
ATOM      6  C   UNL     1      32.326  -8.534 -19.593  0.00  0.00    +0.186 A 
ATOM      7  C   UNL     1      33.084  -7.575 -22.025  0.00  0.00    +0.101 C 
ATOM      8  C   UNL     1      32.962  -7.276 -19.620  0.00  0.00    +0.042 C 
ATOM      9  C   UNL     1      33.355  -6.765 -20.794  0.00  0.00    +0.024 C 
ENDROOT
BRANCH   7  10
ATOM     10  C   UNL     1      33.522  -6.986 -23.318  0.00  0.00    +0.019 C 
ATOM     11  C   UNL     1      32.597  -6.785 -24.342  0.00  0.00    +0.002 C 
ATOM     12  C   UNL     1      34.859  -6.632 -23.505  0.00  0.00    +0.002 C 
ATOM     13  C   UNL     1      33.009  -6.231 -25.555  0.00  0.00    +0.000 C 
ATOM     14  C   UNL     1      35.270  -6.079 -24.718  0.00  0.00    +0.000 C 
ATOM     15  C   UNL     1      34.345  -5.878 -25.743  0.00  0.00    +0.000 C 
ENDBRANCH   7  10
BRANCH   5  16
ATOM     16  C   UNL     1      31.160 -11.360 -21.500  0.00  0.00    +0.094 C 
BRANCH  16  17
ATOM     17  C   UNL     1      32.260 -12.358 -21.836  0.00  0.00    -0.014 C 
ATOM     18  C   UNL     1      32.598 -13.357 -20.924  0.00  0.00    -0.001 C 
ATOM     19  C   UNL     1      32.930 -12.271 -23.056  0.00  0.00    -0.001 C 
ATOM     20  C   UNL     1      33.607 -14.270 -21.232  0.00  0.00    +0.036 C 
ATOM     21  C   UNL     1      33.939 -13.184 -23.365  0.00  0.00    +0.036 C 
ATOM     22  C   UNL     1      34.277 -14.183 -22.453  0.00  0.00    +0.134 C 
BRANCH  22  23
ATOM     23  O   UNL     1      35.261 -15.074 -22.753  0.00  0.00    -0.506 OA
ATOM     24  H   UNL     1      36.160 -14.815 -22.705  0.00  0.00    +0.292 HD
ENDBRANCH  22  23
ENDBRANCH  16  17
ENDBRANCH   5  16
TORSDOF 4
ENDMDL
MODEL 8
REMARK VINA RESULT:     -10.1      6.155     10.219
REMARK  Name = 24901696
REMARK  4 active torsions:
REMARK  status: ('A' for Active; 'I' for Inactive)
REMARK    1  A    between atoms: C_5  and  C_16
REMARK    2  A    between atoms: C_7  and  C_10
REMARK    3  A    between atoms: C_16  and  C_17
REMARK    4  A    between atoms: C_22  and  O_23
REMARK                            x       y       z     vdW  Elec       q    Type
REMARK                         _______ _______ _______ _____ _____    ______ ____
ROOT
ATOM      1  N   UNL     1      35.075 -22.376 -17.366  0.00  0.00    -0.195 N 
ATOM      2  N   UNL     1      35.696 -21.529 -18.225  0.00  0.00    -0.163 NA
ATOM      3  N   UNL     1      34.715 -23.728 -15.678  0.00  0.00    -0.131 NA
ATOM      4  N   UNL     1      33.549 -23.635 -16.412  0.00  0.00    -0.127 NA
ATOM      5  C   UNL     1      35.615 -22.968 -16.262  0.00  0.00    +0.168 A 
ATOM      6  C   UNL     1      33.775 -22.822 -17.422  0.00  0.00    +0.186 A 
ATOM      7  C   UNL     1      34.937 -21.121 -19.201  0.00  0.00    +0.101 C 
ATOM      8  C   UNL     1      32.973 -22.350 -18.480  0.00  0.00    +0.042 C 
ATOM      9  C   UNL     1      33.500 -21.509 -19.379  0.00  0.00    +0.024 C 
ENDROOT
BRANCH   7  10
ATOM     10  C   UNL     1      35.504 -20.192 -20.214  0.00  0.00    +0.019 C 
ATOM     11  C   UNL     1      36.818 -19.741 -20.090  0.00  0.00    +0.002 C 
ATOM     12  C   UNL     1      34.722 -19.774 -21.292  0.00  0.00    +0.002 C 
ATOM     13  C   UNL     1      37.350 -18.870 -21.041  0.00  0.00    +0.000 C 
ATOM     14  C   UNL     1      35.254 -18.903 -22.242  0.00  0.00    +0.000 C 
ATOM     15  C   UNL     1      36.569 -18.452 -22.117  0.00  0.00    +0.000 C 
ENDBRANCH   7  10
BRANCH   5  16
ATOM     16  C   UNL     1      37.009 -22.753 -15.833  0.00  0.00    +0.094 C 
BRANCH  16  17
ATOM     17  C   UNL     1      37.347 -23.332 -14.466  0.00  0.00    -0.014 C 
ATOM     18  C   UNL     1      36.876 -22.710 -13.310  0.00  0.00    -0.001 C 
ATOM     19  C   UNL     1      38.129 -24.482 -14.370  0.00  0.00    -0.001 C 
ATOM     20  C   UNL     1      37.187 -23.240 -12.057  0.00  0.00    +0.036 C 
ATOM     21  C   UNL     1      38.440 -25.012 -13.118  0.00  0.00    +0.036 C 
ATOM     22  C   UNL     1      37.969 -24.391 -11.962  0.00  0.00    +0.134 C 
BRANCH  22  23
ATOM     23  O   UNL     1      38.272 -24.908 -10.740  0.00  0.00    -0.506 OA
ATOM     24  H   UNL     1      39.108 -24.737 -10.352  0.00  0.00    +0.292 HD
ENDBRANCH  22  23
ENDBRANCH  16  17
ENDBRANCH   5  16
TORSDOF 4
ENDMDL
MODEL 9
REMARK VINA RESULT:     -10.0      4.389      9.650
REMARK  Name = 24901696
REMARK  4 active torsions:
REMARK  status: ('A' for Active; 'I' for Inactive)
REMARK    1  A    between atoms: C_5  and  C_16
REMARK    2  A    between atoms: C_7  and  C_10
REMARK    3  A    between atoms: C_16  and  C_17
REMARK    4  A    between atoms: C_22  and  O_23
REMARK                            x       y       z     vdW  Elec       q    Type
REMARK                         _______ _______ _______ _____ _____    ______ ____
ROOT
ATOM      1  N   UNL     1      32.612 -11.182 -22.501  0.00  0.00    -0.195 N 
ATOM      2  N   UNL     1      33.187 -10.207 -23.248  0.00  0.00    -0.163 NA
ATOM      3  N   UNL     1      31.951 -13.156 -21.815  0.00  0.00    -0.131 NA
ATOM      4  N   UNL     1      31.503 -12.214 -20.911  0.00  0.00    -0.127 NA
ATOM      5  C   UNL     1      32.613 -12.522 -22.757  0.00  0.00    +0.168 A 
ATOM      6  C   UNL     1      31.905 -11.033 -21.330  0.00  0.00    +0.186 A 
ATOM      7  C   UNL     1      33.022  -9.008 -22.767  0.00  0.00    +0.101 C 
ATOM      8  C   UNL     1      31.756  -9.726 -20.824  0.00  0.00    +0.042 C 
ATOM      9  C   UNL     1      32.291  -8.697 -21.495  0.00  0.00    +0.024 C 
ENDROOT
BRANCH   7  10
ATOM     10  C   UNL     1      33.601  -7.851 -23.499  0.00  0.00    +0.019 C 
ATOM     11  C   UNL     1      34.910  -7.446 -23.241  0.00  0.00    +0.002 C 
ATOM     12  C   UNL     1      32.834  -7.172 -24.447  0.00  0.00    +0.002 C 
ATOM     13  C   UNL     1      35.453  -6.360 -23.928  0.00  0.00    +0.000 C 
ATOM     14  C   UNL     1      33.377  -6.087 -25.134  0.00  0.00    +0.000 C 
ATOM     15  C   UNL     1      34.687  -5.681 -24.876  0.00  0.00    +0.000 C 
ENDBRANCH   7  10
BRANCH   5  16
ATOM     16  C   UNL     1      33.273 -13.116 -23.933  0.00  0.00    +0.094 C 
BRANCH  16  17
ATOM     17  C   UNL     1      33.930 -14.465 -23.676  0.00  0.00    -0.014 C 
ATOM     18  C   UNL     1      34.588 -14.702 -22.469  0.00  0.00    -0.001 C 
ATOM     19  C   UNL     1      33.875 -15.464 -24.647  0.00  0.00    -0.001 C 
ATOM     20  C   UNL     1      35.190 -15.938 -22.234  0.00  0.00    +0.036 C 
ATOM     21  C   UNL     1      34.477 -16.700 -24.413  0.00  0.00    +0.036 C 
ATOM     22  C   UNL     1      35.134 -16.937 -23.206  0.00  0.00    +0.134 C 
BRANCH  22  23
ATOM     23  O   UNL     1      35.723 -18.143 -22.976  0.00  0.00    -0.506 OA
ATOM     24  H   UNL     1      36.532 -18.188 -22.507  0.00  0.00    +0.292 HD
ENDBRANCH  22  23
ENDBRANCH  16  17
ENDBRANCH   5  16
TORSDOF 4
ENDMDL
