MODEL 1
REMARK VINA RESULT:     -10.5      0.000      0.000
REMARK  Name = 44563262
REMARK  2 active torsions:
REMARK  status: ('A' for Active; 'I' for Inactive)
REMARK    1  A    between atoms: N_2  and  C_13
REMARK    2  A    between atoms: C_6  and  C_19
REMARK                            x       y       z     vdW  Elec       q    Type
REMARK                         _______ _______ _______ _____ _____    ______ ____
ROOT
ATOM      1  N   UNL     1      32.802 -12.800 -22.077  0.00  0.00    -0.243 N 
ATOM      2  N   UNL     1      32.478  -9.203 -22.931  0.00  0.00    -0.296 N 
ATOM      3  N   UNL     1      33.641 -10.941 -23.962  0.00  0.00    -0.226 NA
ATOM      4  N   UNL     1      31.497 -12.645 -20.280  0.00  0.00    -0.224 NA
ATOM      5  C   UNL     1      32.407 -11.485 -21.995  0.00  0.00    +0.108 C 
ATOM      6  C   UNL     1      33.633 -13.217 -23.114  0.00  0.00    +0.076 C 
ATOM      7  C   UNL     1      32.856 -10.524 -22.989  0.00  0.00    +0.148 C 
ATOM      8  C   UNL     1      34.013 -12.274 -24.004  0.00  0.00    +0.115 C 
ATOM      9  C   UNL     1      32.219 -13.456 -21.024  0.00  0.00    +0.172 C 
ATOM     10  C   UNL     1      31.608 -11.415 -20.879  0.00  0.00    +0.118 C 
ATOM     11  H   UNL     1      31.600  -9.012 -22.528  0.00  0.00    +0.154 HD
ENDROOT
BRANCH   2  13
ATOM     12 CL   UNL     1      30.931  -7.146 -24.538  0.00  0.00    -0.081 Cl
ATOM     13  C   UNL     1      33.208  -8.108 -23.382  0.00  0.00    +0.060 C 
ATOM     14  C   UNL     1      32.609  -7.095 -24.131  0.00  0.00    +0.071 C 
ATOM     15  C   UNL     1      34.566  -8.035 -23.071  0.00  0.00    +0.015 C 
ATOM     16  C   UNL     1      33.368  -6.010 -24.570  0.00  0.00    +0.013 C 
ATOM     17  C   UNL     1      35.325  -6.950 -23.510  0.00  0.00    +0.001 C 
ATOM     18  C   UNL     1      34.725  -5.937 -24.259  0.00  0.00    +0.001 C 
ENDBRANCH   2  13
BRANCH   6  19
ATOM     19  C   UNL     1      34.103 -14.603 -23.257  0.00  0.00    +0.016 C 
ATOM     20  C   UNL     1      33.853 -15.305 -24.436  0.00  0.00    +0.001 C 
ATOM     21  C   UNL     1      34.799 -15.215 -22.216  0.00  0.00    +0.001 C 
ATOM     22  C   UNL     1      34.297 -16.620 -24.572  0.00  0.00    +0.000 C 
ATOM     23  C   UNL     1      35.245 -16.530 -22.352  0.00  0.00    +0.000 C 
ATOM     24  C   UNL     1      34.994 -17.233 -23.531  0.00  0.00    +0.000 C 
ENDBRANCH   6  19
TORSDOF 2
ENDMDL
MODEL 2
REMARK VINA RESULT:     -10.4      2.888      5.224
REMARK  Name = 44563262
REMARK  2 active torsions:
REMARK  status: ('A' for Active; 'I' for Inactive)
REMARK    1  A    between atoms: N_2  and  C_13
REMARK    2  A    between atoms: C_6  and  C_19
REMARK                            x       y       z     vdW  Elec       q    Type
REMARK                         _______ _______ _______ _____ _____    ______ ____
ROOT
ATOM      1  N   UNL     1      34.717 -16.806 -22.874  0.00  0.00    -0.243 N 
ATOM      2  N   UNL     1      33.655 -13.252 -22.769  0.00  0.00    -0.296 N 
ATOM      3  N   UNL     1      34.355 -14.710 -21.089  0.00  0.00    -0.226 NA
ATOM      4  N   UNL     1      34.441 -16.979 -25.076  0.00  0.00    -0.224 NA
ATOM      5  C   UNL     1      34.278 -15.577 -23.309  0.00  0.00    +0.108 C 
ATOM      6  C   UNL     1      34.986 -17.014 -21.524  0.00  0.00    +0.076 C 
ATOM      7  C   UNL     1      34.093 -14.491 -22.362  0.00  0.00    +0.148 C 
ATOM      8  C   UNL     1      34.794 -15.963 -20.697  0.00  0.00    +0.115 C 
ATOM      9  C   UNL     1      34.803 -17.611 -23.980  0.00  0.00    +0.172 C 
ATOM     10  C   UNL     1      34.112 -15.711 -24.667  0.00  0.00    +0.118 C 
ATOM     11  H   UNL     1      33.896 -12.976 -23.683  0.00  0.00    +0.154 HD
ENDROOT
BRANCH   2  13
ATOM     12 CL   UNL     1      33.216 -10.528 -24.033  0.00  0.00    -0.081 Cl
ATOM     13  C   UNL     1      32.906 -12.347 -22.022  0.00  0.00    +0.060 C 
ATOM     14  C   UNL     1      32.636 -11.064 -22.496  0.00  0.00    +0.071 C 
ATOM     15  C   UNL     1      32.423 -12.747 -20.776  0.00  0.00    +0.015 C 
ATOM     16  C   UNL     1      31.883 -10.179 -21.724  0.00  0.00    +0.013 C 
ATOM     17  C   UNL     1      31.670 -11.862 -20.004  0.00  0.00    +0.001 C 
ATOM     18  C   UNL     1      31.400 -10.578 -20.478  0.00  0.00    +0.001 C 
ENDBRANCH   2  13
BRANCH   6  19
ATOM     19  C   UNL     1      35.446 -18.305 -20.987  0.00  0.00    +0.016 C 
ATOM     20  C   UNL     1      34.518 -19.292 -20.657  0.00  0.00    +0.001 C 
ATOM     21  C   UNL     1      36.808 -18.541 -20.809  0.00  0.00    +0.001 C 
ATOM     22  C   UNL     1      34.953 -20.515 -20.147  0.00  0.00    +0.000 C 
ATOM     23  C   UNL     1      37.244 -19.764 -20.300  0.00  0.00    +0.000 C 
ATOM     24  C   UNL     1      36.316 -20.752 -19.969  0.00  0.00    +0.000 C 
ENDBRANCH   6  19
TORSDOF 2
ENDMDL
MODEL 3
REMARK VINA RESULT:     -10.3     10.012     13.427
REMARK  Name = 44563262
REMARK  2 active torsions:
REMARK  status: ('A' for Active; 'I' for Inactive)
REMARK    1  A    between atoms: N_2  and  C_13
REMARK    2  A    between atoms: C_6  and  C_19
REMARK                            x       y       z     vdW  Elec       q    Type
REMARK                         _______ _______ _______ _____ _____    ______ ____
ROOT
ATOM      1  N   UNL     1      34.982 -23.393 -15.278  0.00  0.00    -0.243 N 
ATOM      2  N   UNL     1      34.748 -21.970 -18.697  0.00  0.00    -0.296 N 
ATOM      3  N   UNL     1      36.555 -22.225 -17.247  0.00  0.00    -0.226 NA
ATOM      4  N   UNL     1      32.814 -23.890 -15.174  0.00  0.00    -0.224 NA
ATOM      5  C   UNL     1      34.433 -22.991 -16.474  0.00  0.00    +0.108 C 
ATOM      6  C   UNL     1      36.342 -23.217 -15.040  0.00  0.00    +0.076 C 
ATOM      7  C   UNL     1      35.270 -22.381 -17.493  0.00  0.00    +0.148 C 
ATOM      8  C   UNL     1      37.064 -22.644 -16.029  0.00  0.00    +0.115 C 
ATOM      9  C   UNL     1      33.964 -23.933 -14.536  0.00  0.00    +0.172 C 
ATOM     10  C   UNL     1      33.098 -23.305 -16.383  0.00  0.00    +0.118 C 
ATOM     11  H   UNL     1      33.970 -22.470 -19.036  0.00  0.00    +0.154 HD
ENDROOT
BRANCH   2  13
ATOM     12 CL   UNL     1      32.620 -20.426 -20.214  0.00  0.00    -0.081 Cl
ATOM     13  C   UNL     1      35.204 -20.919 -19.487  0.00  0.00    +0.060 C 
ATOM     14  C   UNL     1      34.323 -20.135 -20.232  0.00  0.00    +0.071 C 
ATOM     15  C   UNL     1      36.573 -20.656 -19.524  0.00  0.00    +0.015 C 
ATOM     16  C   UNL     1      34.811 -19.088 -21.015  0.00  0.00    +0.013 C 
ATOM     17  C   UNL     1      37.062 -19.609 -20.307  0.00  0.00    +0.001 C 
ATOM     18  C   UNL     1      36.180 -18.826 -21.052  0.00  0.00    +0.001 C 
ENDBRANCH   2  13
BRANCH   6  19
ATOM     19  C   UNL     1      36.994 -23.611 -13.781  0.00  0.00    +0.016 C 
ATOM     20  C   UNL     1      37.740 -24.788 -13.722  0.00  0.00    +0.001 C 
ATOM     21  C   UNL     1      36.867 -22.809 -12.648  0.00  0.00    +0.001 C 
ATOM     22  C   UNL     1      38.357 -25.164 -12.529  0.00  0.00    +0.000 C 
ATOM     23  C   UNL     1      37.485 -23.183 -11.455  0.00  0.00    +0.000 C 
ATOM     24  C   UNL     1      38.230 -24.361 -11.395  0.00  0.00    +0.000 C 
ENDBRANCH   6  19
TORSDOF 2
ENDMDL
MODEL 4
REMARK VINA RESULT:     -10.0     10.410     14.787
REMARK  Name = 44563262
REMARK  2 active torsions:
REMARK  status: ('A' for Active; 'I' for Inactive)
REMARK    1  A    between atoms: N_2  and  C_13
REMARK    2  A    between atoms: C_6  and  C_19
REMARK                            x       y       z     vdW  Elec       q    Type
REMARK                         _______ _______ _______ _____ _____    ______ ____
ROOT
ATOM      1  N   UNL     1      34.341 -22.249 -17.620  0.00  0.00    -0.243 N 
ATOM      2  N   UNL     1      35.539 -24.007 -14.580  0.00  0.00    -0.296 N 
ATOM      3  N   UNL     1      36.644 -22.651 -16.121  0.00  0.00    -0.226 NA
ATOM      4  N   UNL     1      32.245 -22.963 -17.390  0.00  0.00    -0.224 NA
ATOM      5  C   UNL     1      34.318 -23.030 -16.488  0.00  0.00    +0.108 C 
ATOM      6  C   UNL     1      35.527 -21.647 -18.030  0.00  0.00    +0.076 C 
ATOM      7  C   UNL     1      35.532 -23.231 -15.715  0.00  0.00    +0.148 C 
ATOM      8  C   UNL     1      36.619 -21.873 -17.267  0.00  0.00    +0.115 C 
ATOM      9  C   UNL     1      33.064 -22.238 -18.120  0.00  0.00    +0.172 C 
ATOM     10  C   UNL     1      33.018 -23.461 -16.371  0.00  0.00    +0.118 C 
ATOM     11  H   UNL     1      34.701 -24.041 -14.063  0.00  0.00    +0.154 HD
ENDROOT
BRANCH   2  13
ATOM     12 CL   UNL     1      36.919 -22.876 -12.125  0.00  0.00    -0.081 Cl
ATOM     13  C   UNL     1      36.607 -24.750 -14.085  0.00  0.00    +0.060 C 
ATOM     14  C   UNL     1      37.321 -24.333 -12.962  0.00  0.00    +0.071 C 
ATOM     15  C   UNL     1      36.959 -25.931 -14.737  0.00  0.00    +0.015 C 
ATOM     16  C   UNL     1      38.389 -25.098 -12.491  0.00  0.00    +0.013 C 
ATOM     17  C   UNL     1      38.026 -26.696 -14.266  0.00  0.00    +0.001 C 
ATOM     18  C   UNL     1      38.741 -26.280 -13.143  0.00  0.00    +0.001 C 
ENDBRANCH   2  13
BRANCH   6  19
ATOM     19  C   UNL     1      35.627 -20.810 -19.236  0.00  0.00    +0.016 C 
ATOM     20  C   UNL     1      34.507 -20.616 -20.044  0.00  0.00    +0.001 C 
ATOM     21  C   UNL     1      36.840 -20.210 -19.570  0.00  0.00    +0.001 C 
ATOM     22  C   UNL     1      34.601 -19.823 -21.188  0.00  0.00    +0.000 C 
ATOM     23  C   UNL     1      36.934 -19.415 -20.713  0.00  0.00    +0.000 C 
ATOM     24  C   UNL     1      35.814 -19.223 -21.523  0.00  0.00    +0.000 C 
ENDBRANCH   6  19
TORSDOF 2
ENDMDL
MODEL 5
REMARK VINA RESULT:      -9.9      1.167      1.449
REMARK  Name = 44563262
REMARK  2 active torsions:
REMARK  status: ('A' for Active; 'I' for Inactive)
REMARK    1  A    between atoms: N_2  and  C_13
REMARK    2  A    between atoms: C_6  and  C_19
REMARK                            x       y       z     vdW  Elec       q    Type
REMARK                         _______ _______ _______ _____ _____    ______ ____
ROOT
ATOM      1  N   UNL     1      32.576 -12.584 -22.068  0.00  0.00    -0.243 N 
ATOM      2  N   UNL     1      31.857  -9.053 -22.956  0.00  0.00    -0.296 N 
ATOM      3  N   UNL     1      33.049 -10.718 -24.071  0.00  0.00    -0.226 NA
ATOM      4  N   UNL     1      31.460 -12.484 -20.145  0.00  0.00    -0.224 NA
ATOM      5  C   UNL     1      32.081 -11.304 -21.971  0.00  0.00    +0.108 C 
ATOM      6  C   UNL     1      33.326 -12.960 -23.179  0.00  0.00    +0.076 C 
ATOM      7  C   UNL     1      32.339 -10.339 -23.027  0.00  0.00    +0.148 C 
ATOM      8  C   UNL     1      33.528 -12.017 -24.125  0.00  0.00    +0.115 C 
ATOM      9  C   UNL     1      32.167 -13.254 -20.945  0.00  0.00    +0.172 C 
ATOM     10  C   UNL     1      31.401 -11.267 -20.777  0.00  0.00    +0.118 C 
ATOM     11  H   UNL     1      31.013  -8.924 -22.465  0.00  0.00    +0.154 HD
ENDROOT
BRANCH   2  13
ATOM     12 CL   UNL     1      33.666  -7.463 -21.110  0.00  0.00    -0.081 Cl
ATOM     13  C   UNL     1      32.439  -7.915 -23.506  0.00  0.00    +0.060 C 
ATOM     14  C   UNL     1      33.290  -7.102 -22.757  0.00  0.00    +0.071 C 
ATOM     15  C   UNL     1      32.156  -7.593 -24.833  0.00  0.00    +0.015 C 
ATOM     16  C   UNL     1      33.857  -5.966 -23.336  0.00  0.00    +0.013 C 
ATOM     17  C   UNL     1      32.724  -6.458 -25.412  0.00  0.00    +0.001 C 
ATOM     18  C   UNL     1      33.575  -5.645 -24.663  0.00  0.00    +0.001 C 
ENDBRANCH   2  13
BRANCH   6  19
ATOM     19  C   UNL     1      33.896 -14.307 -23.343  0.00  0.00    +0.016 C 
ATOM     20  C   UNL     1      33.651 -15.029 -24.511  0.00  0.00    +0.001 C 
ATOM     21  C   UNL     1      34.680 -14.861 -22.333  0.00  0.00    +0.001 C 
ATOM     22  C   UNL     1      34.189 -16.306 -24.667  0.00  0.00    +0.000 C 
ATOM     23  C   UNL     1      35.220 -16.138 -22.489  0.00  0.00    +0.000 C 
ATOM     24  C   UNL     1      34.974 -16.861 -23.657  0.00  0.00    +0.000 C 
ENDBRANCH   6  19
TORSDOF 2
ENDMDL
MODEL 6
REMARK VINA RESULT:      -9.9     10.031     13.587
REMARK  Name = 44563262
REMARK  2 active torsions:
REMARK  status: ('A' for Active; 'I' for Inactive)
REMARK    1  A    between atoms: N_2  and  C_13
REMARK    2  A    between atoms: C_6  and  C_19
REMARK                            x       y       z     vdW  Elec       q    Type
REMARK                         _______ _______ _______ _____ _____    ______ ____
ROOT
ATOM      1  N   UNL     1      35.474 -21.713 -17.972  0.00  0.00    -0.243 N 
ATOM      2  N   UNL     1      32.912 -23.649 -16.112  0.00  0.00    -0.296 N 
ATOM      3  N   UNL     1      32.782 -22.393 -18.072  0.00  0.00    -0.226 NA
ATOM      4  N   UNL     1      37.106 -22.215 -16.544  0.00  0.00    -0.224 NA
ATOM      5  C   UNL     1      34.911 -22.510 -17.001  0.00  0.00    +0.108 C 
ATOM      6  C   UNL     1      34.694 -21.235 -19.022  0.00  0.00    +0.076 C 
ATOM      7  C   UNL     1      33.501 -22.856 -17.068  0.00  0.00    +0.148 C 
ATOM      8  C   UNL     1      33.392 -21.594 -19.025  0.00  0.00    +0.115 C 
ATOM      9  C   UNL     1      36.799 -21.573 -17.651  0.00  0.00    +0.172 C 
ATOM     10  C   UNL     1      35.935 -22.801 -16.133  0.00  0.00    +0.118 C 
ATOM     11  H   UNL     1      33.488 -24.318 -15.676  0.00  0.00    +0.154 HD
ENDROOT
BRANCH   2  13
ATOM     12 CL   UNL     1      32.253 -25.226 -13.604  0.00  0.00    -0.081 Cl
ATOM     13  C   UNL     1      31.584 -23.605 -15.696  0.00  0.00    +0.060 C 
ATOM     14  C   UNL     1      31.158 -24.289 -14.557  0.00  0.00    +0.071 C 
ATOM     15  C   UNL     1      30.674 -22.858 -16.442  0.00  0.00    +0.015 C 
ATOM     16  C   UNL     1      29.820 -24.226 -14.166  0.00  0.00    +0.013 C 
ATOM     17  C   UNL     1      29.336 -22.795 -16.051  0.00  0.00    +0.001 C 
ATOM     18  C   UNL     1      28.910 -23.479 -14.912  0.00  0.00    +0.001 C 
ENDBRANCH   2  13
BRANCH   6  19
ATOM     19  C   UNL     1      35.226 -20.370 -20.087  0.00  0.00    +0.016 C 
ATOM     20  C   UNL     1      34.428 -20.043 -21.182  0.00  0.00    +0.001 C 
ATOM     21  C   UNL     1      36.528 -19.878 -20.001  0.00  0.00    +0.001 C 
ATOM     22  C   UNL     1      34.932 -19.224 -22.192  0.00  0.00    +0.000 C 
ATOM     23  C   UNL     1      37.032 -19.057 -21.010  0.00  0.00    +0.000 C 
ATOM     24  C   UNL     1      36.233 -18.731 -22.107  0.00  0.00    +0.000 C 
ENDBRANCH   6  19
TORSDOF 2
ENDMDL
MODEL 7
REMARK VINA RESULT:      -9.6     13.407     16.216
REMARK  Name = 44563262
REMARK  2 active torsions:
REMARK  status: ('A' for Active; 'I' for Inactive)
REMARK    1  A    between atoms: N_2  and  C_13
REMARK    2  A    between atoms: C_6  and  C_19
REMARK                            x       y       z     vdW  Elec       q    Type
REMARK                         _______ _______ _______ _____ _____    ______ ____
ROOT
ATOM      1  N   UNL     1      32.773 -23.165 -16.269  0.00  0.00    -0.243 N 
ATOM      2  N   UNL     1      36.032 -24.232 -14.852  0.00  0.00    -0.296 N 
ATOM      3  N   UNL     1      33.850 -24.465 -14.064  0.00  0.00    -0.226 NA
ATOM      4  N   UNL     1      33.689 -22.266 -18.089  0.00  0.00    -0.224 NA
ATOM      5  C   UNL     1      34.132 -23.351 -16.154  0.00  0.00    +0.108 C 
ATOM      6  C   UNL     1      31.917 -23.629 -15.274  0.00  0.00    +0.076 C 
ATOM      7  C   UNL     1      34.679 -24.033 -14.993  0.00  0.00    +0.148 C 
ATOM      8  C   UNL     1      32.491 -24.255 -14.222  0.00  0.00    +0.115 C 
ATOM      9  C   UNL     1      32.561 -22.512 -17.456  0.00  0.00    +0.172 C 
ATOM     10  C   UNL     1      34.672 -22.785 -17.284  0.00  0.00    +0.118 C 
ATOM     11  H   UNL     1      36.554 -24.330 -15.681  0.00  0.00    +0.154 HD
ENDROOT
BRANCH   2  13
ATOM     12 CL   UNL     1      37.194 -26.952 -14.171  0.00  0.00    -0.081 Cl
ATOM     13  C   UNL     1      36.742 -24.310 -13.657  0.00  0.00    +0.060 C 
ATOM     14  C   UNL     1      37.323 -25.505 -13.235  0.00  0.00    +0.071 C 
ATOM     15  C   UNL     1      36.865 -23.161 -12.876  0.00  0.00    +0.015 C 
ATOM     16  C   UNL     1      38.027 -25.552 -12.031  0.00  0.00    +0.013 C 
ATOM     17  C   UNL     1      37.569 -23.207 -11.673  0.00  0.00    +0.001 C 
ATOM     18  C   UNL     1      38.150 -24.403 -11.251  0.00  0.00    +0.001 C 
ENDBRANCH   2  13
BRANCH   6  19
ATOM     19  C   UNL     1      30.457 -23.455 -15.325  0.00  0.00    +0.016 C 
ATOM     20  C   UNL     1      29.677 -24.335 -16.075  0.00  0.00    +0.001 C 
ATOM     21  C   UNL     1      29.854 -22.411 -14.626  0.00  0.00    +0.001 C 
ATOM     22  C   UNL     1      28.293 -24.170 -16.125  0.00  0.00    +0.000 C 
ATOM     23  C   UNL     1      28.469 -22.246 -14.675  0.00  0.00    +0.000 C 
ATOM     24  C   UNL     1      27.689 -23.126 -15.425  0.00  0.00    +0.000 C 
ENDBRANCH   6  19
TORSDOF 2
ENDMDL
MODEL 8
REMARK VINA RESULT:      -9.5      2.414      7.280
REMARK  Name = 44563262
REMARK  2 active torsions:
REMARK  status: ('A' for Active; 'I' for Inactive)
REMARK    1  A    between atoms: N_2  and  C_13
REMARK    2  A    between atoms: C_6  and  C_19
REMARK                            x       y       z     vdW  Elec       q    Type
REMARK                         _______ _______ _______ _____ _____    ______ ____
ROOT
ATOM      1  N   UNL     1      32.316 -10.203 -22.194  0.00  0.00    -0.243 N 
ATOM      2  N   UNL     1      33.440 -13.737 -22.060  0.00  0.00    -0.296 N 
ATOM      3  N   UNL     1      34.172 -11.927 -23.334  0.00  0.00    -0.226 NA
ATOM      4  N   UNL     1      30.747 -10.487 -20.640  0.00  0.00    -0.224 NA
ATOM      5  C   UNL     1      32.379 -11.524 -21.814  0.00  0.00    +0.108 C 
ATOM      6  C   UNL     1      33.188  -9.713 -23.163  0.00  0.00    +0.076 C 
ATOM      7  C   UNL     1      33.356 -12.413 -22.421  0.00  0.00    +0.148 C 
ATOM      8  C   UNL     1      34.072 -10.591 -23.686  0.00  0.00    +0.115 C 
ATOM      9  C   UNL     1      31.321  -9.624 -21.452  0.00  0.00    +0.172 C 
ATOM     10  C   UNL     1      31.401 -11.674 -20.860  0.00  0.00    +0.118 C 
ATOM     11  H   UNL     1      33.186 -13.961 -21.135  0.00  0.00    +0.154 HD
ENDROOT
BRANCH   2  13
ATOM     12 CL   UNL     1      35.035 -15.921 -20.683  0.00  0.00    -0.081 Cl
ATOM     13  C   UNL     1      33.848 -14.795 -22.867  0.00  0.00    +0.060 C 
ATOM     14  C   UNL     1      34.587 -15.859 -22.350  0.00  0.00    +0.071 C 
ATOM     15  C   UNL     1      33.504 -14.777 -24.218  0.00  0.00    +0.015 C 
ATOM     16  C   UNL     1      34.983 -16.905 -23.185  0.00  0.00    +0.013 C 
ATOM     17  C   UNL     1      33.899 -15.823 -25.053  0.00  0.00    +0.001 C 
ATOM     18  C   UNL     1      34.638 -16.887 -24.536  0.00  0.00    +0.001 C 
ENDBRANCH   2  13
BRANCH   6  19
ATOM     19  C   UNL     1      33.169  -8.317 -23.626  0.00  0.00    +0.016 C 
ATOM     20  C   UNL     1      34.186  -7.442 -23.243  0.00  0.00    +0.001 C 
ATOM     21  C   UNL     1      32.136  -7.868 -24.447  0.00  0.00    +0.001 C 
ATOM     22  C   UNL     1      34.169  -6.118 -23.681  0.00  0.00    +0.000 C 
ATOM     23  C   UNL     1      32.119  -6.543 -24.886  0.00  0.00    +0.000 C 
ATOM     24  C   UNL     1      33.136  -5.668 -24.503  0.00  0.00    +0.000 C 
ENDBRANCH   6  19
TORSDOF 2
ENDMDL
MODEL 9
REMARK VINA RESULT:      -9.4      2.147      3.736
REMARK  Name = 44563262
REMARK  2 active torsions:
REMARK  status: ('A' for Active; 'I' for Inactive)
REMARK    1  A    between atoms: N_2  and  C_13
REMARK    2  A    between atoms: C_6  and  C_19
REMARK                            x       y       z     vdW  Elec       q    Type
REMARK                         _______ _______ _______ _____ _____    ______ ____
ROOT
ATOM      1  N   UNL     1      33.949 -15.154 -24.028  0.00  0.00    -0.243 N 
ATOM      2  N   UNL     1      33.300 -11.508 -23.797  0.00  0.00    -0.296 N 
ATOM      3  N   UNL     1      34.256 -13.009 -22.291  0.00  0.00    -0.226 NA
ATOM      4  N   UNL     1      33.109 -15.326 -26.083  0.00  0.00    -0.224 NA
ATOM      5  C   UNL     1      33.536 -13.892 -24.386  0.00  0.00    +0.108 C 
ATOM      6  C   UNL     1      34.529 -15.372 -22.781  0.00  0.00    +0.076 C 
ATOM      7  C   UNL     1      33.704 -12.780 -23.465  0.00  0.00    +0.148 C 
ATOM      8  C   UNL     1      34.656 -14.297 -21.973  0.00  0.00    +0.115 C 
ATOM      9  C   UNL     1      33.674 -15.978 -25.089  0.00  0.00    +0.172 C 
ATOM     10  C   UNL     1      33.020 -14.025 -25.653  0.00  0.00    +0.118 C 
ATOM     11  H   UNL     1      33.327 -11.271 -24.752  0.00  0.00    +0.154 HD
ENDROOT
BRANCH   2  13
ATOM     12 CL   UNL     1      35.014  -9.009 -23.632  0.00  0.00    -0.081 Cl
ATOM     13  C   UNL     1      32.855 -10.521 -22.922  0.00  0.00    +0.060 C 
ATOM     14  C   UNL     1      33.558  -9.327 -22.758  0.00  0.00    +0.071 C 
ATOM     15  C   UNL     1      31.683 -10.745 -22.201  0.00  0.00    +0.015 C 
ATOM     16  C   UNL     1      33.088  -8.357 -21.872  0.00  0.00    +0.013 C 
ATOM     17  C   UNL     1      31.213  -9.775 -21.315  0.00  0.00    +0.001 C 
ATOM     18  C   UNL     1      31.916  -8.581 -21.151  0.00  0.00    +0.001 C 
ENDBRANCH   2  13
BRANCH   6  19
ATOM     19  C   UNL     1      34.981 -16.697 -22.327  0.00  0.00    +0.016 C 
ATOM     20  C   UNL     1      35.011 -17.767 -23.221  0.00  0.00    +0.001 C 
ATOM     21  C   UNL     1      35.382 -16.882 -21.005  0.00  0.00    +0.001 C 
ATOM     22  C   UNL     1      35.439 -19.022 -22.792  0.00  0.00    +0.000 C 
ATOM     23  C   UNL     1      35.811 -18.138 -20.575  0.00  0.00    +0.000 C 
ATOM     24  C   UNL     1      35.839 -19.209 -21.469  0.00  0.00    +0.000 C 
ENDBRANCH   6  19
TORSDOF 2
ENDMDL
