MODEL 1
REMARK VINA RESULT:     -11.5      0.000      0.000
REMARK  Name = 24941254
REMARK  6 active torsions:
REMARK  status: ('A' for Active; 'I' for Inactive)
REMARK    1  A    between atoms: C_1  and  S_21
REMARK    2  A    between atoms: C_4  and  C_9
REMARK    3  A    between atoms: N_8  and  C_11
REMARK    4  A    between atoms: C_12  and  C_18
REMARK    5  A    between atoms: C_18  and  O_19
REMARK    6  A    between atoms: S_21  and  N_24
REMARK                            x       y       z     vdW  Elec       q    Type
REMARK                         _______ _______ _______ _____ _____    ______ ____
ROOT
ATOM      1  C   UNL     1      35.099 -19.742 -20.698  0.00  0.00    +0.122 C 
ATOM      2  C   UNL     1      35.263 -20.780 -19.781  0.00  0.00    +0.024 C 
ATOM      3  C   UNL     1      33.819 -19.380 -21.119  0.00  0.00    +0.020 C 
ATOM      4  C   UNL     1      34.148 -21.457 -19.286  0.00  0.00    +0.055 C 
ATOM      5  C   UNL     1      32.704 -20.057 -20.624  0.00  0.00    +0.002 C 
ATOM      6  C   UNL     1      32.869 -21.095 -19.707  0.00  0.00    +0.005 C 
ENDROOT
BRANCH   4   9
ATOM      7  O   UNL     1      34.184 -23.712 -18.715  0.00  0.00    -0.270 OA
ATOM      8  N   UNL     1      34.655 -22.155 -17.024  0.00  0.00    -0.280 N 
ATOM      9  C   UNL     1      34.319 -22.539 -18.329  0.00  0.00    +0.250 C 
ATOM     10  H   UNL     1      34.727 -21.186 -16.868  0.00  0.00    +0.155 HD
BRANCH   8  11
ATOM     11  C   UNL     1      34.907 -22.978 -15.899  0.00  0.00    +0.057 C 
ATOM     12  C   UNL     1      36.193 -23.106 -15.375  0.00  0.00    +0.089 C 
ATOM     13  C   UNL     1      33.844 -23.668 -15.315  0.00  0.00    +0.015 C 
ATOM     14  C   UNL     1      36.416 -23.923 -14.266  0.00  0.00    +0.008 C 
ATOM     15  C   UNL     1      34.068 -24.486 -14.207  0.00  0.00    +0.001 C 
ATOM     16  C   UNL     1      35.354 -24.613 -13.683  0.00  0.00    +0.000 C 
BRANCH  12  18
ATOM     17  O   UNL     1      37.271 -21.293 -16.502  0.00  0.00    -0.245 OA
ATOM     18  C   UNL     1      37.326 -22.399 -15.960  0.00  0.00    +0.339 C 
BRANCH  18  19
ATOM     19  O   UNL     1      38.486 -23.099 -15.847  0.00  0.00    -0.477 OA
ATOM     20  H   UNL     1      39.118 -23.073 -16.539  0.00  0.00    +0.295 HD
ENDBRANCH  18  19
ENDBRANCH  12  18
ENDBRANCH   8  11
ENDBRANCH   4   9
BRANCH   1  21
ATOM     21  S   UNL     1      36.509 -18.887 -21.326  0.00  0.00    +0.064 S 
ATOM     22  O   UNL     1      37.442 -18.708 -20.234  0.00  0.00    -0.153 OA
ATOM     23  O   UNL     1      36.916 -19.540 -22.553  0.00  0.00    -0.153 OA
BRANCH  21  24
ATOM     24  N   UNL     1      35.798 -17.377 -21.710  0.00  0.00    -0.151 NA
ATOM     25  C   UNL     1      34.970 -16.760 -20.639  0.00  0.00    +0.101 C 
ATOM     26  C   UNL     1      35.131 -17.303 -23.045  0.00  0.00    +0.122 C 
ATOM     27  C   UNL     1      34.827 -15.268 -20.929  0.00  0.00    +0.045 C 
ATOM     28  C   UNL     1      34.504 -15.962 -23.342  0.00  0.00    -0.008 C 
ATOM     29  C   UNL     1      34.328 -15.005 -22.327  0.00  0.00    -0.023 C 
ATOM     30  C   UNL     1      34.053 -15.683 -24.639  0.00  0.00    -0.003 C 
ATOM     31  C   UNL     1      33.737 -13.772 -22.635  0.00  0.00    -0.004 C 
ATOM     32  C   UNL     1      33.455 -14.458 -24.933  0.00  0.00    -0.000 C 
ATOM     33  C   UNL     1      33.299 -13.502 -23.931  0.00  0.00    -0.000 C 
ENDBRANCH  21  24
ENDBRANCH   1  21
TORSDOF 6
ENDMDL
MODEL 2
REMARK VINA RESULT:     -11.4      7.093     11.119
REMARK  Name = 24941254
REMARK  6 active torsions:
REMARK  status: ('A' for Active; 'I' for Inactive)
REMARK    1  A    between atoms: C_1  and  S_21
REMARK    2  A    between atoms: C_4  and  C_9
REMARK    3  A    between atoms: N_8  and  C_11
REMARK    4  A    between atoms: C_12  and  C_18
REMARK    5  A    between atoms: C_18  and  O_19
REMARK    6  A    between atoms: S_21  and  N_24
REMARK                            x       y       z     vdW  Elec       q    Type
REMARK                         _______ _______ _______ _____ _____    ______ ____
ROOT
ATOM      1  C   UNL     1      32.001  -8.714 -20.483  0.00  0.00    +0.122 C 
ATOM      2  C   UNL     1      32.493  -9.536 -21.497  0.00  0.00    +0.024 C 
ATOM      3  C   UNL     1      31.240  -9.263 -19.450  0.00  0.00    +0.020 C 
ATOM      4  C   UNL     1      32.225 -10.904 -21.479  0.00  0.00    +0.055 C 
ATOM      5  C   UNL     1      30.972 -10.632 -19.431  0.00  0.00    +0.002 C 
ATOM      6  C   UNL     1      31.465 -11.452 -20.446  0.00  0.00    +0.005 C 
ENDROOT
BRANCH   4   9
ATOM      7  O   UNL     1      32.977 -11.268 -23.650  0.00  0.00    -0.270 OA
ATOM      8  N   UNL     1      32.953 -13.102 -22.187  0.00  0.00    -0.280 N 
ATOM      9  C   UNL     1      32.740 -11.761 -22.536  0.00  0.00    +0.250 C 
ATOM     10  H   UNL     1      32.717 -13.347 -21.263  0.00  0.00    +0.155 HD
BRANCH   8  11
ATOM     11  C   UNL     1      33.464 -14.151 -22.990  0.00  0.00    +0.057 C 
ATOM     12  C   UNL     1      34.332 -15.105 -22.458  0.00  0.00    +0.089 C 
ATOM     13  C   UNL     1      33.086 -14.222 -24.331  0.00  0.00    +0.015 C 
ATOM     14  C   UNL     1      34.822 -16.130 -23.269  0.00  0.00    +0.008 C 
ATOM     15  C   UNL     1      33.578 -15.246 -25.141  0.00  0.00    +0.001 C 
ATOM     16  C   UNL     1      34.445 -16.199 -24.610  0.00  0.00    +0.000 C 
BRANCH  12  18
ATOM     17  O   UNL     1      34.868 -14.036 -20.387  0.00  0.00    -0.245 OA
ATOM     18  C   UNL     1      34.746 -15.061 -21.062  0.00  0.00    +0.339 C 
BRANCH  18  19
ATOM     19  O   UNL     1      34.994 -16.299 -20.557  0.00  0.00    -0.477 OA
ATOM     20  H   UNL     1      35.737 -16.440 -20.004  0.00  0.00    +0.295 HD
ENDBRANCH  18  19
ENDBRANCH  12  18
ENDBRANCH   8  11
ENDBRANCH   4   9
BRANCH   1  21
ATOM     21  S   UNL     1      32.337  -6.981 -20.507  0.00  0.00    +0.064 S 
ATOM     22  O   UNL     1      31.072  -6.287 -20.626  0.00  0.00    -0.153 OA
ATOM     23  O   UNL     1      33.247  -6.690 -19.419  0.00  0.00    -0.153 OA
BRANCH  21  24
ATOM     24  N   UNL     1      33.185  -6.861 -21.990  0.00  0.00    -0.151 NA
ATOM     25  C   UNL     1      34.658  -7.047 -21.911  0.00  0.00    +0.101 C 
ATOM     26  C   UNL     1      32.814  -5.694 -22.847  0.00  0.00    +0.122 C 
ATOM     27  C   UNL     1      35.183  -7.394 -23.302  0.00  0.00    +0.045 C 
ATOM     28  C   UNL     1      33.591  -5.613 -24.140  0.00  0.00    -0.008 C 
ATOM     29  C   UNL     1      34.739  -6.398 -24.343  0.00  0.00    -0.023 C 
ATOM     30  C   UNL     1      33.185  -4.712 -25.133  0.00  0.00    -0.003 C 
ATOM     31  C   UNL     1      35.442  -6.293 -25.552  0.00  0.00    -0.004 C 
ATOM     32  C   UNL     1      33.898  -4.607 -26.327  0.00  0.00    -0.000 C 
ATOM     33  C   UNL     1      35.025  -5.399 -26.536  0.00  0.00    -0.000 C 
ENDBRANCH  21  24
ENDBRANCH   1  21
TORSDOF 6
ENDMDL
MODEL 3
REMARK VINA RESULT:     -11.3      1.423      2.354
REMARK  Name = 24941254
REMARK  6 active torsions:
REMARK  status: ('A' for Active; 'I' for Inactive)
REMARK    1  A    between atoms: C_1  and  S_21
REMARK    2  A    between atoms: C_4  and  C_9
REMARK    3  A    between atoms: N_8  and  C_11
REMARK    4  A    between atoms: C_12  and  C_18
REMARK    5  A    between atoms: C_18  and  O_19
REMARK    6  A    between atoms: S_21  and  N_24
REMARK                            x       y       z     vdW  Elec       q    Type
REMARK                         _______ _______ _______ _____ _____    ______ ____
ROOT
ATOM      1  C   UNL     1      35.320 -19.682 -20.895  0.00  0.00    +0.122 C 
ATOM      2  C   UNL     1      35.694 -20.466 -19.803  0.00  0.00    +0.024 C 
ATOM      3  C   UNL     1      33.981 -19.622 -21.283  0.00  0.00    +0.020 C 
ATOM      4  C   UNL     1      34.730 -21.191 -19.102  0.00  0.00    +0.055 C 
ATOM      5  C   UNL     1      33.018 -20.347 -20.582  0.00  0.00    +0.002 C 
ATOM      6  C   UNL     1      33.393 -21.131 -19.491  0.00  0.00    +0.005 C 
ENDROOT
BRANCH   4   9
ATOM      7  O   UNL     1      36.318 -22.296 -17.809  0.00  0.00    -0.270 OA
ATOM      8  N   UNL     1      34.083 -22.391 -17.101  0.00  0.00    -0.280 N 
ATOM      9  C   UNL     1      35.120 -22.008 -17.964  0.00  0.00    +0.250 C 
ATOM     10  H   UNL     1      33.182 -22.087 -17.355  0.00  0.00    +0.155 HD
BRANCH   8  11
ATOM     11  C   UNL     1      34.162 -23.156 -15.912  0.00  0.00    +0.057 C 
ATOM     12  C   UNL     1      33.021 -23.435 -15.160  0.00  0.00    +0.089 C 
ATOM     13  C   UNL     1      35.405 -23.633 -15.497  0.00  0.00    +0.015 C 
ATOM     14  C   UNL     1      33.124 -24.192 -13.992  0.00  0.00    +0.008 C 
ATOM     15  C   UNL     1      35.508 -24.388 -14.328  0.00  0.00    +0.001 C 
ATOM     16  C   UNL     1      34.367 -24.667 -13.577  0.00  0.00    +0.000 C 
BRANCH  12  18
ATOM     17  O   UNL     1      31.342 -22.772 -16.730  0.00  0.00    -0.245 OA
ATOM     18  C   UNL     1      31.707 -22.953 -15.566  0.00  0.00    +0.339 C 
BRANCH  18  19
ATOM     19  O   UNL     1      30.893 -22.713 -14.502  0.00  0.00    -0.477 OA
ATOM     20  H   UNL     1      30.779 -21.837 -14.189  0.00  0.00    +0.295 HD
ENDBRANCH  18  19
ENDBRANCH  12  18
ENDBRANCH   8  11
ENDBRANCH   4   9
BRANCH   1  21
ATOM     21  S   UNL     1      36.539 -18.766 -21.784  0.00  0.00    +0.064 S 
ATOM     22  O   UNL     1      37.727 -18.693 -20.959  0.00  0.00    -0.153 OA
ATOM     23  O   UNL     1      36.599 -19.296 -23.131  0.00  0.00    -0.153 OA
BRANCH  21  24
ATOM     24  N   UNL     1      35.789 -17.228 -21.825  0.00  0.00    -0.151 NA
ATOM     25  C   UNL     1      34.984 -16.867 -20.627  0.00  0.00    +0.101 C 
ATOM     26  C   UNL     1      35.077 -16.895 -23.096  0.00  0.00    +0.122 C 
ATOM     27  C   UNL     1      34.805 -15.352 -20.596  0.00  0.00    +0.045 C 
ATOM     28  C   UNL     1      34.416 -15.537 -23.090  0.00  0.00    -0.008 C 
ATOM     29  C   UNL     1      34.256 -14.816 -21.894  0.00  0.00    -0.023 C 
ATOM     30  C   UNL     1      33.919 -15.007 -24.288  0.00  0.00    -0.003 C 
ATOM     31  C   UNL     1      33.633 -13.561 -21.922  0.00  0.00    -0.004 C 
ATOM     32  C   UNL     1      33.289 -13.762 -24.303  0.00  0.00    -0.000 C 
ATOM     33  C   UNL     1      33.148 -13.039 -23.121  0.00  0.00    -0.000 C 
ENDBRANCH  21  24
ENDBRANCH   1  21
TORSDOF 6
ENDMDL
MODEL 4
REMARK VINA RESULT:     -11.3      1.365      2.507
REMARK  Name = 24941254
REMARK  6 active torsions:
REMARK  status: ('A' for Active; 'I' for Inactive)
REMARK    1  A    between atoms: C_1  and  S_21
REMARK    2  A    between atoms: C_4  and  C_9
REMARK    3  A    between atoms: N_8  and  C_11
REMARK    4  A    between atoms: C_12  and  C_18
REMARK    5  A    between atoms: C_18  and  O_19
REMARK    6  A    between atoms: S_21  and  N_24
REMARK                            x       y       z     vdW  Elec       q    Type
REMARK                         _______ _______ _______ _____ _____    ______ ____
ROOT
ATOM      1  C   UNL     1      34.840 -19.680 -20.626  0.00  0.00    +0.122 C 
ATOM      2  C   UNL     1      35.165 -20.690 -19.722  0.00  0.00    +0.024 C 
ATOM      3  C   UNL     1      33.507 -19.455 -20.970  0.00  0.00    +0.020 C 
ATOM      4  C   UNL     1      34.158 -21.476 -19.162  0.00  0.00    +0.055 C 
ATOM      5  C   UNL     1      32.500 -20.241 -20.410  0.00  0.00    +0.002 C 
ATOM      6  C   UNL     1      32.826 -21.252 -19.505  0.00  0.00    +0.005 C 
ENDROOT
BRANCH   4   9
ATOM      7  O   UNL     1      34.423 -23.714 -18.582  0.00  0.00    -0.270 OA
ATOM      8  N   UNL     1      34.915 -22.104 -16.949  0.00  0.00    -0.280 N 
ATOM      9  C   UNL     1      34.497 -22.530 -18.218  0.00  0.00    +0.250 C 
ATOM     10  H   UNL     1      34.923 -21.130 -16.806  0.00  0.00    +0.155 HD
BRANCH   8  11
ATOM     11  C   UNL     1      35.328 -22.890 -15.846  0.00  0.00    +0.057 C 
ATOM     12  C   UNL     1      34.397 -23.424 -14.955  0.00  0.00    +0.089 C 
ATOM     13  C   UNL     1      36.690 -23.128 -15.658  0.00  0.00    +0.015 C 
ATOM     14  C   UNL     1      34.829 -24.196 -13.876  0.00  0.00    +0.008 C 
ATOM     15  C   UNL     1      37.120 -23.899 -14.578  0.00  0.00    +0.001 C 
ATOM     16  C   UNL     1      36.190 -24.433 -13.688  0.00  0.00    +0.000 C 
BRANCH  12  18
ATOM     17  O   UNL     1      32.284 -23.613 -16.059  0.00  0.00    -0.245 OA
ATOM     18  C   UNL     1      32.967 -23.195 -15.122  0.00  0.00    +0.339 C 
BRANCH  18  19
ATOM     19  O   UNL     1      32.441 -22.451 -14.112  0.00  0.00    -0.477 OA
ATOM     20  H   UNL     1      31.781 -21.813 -14.295  0.00  0.00    +0.295 HD
ENDBRANCH  18  19
ENDBRANCH  12  18
ENDBRANCH   8  11
ENDBRANCH   4   9
BRANCH   1  21
ATOM     21  S   UNL     1      36.114 -18.686 -21.337  0.00  0.00    +0.064 S 
ATOM     22  O   UNL     1      37.047 -18.342 -20.285  0.00  0.00    -0.153 OA
ATOM     23  O   UNL     1      36.566 -19.341 -22.548  0.00  0.00    -0.153 OA
BRANCH  21  24
ATOM     24  N   UNL     1      35.209 -17.296 -21.761  0.00  0.00    -0.151 NA
ATOM     25  C   UNL     1      35.636 -16.598 -23.004  0.00  0.00    +0.101 C 
ATOM     26  C   UNL     1      34.944 -16.338 -20.645  0.00  0.00    +0.122 C 
ATOM     27  C   UNL     1      34.485 -15.724 -23.494  0.00  0.00    +0.045 C 
ATOM     28  C   UNL     1      34.156 -15.119 -21.059  0.00  0.00    -0.008 C 
ATOM     29  C   UNL     1      33.965 -14.807 -22.417  0.00  0.00    -0.023 C 
ATOM     30  C   UNL     1      33.642 -14.263 -20.075  0.00  0.00    -0.003 C 
ATOM     31  C   UNL     1      33.234 -13.664 -22.767  0.00  0.00    -0.004 C 
ATOM     32  C   UNL     1      32.926 -13.121 -20.435  0.00  0.00    -0.000 C 
ATOM     33  C   UNL     1      32.720 -12.824 -21.780  0.00  0.00    -0.000 C 
ENDBRANCH  21  24
ENDBRANCH   1  21
TORSDOF 6
ENDMDL
MODEL 5
REMARK VINA RESULT:     -11.1      3.844      9.355
REMARK  Name = 24941254
REMARK  6 active torsions:
REMARK  status: ('A' for Active; 'I' for Inactive)
REMARK    1  A    between atoms: C_1  and  S_21
REMARK    2  A    between atoms: C_4  and  C_9
REMARK    3  A    between atoms: N_8  and  C_11
REMARK    4  A    between atoms: C_12  and  C_18
REMARK    5  A    between atoms: C_18  and  O_19
REMARK    6  A    between atoms: S_21  and  N_24
REMARK                            x       y       z     vdW  Elec       q    Type
REMARK                         _______ _______ _______ _____ _____    ______ ____
ROOT
ATOM      1  C   UNL     1      36.621 -23.881 -13.901  0.00  0.00    +0.122 C 
ATOM      2  C   UNL     1      36.349 -22.890 -14.844  0.00  0.00    +0.024 C 
ATOM      3  C   UNL     1      37.855 -24.533 -13.911  0.00  0.00    +0.020 C 
ATOM      4  C   UNL     1      37.311 -22.550 -15.795  0.00  0.00    +0.055 C 
ATOM      5  C   UNL     1      38.816 -24.193 -14.863  0.00  0.00    +0.002 C 
ATOM      6  C   UNL     1      38.543 -23.201 -15.805  0.00  0.00    +0.005 C 
ENDROOT
BRANCH   4   9
ATOM      7  O   UNL     1      37.517 -20.385 -16.622  0.00  0.00    -0.270 OA
ATOM      8  N   UNL     1      36.224 -21.902 -17.860  0.00  0.00    -0.280 N 
ATOM      9  C   UNL     1      37.028 -21.515 -16.778  0.00  0.00    +0.250 C 
ATOM     10  H   UNL     1      35.909 -22.834 -17.847  0.00  0.00    +0.155 HD
BRANCH   8  11
ATOM     11  C   UNL     1      35.808 -21.127 -18.970  0.00  0.00    +0.057 C 
ATOM     12  C   UNL     1      34.514 -21.241 -19.481  0.00  0.00    +0.089 C 
ATOM     13  C   UNL     1      36.713 -20.241 -19.554  0.00  0.00    +0.015 C 
ATOM     14  C   UNL     1      34.127 -20.467 -20.576  0.00  0.00    +0.008 C 
ATOM     15  C   UNL     1      36.325 -19.469 -20.649  0.00  0.00    +0.001 C 
ATOM     16  C   UNL     1      35.033 -19.582 -21.159  0.00  0.00    +0.000 C 
BRANCH  12  18
ATOM     17  O   UNL     1      32.449 -21.832 -18.430  0.00  0.00    -0.245 OA
ATOM     18  C   UNL     1      33.543 -22.157 -18.895  0.00  0.00    +0.339 C 
BRANCH  18  19
ATOM     19  O   UNL     1      33.975 -23.446 -18.911  0.00  0.00    -0.477 OA
ATOM     20  H   UNL     1      34.210 -23.852 -19.722  0.00  0.00    +0.295 HD
ENDBRANCH  18  19
ENDBRANCH  12  18
ENDBRANCH   8  11
ENDBRANCH   4   9
BRANCH   1  21
ATOM     21  S   UNL     1      35.404 -24.314 -12.697  0.00  0.00    +0.064 S 
ATOM     22  O   UNL     1      35.607 -25.703 -12.343  0.00  0.00    -0.153 OA
ATOM     23  O   UNL     1      35.395 -23.280 -11.683  0.00  0.00    -0.153 OA
BRANCH  21  24
ATOM     24  N   UNL     1      33.984 -24.177 -13.643  0.00  0.00    -0.151 NA
ATOM     25  C   UNL     1      33.714 -22.832 -14.218  0.00  0.00    +0.101 C 
ATOM     26  C   UNL     1      32.756 -24.787 -13.048  0.00  0.00    +0.122 C 
ATOM     27  C   UNL     1      32.741 -22.984 -15.383  0.00  0.00    +0.045 C 
ATOM     28  C   UNL     1      31.521 -24.636 -13.903  0.00  0.00    -0.008 C 
ATOM     29  C   UNL     1      31.503 -23.752 -14.996  0.00  0.00    -0.023 C 
ATOM     30  C   UNL     1      30.364 -25.356 -13.578  0.00  0.00    -0.003 C 
ATOM     31  C   UNL     1      30.338 -23.630 -15.766  0.00  0.00    -0.004 C 
ATOM     32  C   UNL     1      29.206 -25.218 -14.344  0.00  0.00    -0.000 C 
ATOM     33  C   UNL     1      29.195 -24.357 -15.439  0.00  0.00    -0.000 C 
ENDBRANCH  21  24
ENDBRANCH   1  21
TORSDOF 6
ENDMDL
MODEL 6
REMARK VINA RESULT:     -11.1      7.344     11.260
REMARK  Name = 24941254
REMARK  6 active torsions:
REMARK  status: ('A' for Active; 'I' for Inactive)
REMARK    1  A    between atoms: C_1  and  S_21
REMARK    2  A    between atoms: C_4  and  C_9
REMARK    3  A    between atoms: N_8  and  C_11
REMARK    4  A    between atoms: C_12  and  C_18
REMARK    5  A    between atoms: C_18  and  O_19
REMARK    6  A    between atoms: S_21  and  N_24
REMARK                            x       y       z     vdW  Elec       q    Type
REMARK                         _______ _______ _______ _____ _____    ______ ____
ROOT
ATOM      1  C   UNL     1      32.371  -9.528 -22.160  0.00  0.00    +0.122 C 
ATOM      2  C   UNL     1      32.646 -10.891 -22.273  0.00  0.00    +0.024 C 
ATOM      3  C   UNL     1      31.782  -9.031 -20.997  0.00  0.00    +0.020 C 
ATOM      4  C   UNL     1      32.332 -11.755 -21.225  0.00  0.00    +0.055 C 
ATOM      5  C   UNL     1      31.468  -9.895 -19.948  0.00  0.00    +0.002 C 
ATOM      6  C   UNL     1      31.744 -11.258 -20.063  0.00  0.00    +0.005 C 
ENDROOT
BRANCH   4   9
ATOM      7  O   UNL     1      31.878 -13.992 -20.772  0.00  0.00    -0.270 OA
ATOM      8  N   UNL     1      33.727 -13.513 -22.134  0.00  0.00    -0.280 N 
ATOM      9  C   UNL     1      32.620 -13.176 -21.343  0.00  0.00    +0.250 C 
ATOM     10  H   UNL     1      34.221 -12.756 -22.523  0.00  0.00    +0.155 HD
BRANCH   8  11
ATOM     11  C   UNL     1      34.228 -14.800 -22.448  0.00  0.00    +0.057 C 
ATOM     12  C   UNL     1      34.094 -15.330 -23.732  0.00  0.00    +0.089 C 
ATOM     13  C   UNL     1      34.863 -15.540 -21.451  0.00  0.00    +0.015 C 
ATOM     14  C   UNL     1      34.596 -16.600 -24.017  0.00  0.00    +0.008 C 
ATOM     15  C   UNL     1      35.364 -16.811 -21.737  0.00  0.00    +0.001 C 
ATOM     16  C   UNL     1      35.230 -17.340 -23.020  0.00  0.00    +0.000 C 
BRANCH  12  18
ATOM     17  O   UNL     1      33.233 -13.367 -24.794  0.00  0.00    -0.245 OA
ATOM     18  C   UNL     1      33.436 -14.583 -24.797  0.00  0.00    +0.339 C 
BRANCH  18  19
ATOM     19  O   UNL     1      33.054 -15.383 -25.829  0.00  0.00    -0.477 OA
ATOM     20  H   UNL     1      32.841 -15.006 -26.659  0.00  0.00    +0.295 HD
ENDBRANCH  18  19
ENDBRANCH  12  18
ENDBRANCH   8  11
ENDBRANCH   4   9
BRANCH   1  21
ATOM     21  S   UNL     1      32.765  -8.433 -23.487  0.00  0.00    +0.064 S 
ATOM     22  O   UNL     1      34.207  -8.322 -23.556  0.00  0.00    -0.153 OA
ATOM     23  O   UNL     1      31.993  -8.839 -24.643  0.00  0.00    -0.153 OA
BRANCH  21  24
ATOM     24  N   UNL     1      32.119  -6.971 -22.872  0.00  0.00    -0.151 NA
ATOM     25  C   UNL     1      30.663  -6.982 -22.570  0.00  0.00    +0.101 C 
ATOM     26  C   UNL     1      32.529  -5.733 -23.600  0.00  0.00    +0.122 C 
ATOM     27  C   UNL     1      30.354  -5.837 -21.610  0.00  0.00    +0.045 C 
ATOM     28  C   UNL     1      31.930  -4.465 -23.039  0.00  0.00    -0.008 C 
ATOM     29  C   UNL     1      30.871  -4.514 -22.116  0.00  0.00    -0.023 C 
ATOM     30  C   UNL     1      32.409  -3.223 -23.475  0.00  0.00    -0.003 C 
ATOM     31  C   UNL     1      30.333  -3.319 -21.619  0.00  0.00    -0.004 C 
ATOM     32  C   UNL     1      31.858  -2.040 -22.983  0.00  0.00    -0.000 C 
ATOM     33  C   UNL     1      30.822  -2.089 -22.054  0.00  0.00    -0.000 C 
ENDBRANCH  21  24
ENDBRANCH   1  21
TORSDOF 6
ENDMDL
MODEL 7
REMARK VINA RESULT:     -11.1      5.622      9.225
REMARK  Name = 24941254
REMARK  6 active torsions:
REMARK  status: ('A' for Active; 'I' for Inactive)
REMARK    1  A    between atoms: C_1  and  S_21
REMARK    2  A    between atoms: C_4  and  C_9
REMARK    3  A    between atoms: N_8  and  C_11
REMARK    4  A    between atoms: C_12  and  C_18
REMARK    5  A    between atoms: C_18  and  O_19
REMARK    6  A    between atoms: S_21  and  N_24
REMARK                            x       y       z     vdW  Elec       q    Type
REMARK                         _______ _______ _______ _____ _____    ______ ____
ROOT
ATOM      1  C   UNL     1      32.555 -11.655 -21.659  0.00  0.00    +0.122 C 
ATOM      2  C   UNL     1      33.022 -12.883 -21.190  0.00  0.00    +0.024 C 
ATOM      3  C   UNL     1      32.923 -11.209 -22.929  0.00  0.00    +0.020 C 
ATOM      4  C   UNL     1      33.857 -13.664 -21.990  0.00  0.00    +0.055 C 
ATOM      5  C   UNL     1      33.757 -11.990 -23.729  0.00  0.00    +0.002 C 
ATOM      6  C   UNL     1      34.224 -13.218 -23.258  0.00  0.00    +0.005 C 
ENDROOT
BRANCH   4   9
ATOM      7  O   UNL     1      34.506 -15.102 -20.280  0.00  0.00    -0.270 OA
ATOM      8  N   UNL     1      34.570 -15.926 -22.476  0.00  0.00    -0.280 N 
ATOM      9  C   UNL     1      34.343 -14.944 -21.501  0.00  0.00    +0.250 C 
ATOM     10  H   UNL     1      34.396 -15.653 -23.405  0.00  0.00    +0.155 HD
BRANCH   8  11
ATOM     11  C   UNL     1      35.014 -17.259 -22.298  0.00  0.00    +0.057 C 
ATOM     12  C   UNL     1      34.770 -18.233 -23.267  0.00  0.00    +0.089 C 
ATOM     13  C   UNL     1      35.705 -17.592 -21.133  0.00  0.00    +0.015 C 
ATOM     14  C   UNL     1      35.218 -19.539 -23.070  0.00  0.00    +0.008 C 
ATOM     15  C   UNL     1      36.151 -18.899 -20.936  0.00  0.00    +0.001 C 
ATOM     16  C   UNL     1      35.907 -19.872 -21.905  0.00  0.00    +0.000 C 
BRANCH  12  18
ATOM     17  O   UNL     1      33.084 -18.544 -24.935  0.00  0.00    -0.245 OA
ATOM     18  C   UNL     1      34.052 -17.918 -24.496  0.00  0.00    +0.339 C 
BRANCH  18  19
ATOM     19  O   UNL     1      34.568 -16.833 -25.133  0.00  0.00    -0.477 OA
ATOM     20  H   UNL     1      35.495 -16.749 -25.239  0.00  0.00    +0.295 HD
ENDBRANCH  18  19
ENDBRANCH  12  18
ENDBRANCH   8  11
ENDBRANCH   4   9
BRANCH   1  21
ATOM     21  S   UNL     1      31.501 -10.665 -20.647  0.00  0.00    +0.064 S 
ATOM     22  O   UNL     1      30.131 -10.986 -20.988  0.00  0.00    -0.153 OA
ATOM     23  O   UNL     1      31.972 -10.766 -19.281  0.00  0.00    -0.153 OA
BRANCH  21  24
ATOM     24  N   UNL     1      31.880  -9.109 -21.252  0.00  0.00    -0.151 NA
ATOM     25  C   UNL     1      32.036  -8.037 -20.232  0.00  0.00    +0.101 C 
ATOM     26  C   UNL     1      31.060  -8.656 -22.417  0.00  0.00    +0.122 C 
ATOM     27  C   UNL     1      32.825  -6.885 -20.850  0.00  0.00    +0.045 C 
ATOM     28  C   UNL     1      31.413  -7.275 -22.914  0.00  0.00    -0.008 C 
ATOM     29  C   UNL     1      32.226  -6.418 -22.152  0.00  0.00    -0.023 C 
ATOM     30  C   UNL     1      30.888  -6.826 -24.133  0.00  0.00    -0.003 C 
ATOM     31  C   UNL     1      32.529  -5.139 -22.640  0.00  0.00    -0.004 C 
ATOM     32  C   UNL     1      31.186  -5.547 -24.604  0.00  0.00    -0.000 C 
ATOM     33  C   UNL     1      32.008  -4.705 -23.858  0.00  0.00    -0.000 C 
ENDBRANCH  21  24
ENDBRANCH   1  21
TORSDOF 6
ENDMDL
MODEL 8
REMARK VINA RESULT:     -11.1      2.111      9.668
REMARK  Name = 24941254
REMARK  6 active torsions:
REMARK  status: ('A' for Active; 'I' for Inactive)
REMARK    1  A    between atoms: C_1  and  S_21
REMARK    2  A    between atoms: C_4  and  C_9
REMARK    3  A    between atoms: N_8  and  C_11
REMARK    4  A    between atoms: C_12  and  C_18
REMARK    5  A    between atoms: C_18  and  O_19
REMARK    6  A    between atoms: S_21  and  N_24
REMARK                            x       y       z     vdW  Elec       q    Type
REMARK                         _______ _______ _______ _____ _____    ______ ____
ROOT
ATOM      1  C   UNL     1      35.034 -21.202 -19.472  0.00  0.00    +0.122 C 
ATOM      2  C   UNL     1      34.549 -20.363 -20.476  0.00  0.00    +0.024 C 
ATOM      3  C   UNL     1      36.357 -21.085 -19.045  0.00  0.00    +0.020 C 
ATOM      4  C   UNL     1      35.387 -19.408 -21.052  0.00  0.00    +0.055 C 
ATOM      5  C   UNL     1      37.195 -20.130 -19.622  0.00  0.00    +0.002 C 
ATOM      6  C   UNL     1      36.709 -19.292 -20.626  0.00  0.00    +0.005 C 
ENDROOT
BRANCH   4   9
ATOM      7  O   UNL     1      34.357 -19.036 -23.105  0.00  0.00    -0.270 OA
ATOM      8  N   UNL     1      35.012 -17.158 -21.862  0.00  0.00    -0.280 N 
ATOM      9  C   UNL     1      34.881 -18.533 -22.098  0.00  0.00    +0.250 C 
ATOM     10  H   UNL     1      35.451 -16.909 -21.017  0.00  0.00    +0.155 HD
BRANCH   8  11
ATOM     11  C   UNL     1      34.594 -16.079 -22.678  0.00  0.00    +0.057 C 
ATOM     12  C   UNL     1      34.210 -14.860 -22.118  0.00  0.00    +0.089 C 
ATOM     13  C   UNL     1      34.569 -16.249 -24.063  0.00  0.00    +0.015 C 
ATOM     14  C   UNL     1      33.802 -13.811 -22.943  0.00  0.00    +0.008 C 
ATOM     15  C   UNL     1      34.160 -15.200 -24.887  0.00  0.00    +0.001 C 
ATOM     16  C   UNL     1      33.777 -13.982 -24.327  0.00  0.00    +0.000 C 
BRANCH  12  18
ATOM     17  O   UNL     1      34.944 -15.250 -19.875  0.00  0.00    -0.245 OA
ATOM     18  C   UNL     1      34.225 -14.648 -20.676  0.00  0.00    +0.339 C 
BRANCH  18  19
ATOM     19  O   UNL     1      33.341 -13.692 -20.285  0.00  0.00    -0.477 OA
ATOM     20  H   UNL     1      32.478 -13.935 -20.013  0.00  0.00    +0.295 HD
ENDBRANCH  18  19
ENDBRANCH  12  18
ENDBRANCH   8  11
ENDBRANCH   4   9
BRANCH   1  21
ATOM     21  S   UNL     1      33.975 -22.412 -18.743  0.00  0.00    +0.064 S 
ATOM     22  O   UNL     1      32.649 -21.838 -18.645  0.00  0.00    -0.153 OA
ATOM     23  O   UNL     1      34.194 -23.667 -19.431  0.00  0.00    -0.153 OA
BRANCH  21  24
ATOM     24  N   UNL     1      34.662 -22.508 -17.178  0.00  0.00    -0.151 NA
ATOM     25  C   UNL     1      36.144 -22.628 -17.126  0.00  0.00    +0.101 C 
ATOM     26  C   UNL     1      33.991 -23.458 -16.240  0.00  0.00    +0.122 C 
ATOM     27  C   UNL     1      36.620 -22.217 -15.736  0.00  0.00    +0.045 C 
ATOM     28  C   UNL     1      34.632 -23.526 -14.875  0.00  0.00    -0.008 C 
ATOM     29  C   UNL     1      35.899 -22.964 -14.642  0.00  0.00    -0.023 C 
ATOM     30  C   UNL     1      33.972 -24.195 -13.835  0.00  0.00    -0.003 C 
ATOM     31  C   UNL     1      36.469 -23.051 -13.365  0.00  0.00    -0.004 C 
ATOM     32  C   UNL     1      34.553 -24.286 -12.571  0.00  0.00    -0.000 C 
ATOM     33  C   UNL     1      35.800 -23.712 -12.336  0.00  0.00    -0.000 C 
ENDBRANCH  21  24
ENDBRANCH   1  21
TORSDOF 6
ENDMDL
MODEL 9
REMARK VINA RESULT:     -10.9      8.367     14.869
REMARK  Name = 24941254
REMARK  6 active torsions:
REMARK  status: ('A' for Active; 'I' for Inactive)
REMARK    1  A    between atoms: C_1  and  S_21
REMARK    2  A    between atoms: C_4  and  C_9
REMARK    3  A    between atoms: N_8  and  C_11
REMARK    4  A    between atoms: C_12  and  C_18
REMARK    5  A    between atoms: C_18  and  O_19
REMARK    6  A    between atoms: S_21  and  N_24
REMARK                            x       y       z     vdW  Elec       q    Type
REMARK                         _______ _______ _______ _____ _____    ______ ____
ROOT
ATOM      1  C   UNL     1      31.962  -9.216 -20.541  0.00  0.00    +0.122 C 
ATOM      2  C   UNL     1      31.775  -8.853 -21.875  0.00  0.00    +0.024 C 
ATOM      3  C   UNL     1      32.661  -8.369 -19.680  0.00  0.00    +0.020 C 
ATOM      4  C   UNL     1      32.286  -7.645 -22.348  0.00  0.00    +0.055 C 
ATOM      5  C   UNL     1      33.172  -7.160 -20.153  0.00  0.00    +0.002 C 
ATOM      6  C   UNL     1      32.985  -6.799 -21.488  0.00  0.00    +0.005 C 
ENDROOT
BRANCH   4   9
ATOM      7  O   UNL     1      31.426  -8.010 -24.478  0.00  0.00    -0.270 OA
ATOM      8  N   UNL     1      32.665  -6.049 -24.129  0.00  0.00    -0.280 N 
ATOM      9  C   UNL     1      32.091  -7.267 -23.739  0.00  0.00    +0.250 C 
ATOM     10  H   UNL     1      33.165  -5.569 -23.430  0.00  0.00    +0.155 HD
BRANCH   8  11
ATOM     11  C   UNL     1      32.620  -5.418 -25.396  0.00  0.00    +0.057 C 
ATOM     12  C   UNL     1      31.843  -4.278 -25.603  0.00  0.00    +0.089 C 
ATOM     13  C   UNL     1      33.367  -5.954 -26.445  0.00  0.00    +0.015 C 
ATOM     14  C   UNL     1      31.815  -3.673 -26.861  0.00  0.00    +0.008 C 
ATOM     15  C   UNL     1      33.337  -5.350 -27.702  0.00  0.00    +0.001 C 
ATOM     16  C   UNL     1      32.561  -4.210 -27.909  0.00  0.00    +0.000 C 
BRANCH  12  18
ATOM     17  O   UNL     1      30.167  -4.274 -23.897  0.00  0.00    -0.245 OA
ATOM     18  C   UNL     1      31.051  -3.692 -24.529  0.00  0.00    +0.339 C 
BRANCH  18  19
ATOM     19  O   UNL     1      31.392  -2.399 -24.282  0.00  0.00    -0.477 OA
ATOM     20  H   UNL     1      30.760  -1.808 -23.922  0.00  0.00    +0.295 HD
ENDBRANCH  18  19
ENDBRANCH  12  18
ENDBRANCH   8  11
ENDBRANCH   4   9
BRANCH   1  21
ATOM     21  S   UNL     1      31.317 -10.746 -19.941  0.00  0.00    +0.064 S 
ATOM     22  O   UNL     1      31.650 -10.846 -18.536  0.00  0.00    -0.153 OA
ATOM     23  O   UNL     1      29.945 -10.857 -20.391  0.00  0.00    -0.153 OA
BRANCH  21  24
ATOM     24  N   UNL     1      32.284 -11.847 -20.826  0.00  0.00    -0.151 NA
ATOM     25  C   UNL     1      31.801 -12.181 -22.193  0.00  0.00    +0.101 C 
ATOM     26  C   UNL     1      32.722 -13.063 -20.076  0.00  0.00    +0.122 C 
ATOM     27  C   UNL     1      32.967 -12.747 -22.999  0.00  0.00    +0.045 C 
ATOM     28  C   UNL     1      33.561 -14.017 -20.892  0.00  0.00    -0.008 C 
ATOM     29  C   UNL     1      33.651 -13.887 -22.289  0.00  0.00    -0.023 C 
ATOM     30  C   UNL     1      34.226 -15.071 -20.252  0.00  0.00    -0.003 C 
ATOM     31  C   UNL     1      34.434 -14.793 -23.017  0.00  0.00    -0.004 C 
ATOM     32  C   UNL     1      34.993 -15.974 -20.988  0.00  0.00    -0.000 C 
ATOM     33  C   UNL     1      35.098 -15.834 -22.370  0.00  0.00    -0.000 C 
ENDBRANCH  21  24
ENDBRANCH   1  21
TORSDOF 6
ENDMDL
