MODEL 1
REMARK VINA RESULT:     -11.4      0.000      0.000
REMARK  Name = 9804992
REMARK  10 active torsions:
REMARK  status: ('A' for Active; 'I' for Inactive)
REMARK    1  A    between atoms: C_1  and  C_9
REMARK    2  A    between atoms: C_1  and  O_19
REMARK    3  A    between atoms: C_2  and  C_12
REMARK    4  A    between atoms: C_12  and  N_13
REMARK    5  A    between atoms: N_13  and  C_15
REMARK    6  A    between atoms: N_13  and  C_17
REMARK    7  A    between atoms: O_19  and  C_22
REMARK    8  A    between atoms: N_21  and  C_24
REMARK    9  A    between atoms: C_27  and  C_32
REMARK   10  A    between atoms: N_31  and  O_34
REMARK                            x       y       z     vdW  Elec       q    Type
REMARK                         _______ _______ _______ _____ _____    ______ ____
ROOT
ATOM      1  C   UNL     1      35.611 -20.714 -20.037  0.00  0.00    +0.237 C 
ENDROOT
BRANCH   1   9
ATOM      2  C   UNL     1      36.039 -23.698 -14.258  0.00  0.00    -0.043 C 
ATOM      3  C   UNL     1      35.130 -22.917 -16.374  0.00  0.00    -0.000 C 
ATOM      4  C   UNL     1      36.353 -22.260 -16.650  0.00  0.00    -0.000 C 
ATOM      5  C   UNL     1      34.989 -23.631 -15.174  0.00  0.00    -0.006 C 
ATOM      6  C   UNL     1      37.242 -23.053 -14.529  0.00  0.00    -0.006 C 
ATOM      7  C   UNL     1      37.400 -22.339 -15.716  0.00  0.00    -0.000 C 
ATOM      8  C   UNL     1      36.494 -21.546 -17.850  0.00  0.00    -0.001 C 
ATOM      9  C   UNL     1      35.443 -21.478 -18.767  0.00  0.00    +0.021 C 
ATOM     10  C   UNL     1      34.083 -22.838 -17.308  0.00  0.00    -0.000 C 
ATOM     11  C   UNL     1      34.241 -22.123 -18.496  0.00  0.00    -0.001 C 
BRANCH   2  12
ATOM     12  C   UNL     1      35.872 -24.462 -12.987  0.00  0.00    -0.050 C 
BRANCH  12  13
ATOM     13  N   UNL     1      37.147 -24.939 -12.452  0.00  0.00    +0.390 N 
ATOM     14  H   UNL     1      37.903 -24.534 -13.004  0.00  0.00    -0.079 HD
BRANCH  13  15
ATOM     15  C   UNL     1      37.309 -24.511 -11.064  0.00  0.00    -0.077 C 
ATOM     16  C   UNL     1      35.965 -24.221 -10.418  0.00  0.00    -0.025 C 
ENDBRANCH  13  15
BRANCH  13  17
ATOM     17  C   UNL     1      37.229 -26.395 -12.553  0.00  0.00    -0.077 C 
ATOM     18  C   UNL     1      37.704 -26.824 -13.931  0.00  0.00    -0.025 C 
ENDBRANCH  13  17
ENDBRANCH  12  13
ENDBRANCH   2  12
ENDBRANCH   1   9
BRANCH   1  19
ATOM     19  O   UNL     1      36.800 -19.937 -19.967  0.00  0.00    -0.429 OA
BRANCH  19  22
ATOM     20  O   UNL     1      37.873 -18.451 -21.335  0.00  0.00    -0.226 OA
ATOM     21  N   UNL     1      35.599 -18.243 -20.820  0.00  0.00    -0.250 N 
ATOM     22  C   UNL     1      36.851 -18.824 -20.771  0.00  0.00    +0.406 C 
ATOM     23  H   UNL     1      34.895 -18.691 -20.297  0.00  0.00    +0.158 HD
BRANCH  21  24
ATOM     24  C   UNL     1      35.204 -17.085 -21.527  0.00  0.00    +0.053 C 
ATOM     25  C   UNL     1      34.888 -15.917 -20.831  0.00  0.00    +0.015 C 
ATOM     26  C   UNL     1      35.128 -17.110 -22.919  0.00  0.00    +0.015 C 
ATOM     27  C   UNL     1      34.420 -14.799 -22.922  0.00  0.00    +0.055 C 
ATOM     28  C   UNL     1      34.496 -14.774 -21.529  0.00  0.00    +0.006 C 
ATOM     29  C   UNL     1      34.736 -15.967 -23.617  0.00  0.00    +0.006 C 
BRANCH  27  32
ATOM     30  O   UNL     1      33.345 -13.698 -24.696  0.00  0.00    -0.268 OA
ATOM     31  N   UNL     1      34.407 -12.384 -23.130  0.00  0.00    -0.193 N 
ATOM     32  C   UNL     1      34.012 -13.608 -23.648  0.00  0.00    +0.268 C 
ATOM     33  H   UNL     1      34.935 -12.321 -22.300  0.00  0.00    +0.183 HD
BRANCH  31  34
ATOM     34  O   UNL     1      34.021 -11.239 -23.842  0.00  0.00    -0.295 OA
ATOM     35  H   UNL     1      34.685 -11.040 -24.520  0.00  0.00    +0.241 HD
ENDBRANCH  31  34
ENDBRANCH  27  32
ENDBRANCH  21  24
ENDBRANCH  19  22
ENDBRANCH   1  19
TORSDOF 10
ENDMDL
MODEL 2
REMARK VINA RESULT:     -11.2      4.132     11.706
REMARK  Name = 9804992
REMARK  10 active torsions:
REMARK  status: ('A' for Active; 'I' for Inactive)
REMARK    1  A    between atoms: C_1  and  C_9
REMARK    2  A    between atoms: C_1  and  O_19
REMARK    3  A    between atoms: C_2  and  C_12
REMARK    4  A    between atoms: C_12  and  N_13
REMARK    5  A    between atoms: N_13  and  C_15
REMARK    6  A    between atoms: N_13  and  C_17
REMARK    7  A    between atoms: O_19  and  C_22
REMARK    8  A    between atoms: N_21  and  C_24
REMARK    9  A    between atoms: C_27  and  C_32
REMARK   10  A    between atoms: N_31  and  O_34
REMARK                            x       y       z     vdW  Elec       q    Type
REMARK                         _______ _______ _______ _____ _____    ______ ____
ROOT
ATOM      1  C   UNL     1      35.054 -16.797 -24.173  0.00  0.00    +0.237 C 
ENDROOT
BRANCH   1   9
ATOM      2  C   UNL     1      31.955 -11.884 -21.216  0.00  0.00    -0.043 C 
ATOM      3  C   UNL     1      32.773 -13.354 -22.973  0.00  0.00    -0.000 C 
ATOM      4  C   UNL     1      33.443 -14.133 -22.000  0.00  0.00    -0.000 C 
ATOM      5  C   UNL     1      32.033 -12.233 -22.565  0.00  0.00    -0.006 C 
ATOM      6  C   UNL     1      32.613 -12.650 -20.259  0.00  0.00    -0.006 C 
ATOM      7  C   UNL     1      33.353 -13.767 -20.647  0.00  0.00    -0.000 C 
ATOM      8  C   UNL     1      34.183 -15.254 -22.408  0.00  0.00    -0.001 C 
ATOM      9  C   UNL     1      34.263 -15.603 -23.757  0.00  0.00    +0.021 C 
ATOM     10  C   UNL     1      32.863 -13.720 -24.326  0.00  0.00    -0.000 C 
ATOM     11  C   UNL     1      33.603 -14.838 -24.714  0.00  0.00    -0.001 C 
BRANCH   2  12
ATOM     12  C   UNL     1      31.164 -10.689 -20.800  0.00  0.00    -0.050 C 
BRANCH  12  13
ATOM     13  N   UNL     1      31.982  -9.693 -20.108  0.00  0.00    +0.390 N 
ATOM     14  H   UNL     1      32.909 -10.088 -19.947  0.00  0.00    -0.079 HD
BRANCH  13  15
ATOM     15  C   UNL     1      32.129  -8.494 -20.931  0.00  0.00    -0.077 C 
ATOM     16  C   UNL     1      33.117  -7.520 -20.312  0.00  0.00    -0.025 C 
ENDBRANCH  13  15
BRANCH  13  17
ATOM     17  C   UNL     1      31.392  -9.358 -18.814  0.00  0.00    -0.077 C 
ATOM     18  C   UNL     1      31.806 -10.356 -17.746  0.00  0.00    -0.025 C 
ENDBRANCH  13  17
ENDBRANCH  12  13
ENDBRANCH   2  12
ENDBRANCH   1   9
BRANCH   1  19
ATOM     19  O   UNL     1      35.630 -17.405 -23.024  0.00  0.00    -0.429 OA
BRANCH  19  22
ATOM     20  O   UNL     1      34.619 -19.417 -23.428  0.00  0.00    -0.226 OA
ATOM     21  N   UNL     1      35.201 -18.734 -21.266  0.00  0.00    -0.250 N 
ATOM     22  C   UNL     1      35.097 -18.611 -22.637  0.00  0.00    +0.406 C 
ATOM     23  H   UNL     1      35.620 -17.976 -20.796  0.00  0.00    +0.158 HD
BRANCH  21  24
ATOM     24  C   UNL     1      34.781 -19.811 -20.453  0.00  0.00    +0.053 C 
ATOM     25  C   UNL     1      35.728 -20.648 -19.862  0.00  0.00    +0.015 C 
ATOM     26  C   UNL     1      33.421 -20.038 -20.243  0.00  0.00    +0.015 C 
ATOM     27  C   UNL     1      33.954 -21.939 -18.851  0.00  0.00    +0.055 C 
ATOM     28  C   UNL     1      35.315 -21.712 -19.060  0.00  0.00    +0.006 C 
ATOM     29  C   UNL     1      33.008 -21.103 -19.442  0.00  0.00    +0.006 C 
BRANCH  27  32
ATOM     30  O   UNL     1      33.815 -24.222 -18.314  0.00  0.00    -0.268 OA
ATOM     31  N   UNL     1      32.770 -22.741 -16.892  0.00  0.00    -0.193 N 
ATOM     32  C   UNL     1      33.523 -23.049 -18.016  0.00  0.00    +0.268 C 
ATOM     33  H   UNL     1      32.543 -21.810 -16.663  0.00  0.00    +0.183 HD
BRANCH  31  34
ATOM     34  O   UNL     1      32.347 -23.816 -16.098  0.00  0.00    -0.295 OA
ATOM     35  H   UNL     1      32.284 -24.616 -16.643  0.00  0.00    +0.241 HD
ENDBRANCH  31  34
ENDBRANCH  27  32
ENDBRANCH  21  24
ENDBRANCH  19  22
ENDBRANCH   1  19
TORSDOF 10
ENDMDL
MODEL 3
REMARK VINA RESULT:     -11.1      3.836     11.751
REMARK  Name = 9804992
REMARK  10 active torsions:
REMARK  status: ('A' for Active; 'I' for Inactive)
REMARK    1  A    between atoms: C_1  and  C_9
REMARK    2  A    between atoms: C_1  and  O_19
REMARK    3  A    between atoms: C_2  and  C_12
REMARK    4  A    between atoms: C_12  and  N_13
REMARK    5  A    between atoms: N_13  and  C_15
REMARK    6  A    between atoms: N_13  and  C_17
REMARK    7  A    between atoms: O_19  and  C_22
REMARK    8  A    between atoms: N_21  and  C_24
REMARK    9  A    between atoms: C_27  and  C_32
REMARK   10  A    between atoms: N_31  and  O_34
REMARK                            x       y       z     vdW  Elec       q    Type
REMARK                         _______ _______ _______ _____ _____    ______ ____
ROOT
ATOM      1  C   UNL     1      35.817 -16.726 -22.546  0.00  0.00    +0.237 C 
ENDROOT
BRANCH   1   9
ATOM      2  C   UNL     1      32.038 -11.520 -21.498  0.00  0.00    -0.043 C 
ATOM      3  C   UNL     1      33.302 -13.557 -21.087  0.00  0.00    -0.000 C 
ATOM      4  C   UNL     1      33.681 -13.589 -22.450  0.00  0.00    -0.000 C 
ATOM      5  C   UNL     1      32.480 -12.515 -20.627  0.00  0.00    -0.006 C 
ATOM      6  C   UNL     1      32.411 -11.551 -22.838  0.00  0.00    -0.006 C 
ATOM      7  C   UNL     1      33.227 -12.578 -23.313  0.00  0.00    -0.000 C 
ATOM      8  C   UNL     1      34.503 -14.630 -22.911  0.00  0.00    -0.001 C 
ATOM      9  C   UNL     1      34.945 -15.627 -22.039  0.00  0.00    +0.021 C 
ATOM     10  C   UNL     1      33.756 -14.568 -20.224  0.00  0.00    -0.000 C 
ATOM     11  C   UNL     1      34.573 -15.595 -20.699  0.00  0.00    -0.001 C 
BRANCH   2  12
ATOM     12  C   UNL     1      31.165 -10.421 -20.992  0.00  0.00    -0.050 C 
BRANCH  12  13
ATOM     13  N   UNL     1      31.898  -9.466 -20.160  0.00  0.00    +0.390 N 
ATOM     14  H   UNL     1      32.848  -9.812 -20.027  0.00  0.00    -0.079 HD
BRANCH  13  15
ATOM     15  C   UNL     1      31.970  -8.164 -20.822  0.00  0.00    -0.077 C 
ATOM     16  C   UNL     1      32.926  -7.232 -20.099  0.00  0.00    -0.025 C 
ENDBRANCH  13  15
BRANCH  13  17
ATOM     17  C   UNL     1      31.264  -9.340 -18.849  0.00  0.00    -0.077 C 
ATOM     18  C   UNL     1      31.799 -10.378 -17.878  0.00  0.00    -0.025 C 
ENDBRANCH  13  17
ENDBRANCH  12  13
ENDBRANCH   2  12
ENDBRANCH   1   9
BRANCH   1  19
ATOM     19  O   UNL     1      35.044 -17.611 -23.347  0.00  0.00    -0.429 OA
BRANCH  19  22
ATOM     20  O   UNL     1      34.644 -19.853 -23.548  0.00  0.00    -0.226 OA
ATOM     21  N   UNL     1      34.889 -18.819 -21.463  0.00  0.00    -0.250 N 
ATOM     22  C   UNL     1      34.837 -18.871 -22.842  0.00  0.00    +0.406 C 
ATOM     23  H   UNL     1      35.058 -17.931 -21.070  0.00  0.00    +0.158 HD
BRANCH  21  24
ATOM     24  C   UNL     1      34.731 -19.882 -20.545  0.00  0.00    +0.053 C 
ATOM     25  C   UNL     1      35.853 -20.489 -19.980  0.00  0.00    +0.015 C 
ATOM     26  C   UNL     1      33.453 -20.325 -20.204  0.00  0.00    +0.015 C 
ATOM     27  C   UNL     1      34.418 -21.981 -18.734  0.00  0.00    +0.055 C 
ATOM     28  C   UNL     1      35.697 -21.538 -19.075  0.00  0.00    +0.006 C 
ATOM     29  C   UNL     1      33.297 -21.375 -19.299  0.00  0.00    +0.006 C 
BRANCH  27  32
ATOM     30  O   UNL     1      33.612 -24.095 -18.102  0.00  0.00    -0.268 OA
ATOM     31  N   UNL     1      34.837 -22.925 -16.540  0.00  0.00    -0.193 N 
ATOM     32  C   UNL     1      34.256 -23.076 -17.791  0.00  0.00    +0.268 C 
ATOM     33  H   UNL     1      35.346 -22.116 -16.302  0.00  0.00    +0.183 HD
BRANCH  31  34
ATOM     34  O   UNL     1      34.667 -23.978 -15.631  0.00  0.00    -0.295 OA
ATOM     35  H   UNL     1      34.106 -24.663 -16.028  0.00  0.00    +0.241 HD
ENDBRANCH  31  34
ENDBRANCH  27  32
ENDBRANCH  21  24
ENDBRANCH  19  22
ENDBRANCH   1  19
TORSDOF 10
ENDMDL
MODEL 4
REMARK VINA RESULT:     -11.1      3.824     12.160
REMARK  Name = 9804992
REMARK  10 active torsions:
REMARK  status: ('A' for Active; 'I' for Inactive)
REMARK    1  A    between atoms: C_1  and  C_9
REMARK    2  A    between atoms: C_1  and  O_19
REMARK    3  A    between atoms: C_2  and  C_12
REMARK    4  A    between atoms: C_12  and  N_13
REMARK    5  A    between atoms: N_13  and  C_15
REMARK    6  A    between atoms: N_13  and  C_17
REMARK    7  A    between atoms: O_19  and  C_22
REMARK    8  A    between atoms: N_21  and  C_24
REMARK    9  A    between atoms: C_27  and  C_32
REMARK   10  A    between atoms: N_31  and  O_34
REMARK                            x       y       z     vdW  Elec       q    Type
REMARK                         _______ _______ _______ _____ _____    ______ ____
ROOT
ATOM      1  C   UNL     1      35.692 -16.788 -22.329  0.00  0.00    +0.237 C 
ENDROOT
BRANCH   1   9
ATOM      2  C   UNL     1      31.907 -11.600 -21.216  0.00  0.00    -0.043 C 
ATOM      3  C   UNL     1      33.234 -13.260 -22.400  0.00  0.00    -0.000 C 
ATOM      4  C   UNL     1      33.511 -13.905 -21.171  0.00  0.00    -0.000 C 
ATOM      5  C   UNL     1      32.430 -12.109 -22.405  0.00  0.00    -0.006 C 
ATOM      6  C   UNL     1      32.179 -12.235 -20.008  0.00  0.00    -0.006 C 
ATOM      7  C   UNL     1      32.975 -13.379 -19.983  0.00  0.00    -0.000 C 
ATOM      8  C   UNL     1      34.315 -15.056 -21.165  0.00  0.00    -0.001 C 
ATOM      9  C   UNL     1      34.840 -15.564 -22.354  0.00  0.00    +0.021 C 
ATOM     10  C   UNL     1      33.770 -13.785 -23.587  0.00  0.00    -0.000 C 
ATOM     11  C   UNL     1      34.567 -14.931 -23.563  0.00  0.00    -0.001 C 
BRANCH   2  12
ATOM     12  C   UNL     1      31.055 -10.376 -21.241  0.00  0.00    -0.050 C 
BRANCH  12  13
ATOM     13  N   UNL     1      31.839  -9.155 -21.429  0.00  0.00    +0.390 N 
ATOM     14  H   UNL     1      32.779  -9.415 -21.726  0.00  0.00    -0.079 HD
BRANCH  13  15
ATOM     15  C   UNL     1      31.241  -8.321 -22.470  0.00  0.00    -0.077 C 
ATOM     16  C   UNL     1      31.941  -8.520 -23.803  0.00  0.00    -0.025 C 
ENDBRANCH  13  15
BRANCH  13  17
ATOM     17  C   UNL     1      31.939  -8.414 -20.173  0.00  0.00    -0.077 C 
ATOM     18  C   UNL     1      32.605  -7.065 -20.382  0.00  0.00    -0.025 C 
ENDBRANCH  13  17
ENDBRANCH  12  13
ENDBRANCH   2  12
ENDBRANCH   1   9
BRANCH   1  19
ATOM     19  O   UNL     1      35.170 -17.746 -23.241  0.00  0.00    -0.429 OA
BRANCH  19  22
ATOM     20  O   UNL     1      34.812 -19.995 -23.452  0.00  0.00    -0.226 OA
ATOM     21  N   UNL     1      34.893 -18.943 -21.362  0.00  0.00    -0.250 N 
ATOM     22  C   UNL     1      34.942 -19.006 -22.741  0.00  0.00    +0.406 C 
ATOM     23  H   UNL     1      35.022 -18.050 -20.966  0.00  0.00    +0.158 HD
BRANCH  21  24
ATOM     24  C   UNL     1      34.680 -20.001 -20.449  0.00  0.00    +0.053 C 
ATOM     25  C   UNL     1      33.381 -20.360 -20.088  0.00  0.00    +0.015 C 
ATOM     26  C   UNL     1      35.769 -20.684 -19.908  0.00  0.00    +0.015 C 
ATOM     27  C   UNL     1      34.261 -22.087 -18.645  0.00  0.00    +0.055 C 
ATOM     28  C   UNL     1      33.171 -21.403 -19.187  0.00  0.00    +0.006 C 
ATOM     29  C   UNL     1      35.559 -21.727 -19.006  0.00  0.00    +0.006 C 
BRANCH  27  32
ATOM     30  O   UNL     1      33.683 -24.298 -18.103  0.00  0.00    -0.268 OA
ATOM     31  N   UNL     1      34.237 -22.897 -16.360  0.00  0.00    -0.193 N 
ATOM     32  C   UNL     1      34.042 -23.174 -17.705  0.00  0.00    +0.268 C 
ATOM     33  H   UNL     1      34.521 -22.004 -16.053  0.00  0.00    +0.183 HD
BRANCH  31  34
ATOM     34  O   UNL     1      34.011 -23.946 -15.457  0.00  0.00    -0.295 OA
ATOM     35  H   UNL     1      33.597 -24.690 -15.921  0.00  0.00    +0.241 HD
ENDBRANCH  31  34
ENDBRANCH  27  32
ENDBRANCH  21  24
ENDBRANCH  19  22
ENDBRANCH   1  19
TORSDOF 10
ENDMDL
MODEL 5
REMARK VINA RESULT:     -11.0      2.755      4.683
REMARK  Name = 9804992
REMARK  10 active torsions:
REMARK  status: ('A' for Active; 'I' for Inactive)
REMARK    1  A    between atoms: C_1  and  C_9
REMARK    2  A    between atoms: C_1  and  O_19
REMARK    3  A    between atoms: C_2  and  C_12
REMARK    4  A    between atoms: C_12  and  N_13
REMARK    5  A    between atoms: N_13  and  C_15
REMARK    6  A    between atoms: N_13  and  C_17
REMARK    7  A    between atoms: O_19  and  C_22
REMARK    8  A    between atoms: N_21  and  C_24
REMARK    9  A    between atoms: C_27  and  C_32
REMARK   10  A    between atoms: N_31  and  O_34
REMARK                            x       y       z     vdW  Elec       q    Type
REMARK                         _______ _______ _______ _____ _____    ______ ____
ROOT
ATOM      1  C   UNL     1      36.088 -17.369 -22.176  0.00  0.00    +0.237 C 
ENDROOT
BRANCH   1   9
ATOM      2  C   UNL     1      33.896 -22.279 -18.492  0.00  0.00    -0.043 C 
ATOM      3  C   UNL     1      35.429 -20.752 -19.603  0.00  0.00    -0.000 C 
ATOM      4  C   UNL     1      34.326 -20.069 -20.171  0.00  0.00    -0.000 C 
ATOM      5  C   UNL     1      35.196 -21.855 -18.766  0.00  0.00    -0.006 C 
ATOM      6  C   UNL     1      32.812 -21.607 -19.049  0.00  0.00    -0.006 C 
ATOM      7  C   UNL     1      33.024 -20.510 -19.883  0.00  0.00    -0.000 C 
ATOM      8  C   UNL     1      34.559 -18.966 -21.008  0.00  0.00    -0.001 C 
ATOM      9  C   UNL     1      35.860 -18.542 -21.284  0.00  0.00    +0.021 C 
ATOM     10  C   UNL     1      36.731 -20.311 -19.891  0.00  0.00    -0.000 C 
ATOM     11  C   UNL     1      36.944 -19.213 -20.725  0.00  0.00    -0.001 C 
BRANCH   2  12
ATOM     12  C   UNL     1      33.667 -23.453 -17.600  0.00  0.00    -0.050 C 
BRANCH  12  13
ATOM     13  N   UNL     1      33.441 -23.059 -16.208  0.00  0.00    +0.390 N 
ATOM     14  H   UNL     1      33.495 -22.043 -16.145  0.00  0.00    -0.079 HD
BRANCH  13  15
ATOM     15  C   UNL     1      32.111 -23.480 -15.770  0.00  0.00    -0.077 C 
ATOM     16  C   UNL     1      31.700 -22.763 -14.496  0.00  0.00    -0.025 C 
ENDBRANCH  13  15
BRANCH  13  17
ATOM     17  C   UNL     1      34.471 -23.632 -15.343  0.00  0.00    -0.077 C 
ATOM     18  C   UNL     1      35.576 -22.627 -15.066  0.00  0.00    -0.025 C 
ENDBRANCH  13  17
ENDBRANCH  12  13
ENDBRANCH   2  12
ENDBRANCH   1   9
BRANCH   1  19
ATOM     19  O   UNL     1      35.335 -17.531 -23.371  0.00  0.00    -0.429 OA
BRANCH  19  22
ATOM     20  O   UNL     1      34.171 -16.340 -24.938  0.00  0.00    -0.226 OA
ATOM     21  N   UNL     1      34.557 -15.510 -22.783  0.00  0.00    -0.250 N 
ATOM     22  C   UNL     1      34.635 -16.433 -23.807  0.00  0.00    +0.406 C 
ATOM     23  H   UNL     1      34.994 -15.766 -21.938  0.00  0.00    +0.158 HD
BRANCH  21  24
ATOM     24  C   UNL     1      33.928 -14.244 -22.797  0.00  0.00    +0.053 C 
ATOM     25  C   UNL     1      34.268 -13.308 -23.775  0.00  0.00    +0.015 C 
ATOM     26  C   UNL     1      32.970 -13.931 -21.833  0.00  0.00    +0.015 C 
ATOM     27  C   UNL     1      32.689 -11.745 -22.824  0.00  0.00    +0.055 C 
ATOM     28  C   UNL     1      33.648 -12.059 -23.788  0.00  0.00    +0.006 C 
ATOM     29  C   UNL     1      32.351 -12.681 -21.847  0.00  0.00    +0.006 C 
BRANCH  27  32
ATOM     30  O   UNL     1      31.170 -10.155 -21.999  0.00  0.00    -0.268 OA
ATOM     31  N   UNL     1      32.437  -9.552 -23.827  0.00  0.00    -0.193 N 
ATOM     32  C   UNL     1      32.044 -10.442 -22.838  0.00  0.00    +0.268 C 
ATOM     33  H   UNL     1      33.129  -9.788 -24.487  0.00  0.00    +0.183 HD
BRANCH  31  34
ATOM     34  O   UNL     1      31.802  -8.302 -23.844  0.00  0.00    -0.295 OA
ATOM     35  H   UNL     1      31.392  -8.158 -24.711  0.00  0.00    +0.241 HD
ENDBRANCH  31  34
ENDBRANCH  27  32
ENDBRANCH  21  24
ENDBRANCH  19  22
ENDBRANCH   1  19
TORSDOF 10
ENDMDL
MODEL 6
REMARK VINA RESULT:     -11.0      3.902     12.014
REMARK  Name = 9804992
REMARK  10 active torsions:
REMARK  status: ('A' for Active; 'I' for Inactive)
REMARK    1  A    between atoms: C_1  and  C_9
REMARK    2  A    between atoms: C_1  and  O_19
REMARK    3  A    between atoms: C_2  and  C_12
REMARK    4  A    between atoms: C_12  and  N_13
REMARK    5  A    between atoms: N_13  and  C_15
REMARK    6  A    between atoms: N_13  and  C_17
REMARK    7  A    between atoms: O_19  and  C_22
REMARK    8  A    between atoms: N_21  and  C_24
REMARK    9  A    between atoms: C_27  and  C_32
REMARK   10  A    between atoms: N_31  and  O_34
REMARK                            x       y       z     vdW  Elec       q    Type
REMARK                         _______ _______ _______ _____ _____    ______ ____
ROOT
ATOM      1  C   UNL     1      35.310 -18.322 -23.266  0.00  0.00    +0.237 C 
ENDROOT
BRANCH   1   9
ATOM      2  C   UNL     1      33.338 -12.112 -23.434  0.00  0.00    -0.043 C 
ATOM      3  C   UNL     1      33.710 -14.420 -24.107  0.00  0.00    -0.000 C 
ATOM      4  C   UNL     1      34.382 -14.661 -22.885  0.00  0.00    -0.000 C 
ATOM      5  C   UNL     1      33.194 -13.140 -24.366  0.00  0.00    -0.006 C 
ATOM      6  C   UNL     1      33.998 -12.349 -22.232  0.00  0.00    -0.006 C 
ATOM      7  C   UNL     1      34.517 -13.614 -21.957  0.00  0.00    -0.000 C 
ATOM      8  C   UNL     1      34.898 -15.940 -22.625  0.00  0.00    -0.001 C 
ATOM      9  C   UNL     1      34.755 -16.969 -23.558  0.00  0.00    +0.021 C 
ATOM     10  C   UNL     1      33.575 -15.466 -25.034  0.00  0.00    -0.000 C 
ATOM     11  C   UNL     1      34.094 -16.732 -24.759  0.00  0.00    -0.001 C 
BRANCH   2  12
ATOM     12  C   UNL     1      32.784 -10.758 -23.726  0.00  0.00    -0.050 C 
BRANCH  12  13
ATOM     13  N   UNL     1      32.051 -10.199 -22.589  0.00  0.00    +0.390 N 
ATOM     14  H   UNL     1      32.706 -10.051 -21.822  0.00  0.00    -0.079 HD
BRANCH  13  15
ATOM     15  C   UNL     1      31.462  -8.910 -22.948  0.00  0.00    -0.077 C 
ATOM     16  C   UNL     1      32.148  -8.311 -24.163  0.00  0.00    -0.025 C 
ENDBRANCH  13  15
BRANCH  13  17
ATOM     17  C   UNL     1      31.016 -11.129 -22.143  0.00  0.00    -0.077 C 
ATOM     18  C   UNL     1      30.803 -11.034 -20.641  0.00  0.00    -0.025 C 
ENDBRANCH  13  17
ENDBRANCH  12  13
ENDBRANCH   2  12
ENDBRANCH   1   9
BRANCH   1  19
ATOM     19  O   UNL     1      36.399 -18.200 -22.360  0.00  0.00    -0.429 OA
BRANCH  19  22
ATOM     20  O   UNL     1      37.026 -18.664 -20.210  0.00  0.00    -0.226 OA
ATOM     21  N   UNL     1      35.178 -19.694 -21.212  0.00  0.00    -0.250 N 
ATOM     22  C   UNL     1      36.268 -18.848 -21.155  0.00  0.00    +0.406 C 
ATOM     23  H   UNL     1      34.685 -19.705 -22.065  0.00  0.00    +0.158 HD
BRANCH  21  24
ATOM     24  C   UNL     1      34.683 -20.545 -20.199  0.00  0.00    +0.053 C 
ATOM     25  C   UNL     1      33.321 -20.547 -19.894  0.00  0.00    +0.015 C 
ATOM     26  C   UNL     1      35.554 -21.383 -19.503  0.00  0.00    +0.015 C 
ATOM     27  C   UNL     1      33.704 -22.224 -18.197  0.00  0.00    +0.055 C 
ATOM     28  C   UNL     1      32.832 -21.387 -18.894  0.00  0.00    +0.006 C 
ATOM     29  C   UNL     1      35.065 -22.222 -18.502  0.00  0.00    +0.006 C 
BRANCH  27  32
ATOM     30  O   UNL     1      33.900 -24.009 -16.683  0.00  0.00    -0.268 OA
ATOM     31  N   UNL     1      31.893 -22.879 -16.724  0.00  0.00    -0.193 N 
ATOM     32  C   UNL     1      33.194 -23.099 -17.154  0.00  0.00    +0.268 C 
ATOM     33  H   UNL     1      31.340 -22.156 -17.101  0.00  0.00    +0.183 HD
BRANCH  31  34
ATOM     34  O   UNL     1      31.402 -23.734 -15.726  0.00  0.00    -0.295 OA
ATOM     35  H   UNL     1      31.129 -23.211 -14.957  0.00  0.00    +0.241 HD
ENDBRANCH  31  34
ENDBRANCH  27  32
ENDBRANCH  21  24
ENDBRANCH  19  22
ENDBRANCH   1  19
TORSDOF 10
ENDMDL
MODEL 7
REMARK VINA RESULT:     -10.8      4.234     13.218
REMARK  Name = 9804992
REMARK  10 active torsions:
REMARK  status: ('A' for Active; 'I' for Inactive)
REMARK    1  A    between atoms: C_1  and  C_9
REMARK    2  A    between atoms: C_1  and  O_19
REMARK    3  A    between atoms: C_2  and  C_12
REMARK    4  A    between atoms: C_12  and  N_13
REMARK    5  A    between atoms: N_13  and  C_15
REMARK    6  A    between atoms: N_13  and  C_17
REMARK    7  A    between atoms: O_19  and  C_22
REMARK    8  A    between atoms: N_21  and  C_24
REMARK    9  A    between atoms: C_27  and  C_32
REMARK   10  A    between atoms: N_31  and  O_34
REMARK                            x       y       z     vdW  Elec       q    Type
REMARK                         _______ _______ _______ _____ _____    ______ ____
ROOT
ATOM      1  C   UNL     1      34.226 -15.342 -23.452  0.00  0.00    +0.237 C 
ENDROOT
BRANCH   1   9
ATOM      2  C   UNL     1      31.791  -9.579 -21.626  0.00  0.00    -0.043 C 
ATOM      3  C   UNL     1      33.040 -11.248 -22.878  0.00  0.00    -0.000 C 
ATOM      4  C   UNL     1      32.564 -12.252 -22.001  0.00  0.00    -0.000 C 
ATOM      5  C   UNL     1      32.644  -9.916 -22.676  0.00  0.00    -0.006 C 
ATOM      6  C   UNL     1      31.322 -10.566 -20.765  0.00  0.00    -0.006 C 
ATOM      7  C   UNL     1      31.705 -11.894 -20.949  0.00  0.00    -0.000 C 
ATOM      8  C   UNL     1      32.961 -13.584 -22.203  0.00  0.00    -0.001 C 
ATOM      9  C   UNL     1      33.816 -13.922 -23.253  0.00  0.00    +0.021 C 
ATOM     10  C   UNL     1      33.900 -11.606 -23.930  0.00  0.00    -0.000 C 
ATOM     11  C   UNL     1      34.283 -12.935 -24.115  0.00  0.00    -0.001 C 
BRANCH   2  12
ATOM     12  C   UNL     1      31.380  -8.158 -21.426  0.00  0.00    -0.050 C 
BRANCH  12  13
ATOM     13  N   UNL     1      32.015  -7.255 -22.386  0.00  0.00    +0.390 N 
ATOM     14  H   UNL     1      32.476  -7.814 -23.103  0.00  0.00    -0.079 HD
BRANCH  13  15
ATOM     15  C   UNL     1      31.010  -6.412 -23.033  0.00  0.00    -0.077 C 
ATOM     16  C   UNL     1      31.247  -6.327 -24.531  0.00  0.00    -0.025 C 
ENDBRANCH  13  15
BRANCH  13  17
ATOM     17  C   UNL     1      33.023  -6.432 -21.721  0.00  0.00    -0.077 C 
ATOM     18  C   UNL     1      32.377  -5.350 -20.872  0.00  0.00    -0.025 C 
ENDBRANCH  13  17
ENDBRANCH  12  13
ENDBRANCH   2  12
ENDBRANCH   1   9
BRANCH   1  19
ATOM     19  O   UNL     1      35.388 -15.610 -22.677  0.00  0.00    -0.429 OA
BRANCH  19  22
ATOM     20  O   UNL     1      35.005 -15.944 -20.448  0.00  0.00    -0.226 OA
ATOM     21  N   UNL     1      35.312 -17.727 -21.934  0.00  0.00    -0.250 N 
ATOM     22  C   UNL     1      35.214 -16.399 -21.566  0.00  0.00    +0.406 C 
ATOM     23  H   UNL     1      35.483 -17.898 -22.889  0.00  0.00    +0.158 HD
BRANCH  21  24
ATOM     24  C   UNL     1      35.196 -18.869 -21.111  0.00  0.00    +0.053 C 
ATOM     25  C   UNL     1      36.338 -19.446 -20.554  0.00  0.00    +0.015 C 
ATOM     26  C   UNL     1      33.940 -19.421 -20.856  0.00  0.00    +0.015 C 
ATOM     27  C   UNL     1      34.968 -21.126 -19.487  0.00  0.00    +0.055 C 
ATOM     28  C   UNL     1      36.224 -20.574 -19.742  0.00  0.00    +0.006 C 
ATOM     29  C   UNL     1      33.827 -20.550 -20.044  0.00  0.00    +0.006 C 
BRANCH  27  32
ATOM     30  O   UNL     1      35.670 -22.517 -17.729  0.00  0.00    -0.268 OA
ATOM     31  N   UNL     1      33.799 -23.170 -18.905  0.00  0.00    -0.193 N 
ATOM     32  C   UNL     1      34.850 -22.303 -18.641  0.00  0.00    +0.268 C 
ATOM     33  H   UNL     1      33.154 -22.993 -19.629  0.00  0.00    +0.183 HD
BRANCH  31  34
ATOM     34  O   UNL     1      33.698 -24.309 -18.094  0.00  0.00    -0.295 OA
ATOM     35  H   UNL     1      34.500 -24.846 -18.189  0.00  0.00    +0.241 HD
ENDBRANCH  31  34
ENDBRANCH  27  32
ENDBRANCH  21  24
ENDBRANCH  19  22
ENDBRANCH   1  19
TORSDOF 10
ENDMDL
MODEL 8
REMARK VINA RESULT:     -10.5      4.429     11.018
REMARK  Name = 9804992
REMARK  10 active torsions:
REMARK  status: ('A' for Active; 'I' for Inactive)
REMARK    1  A    between atoms: C_1  and  C_9
REMARK    2  A    between atoms: C_1  and  O_19
REMARK    3  A    between atoms: C_2  and  C_12
REMARK    4  A    between atoms: C_12  and  N_13
REMARK    5  A    between atoms: N_13  and  C_15
REMARK    6  A    between atoms: N_13  and  C_17
REMARK    7  A    between atoms: O_19  and  C_22
REMARK    8  A    between atoms: N_21  and  C_24
REMARK    9  A    between atoms: C_27  and  C_32
REMARK   10  A    between atoms: N_31  and  O_34
REMARK                            x       y       z     vdW  Elec       q    Type
REMARK                         _______ _______ _______ _____ _____    ______ ____
ROOT
ATOM      1  C   UNL     1      32.947 -23.449 -17.015  0.00  0.00    +0.237 C 
ENDROOT
BRANCH   1   9
ATOM      2  C   UNL     1      35.785 -19.204 -21.066  0.00  0.00    -0.043 C 
ATOM      3  C   UNL     1      34.059 -20.421 -19.860  0.00  0.00    -0.000 C 
ATOM      4  C   UNL     1      35.059 -21.180 -19.208  0.00  0.00    -0.000 C 
ATOM      5  C   UNL     1      34.438 -19.437 -20.787  0.00  0.00    -0.006 C 
ATOM      6  C   UNL     1      36.769 -19.950 -20.424  0.00  0.00    -0.006 C 
ATOM      7  C   UNL     1      36.410 -20.932 -19.501  0.00  0.00    -0.000 C 
ATOM      8  C   UNL     1      34.680 -22.165 -18.281  0.00  0.00    -0.001 C 
ATOM      9  C   UNL     1      33.332 -22.399 -18.002  0.00  0.00    +0.021 C 
ATOM     10  C   UNL     1      32.708 -20.670 -19.567  0.00  0.00    -0.000 C 
ATOM     11  C   UNL     1      32.349 -21.652 -18.644  0.00  0.00    -0.001 C 
BRANCH   2  12
ATOM     12  C   UNL     1      36.171 -18.154 -22.053  0.00  0.00    -0.050 C 
BRANCH  12  13
ATOM     13  N   UNL     1      35.036 -17.320 -22.451  0.00  0.00    +0.390 N 
ATOM     14  H   UNL     1      34.197 -17.673 -21.992  0.00  0.00    -0.079 HD
BRANCH  13  15
ATOM     15  C   UNL     1      35.247 -15.937 -22.027  0.00  0.00    -0.077 C 
ATOM     16  C   UNL     1      34.713 -15.705 -20.624  0.00  0.00    -0.025 C 
ENDBRANCH  13  15
BRANCH  13  17
ATOM     17  C   UNL     1      34.836 -17.387 -23.897  0.00  0.00    -0.077 C 
ATOM     18  C   UNL     1      34.057 -18.633 -24.287  0.00  0.00    -0.025 C 
ENDBRANCH  13  17
ENDBRANCH  12  13
ENDBRANCH   2  12
ENDBRANCH   1   9
BRANCH   1  19
ATOM     19  O   UNL     1      33.017 -22.911 -15.701  0.00  0.00    -0.429 OA
BRANCH  19  22
ATOM     20  O   UNL     1      33.856 -23.637 -13.701  0.00  0.00    -0.226 OA
ATOM     21  N   UNL     1      35.165 -23.559 -15.641  0.00  0.00    -0.250 N 
ATOM     22  C   UNL     1      34.015 -23.398 -14.893  0.00  0.00    +0.406 C 
ATOM     23  H   UNL     1      35.099 -23.313 -16.592  0.00  0.00    +0.158 HD
BRANCH  21  24
ATOM     24  C   UNL     1      36.424 -24.034 -15.210  0.00  0.00    +0.053 C 
ATOM     25  C   UNL     1      37.562 -23.245 -15.381  0.00  0.00    +0.015 C 
ATOM     26  C   UNL     1      36.530 -25.292 -14.616  0.00  0.00    +0.015 C 
ATOM     27  C   UNL     1      38.911 -24.973 -14.363  0.00  0.00    +0.055 C 
ATOM     28  C   UNL     1      38.806 -23.714 -14.957  0.00  0.00    +0.006 C 
ATOM     29  C   UNL     1      37.773 -25.761 -14.192  0.00  0.00    +0.006 C 
BRANCH  27  32
ATOM     30  O   UNL     1      41.121 -24.668 -13.627  0.00  0.00    -0.268 OA
ATOM     31  N   UNL     1      40.378 -26.836 -13.858  0.00  0.00    -0.193 N 
ATOM     32  C   UNL     1      40.208 -25.461 -13.921  0.00  0.00    +0.268 C 
ATOM     33  H   UNL     1      39.650 -27.457 -14.092  0.00  0.00    +0.183 HD
BRANCH  31  34
ATOM     34  O   UNL     1      41.634 -27.301 -13.444  0.00  0.00    -0.295 OA
ATOM     35  H   UNL     1      41.854 -26.917 -12.581  0.00  0.00    +0.241 HD
ENDBRANCH  31  34
ENDBRANCH  27  32
ENDBRANCH  21  24
ENDBRANCH  19  22
ENDBRANCH   1  19
TORSDOF 10
ENDMDL
MODEL 9
REMARK VINA RESULT:     -10.5      4.601      9.306
REMARK  Name = 9804992
REMARK  10 active torsions:
REMARK  status: ('A' for Active; 'I' for Inactive)
REMARK    1  A    between atoms: C_1  and  C_9
REMARK    2  A    between atoms: C_1  and  O_19
REMARK    3  A    between atoms: C_2  and  C_12
REMARK    4  A    between atoms: C_12  and  N_13
REMARK    5  A    between atoms: N_13  and  C_15
REMARK    6  A    between atoms: N_13  and  C_17
REMARK    7  A    between atoms: O_19  and  C_22
REMARK    8  A    between atoms: N_21  and  C_24
REMARK    9  A    between atoms: C_27  and  C_32
REMARK   10  A    between atoms: N_31  and  O_34
REMARK                            x       y       z     vdW  Elec       q    Type
REMARK                         _______ _______ _______ _____ _____    ______ ____
ROOT
ATOM      1  C   UNL     1      33.391 -12.397 -23.629  0.00  0.00    +0.237 C 
ENDROOT
BRANCH   1   9
ATOM      2  C   UNL     1      35.632 -18.177 -21.617  0.00  0.00    -0.043 C 
ATOM      3  C   UNL     1      34.872 -15.867 -21.565  0.00  0.00    -0.000 C 
ATOM      4  C   UNL     1      34.665 -15.911 -22.965  0.00  0.00    -0.000 C 
ATOM      5  C   UNL     1      35.356 -17.009 -20.906  0.00  0.00    -0.006 C 
ATOM      6  C   UNL     1      35.428 -18.220 -22.993  0.00  0.00    -0.006 C 
ATOM      7  C   UNL     1      34.948 -17.096 -23.664  0.00  0.00    -0.000 C 
ATOM      8  C   UNL     1      34.180 -14.770 -23.623  0.00  0.00    -0.001 C 
ATOM      9  C   UNL     1      33.904 -13.600 -22.913  0.00  0.00    +0.021 C 
ATOM     10  C   UNL     1      34.588 -14.682 -20.866  0.00  0.00    -0.000 C 
ATOM     11  C   UNL     1      34.107 -13.557 -21.537  0.00  0.00    -0.001 C 
BRANCH   2  12
ATOM     12  C   UNL     1      36.147 -19.381 -20.901  0.00  0.00    -0.050 C 
BRANCH  12  13
ATOM     13  N   UNL     1      35.148 -19.965 -20.006  0.00  0.00    +0.390 N 
ATOM     14  H   UNL     1      35.062 -19.370 -19.182  0.00  0.00    -0.079 HD
BRANCH  13  15
ATOM     15  C   UNL     1      33.846 -20.029 -20.668  0.00  0.00    -0.077 C 
ATOM     16  C   UNL     1      32.775 -20.551 -19.725  0.00  0.00    -0.025 C 
ENDBRANCH  13  15
BRANCH  13  17
ATOM     17  C   UNL     1      35.568 -21.296 -19.573  0.00  0.00    -0.077 C 
ATOM     18  C   UNL     1      36.511 -21.215 -18.384  0.00  0.00    -0.025 C 
ENDBRANCH  13  17
ENDBRANCH  12  13
ENDBRANCH   2  12
ENDBRANCH   1   9
BRANCH   1  19
ATOM     19  O   UNL     1      34.479 -11.542 -23.957  0.00  0.00    -0.429 OA
BRANCH  19  22
ATOM     20  O   UNL     1      35.308  -9.458 -23.513  0.00  0.00    -0.226 OA
ATOM     21  N   UNL     1      33.027  -9.951 -23.325  0.00  0.00    -0.250 N 
ATOM     22  C   UNL     1      34.356 -10.225 -23.584  0.00  0.00    +0.406 C 
ATOM     23  H   UNL     1      32.401 -10.703 -23.440  0.00  0.00    +0.158 HD
BRANCH  21  24
ATOM     24  C   UNL     1      32.455  -8.725 -22.915  0.00  0.00    +0.053 C 
ATOM     25  C   UNL     1      31.370  -8.195 -23.614  0.00  0.00    +0.015 C 
ATOM     26  C   UNL     1      32.976  -8.046 -21.814  0.00  0.00    +0.015 C 
ATOM     27  C   UNL     1      31.327  -6.305 -22.108  0.00  0.00    +0.055 C 
ATOM     28  C   UNL     1      30.806  -6.984 -23.210  0.00  0.00    +0.006 C 
ATOM     29  C   UNL     1      32.412  -6.835 -21.411  0.00  0.00    +0.006 C 
BRANCH  27  32
ATOM     30  O   UNL     1      29.524  -4.961 -21.430  0.00  0.00    -0.268 OA
ATOM     31  N   UNL     1      31.585  -3.947 -21.604  0.00  0.00    -0.193 N 
ATOM     32  C   UNL     1      30.739  -5.043 -21.689  0.00  0.00    +0.268 C 
ATOM     33  H   UNL     1      32.546  -4.020 -21.810  0.00  0.00    +0.183 HD
BRANCH  31  34
ATOM     34  O   UNL     1      31.010  -2.730 -21.211  0.00  0.00    -0.295 OA
ATOM     35  H   UNL     1      31.617  -2.260 -20.619  0.00  0.00    +0.241 HD
ENDBRANCH  31  34
ENDBRANCH  27  32
ENDBRANCH  21  24
ENDBRANCH  19  22
ENDBRANCH   1  19
TORSDOF 10
ENDMDL
