MODEL 1
REMARK VINA RESULT:     -11.6      0.000      0.000
REMARK  Name = 9799284
REMARK  5 active torsions:
REMARK  status: ('A' for Active; 'I' for Inactive)
REMARK    1  A    between atoms: N_1  and  C_19
REMARK    2  A    between atoms: C_2  and  C_8
REMARK    3  A    between atoms: C_8  and  N_10
REMARK    4  A    between atoms: C_19  and  C_21
REMARK    5  A    between atoms: C_21  and  C_23
REMARK                            x       y       z     vdW  Elec       q    Type
REMARK                         _______ _______ _______ _____ _____    ______ ____
ROOT
ATOM      1  N   UNL     1      34.679 -16.290 -21.808  0.00  0.00    +0.392 N 
ATOM      2  C   UNL     1      33.821 -13.623 -22.670  0.00  0.00    +0.016 C 
ATOM      3  C   UNL     1      33.989 -14.789 -23.650  0.00  0.00    -0.021 C 
ATOM      4  C   UNL     1      33.537 -14.164 -21.264  0.00  0.00    -0.021 C 
ATOM      5  C   UNL     1      35.027 -15.793 -23.146  0.00  0.00    -0.077 C 
ATOM      6  C   UNL     1      34.590 -15.189 -20.840  0.00  0.00    -0.077 C 
ATOM      7  H   UNL     1      33.761 -16.733 -21.866  0.00  0.00    -0.079 HD
ENDROOT
BRANCH   2   8
ATOM      8  C   UNL     1      32.713 -12.676 -23.127  0.00  0.00    +0.094 C 
BRANCH   8  10
ATOM      9  O   UNL     1      31.384 -10.252 -21.914  0.00  0.00    -0.270 OA
ATOM     10  N   UNL     1      33.150 -11.313 -23.078  0.00  0.00    -0.272 N 
ATOM     11  C   UNL     1      34.423 -10.885 -23.666  0.00  0.00    +0.121 C 
ATOM     12  C   UNL     1      32.458 -10.250 -22.487  0.00  0.00    +0.249 C 
ATOM     13  C   UNL     1      34.440  -9.425 -23.370  0.00  0.00    +0.002 C 
ATOM     14  C   UNL     1      33.286  -9.055 -22.678  0.00  0.00    +0.051 C 
ATOM     15  C   UNL     1      35.398  -8.480 -23.683  0.00  0.00    -0.002 C 
ATOM     16  C   UNL     1      33.041  -7.756 -22.277  0.00  0.00    +0.004 C 
ATOM     17  C   UNL     1      35.175  -7.157 -23.288  0.00  0.00    -0.000 C 
ATOM     18  C   UNL     1      34.007  -6.799 -22.591  0.00  0.00    +0.000 C 
ENDBRANCH   8  10
ENDBRANCH   2   8
BRANCH   1  19
ATOM     19  C   UNL     1      35.651 -17.287 -21.363  0.00  0.00    -0.006 C 
BRANCH  19  21
ATOM     20  O   UNL     1      34.930 -18.940 -22.966  0.00  0.00    -0.294 OA
ATOM     21  C   UNL     1      35.184 -18.665 -21.796  0.00  0.00    +0.152 C 
BRANCH  21  23
ATOM     22  F   UNL     1      34.610 -22.626 -17.903  0.00  0.00    -0.204 F 
ATOM     23  C   UNL     1      35.031 -19.724 -20.754  0.00  0.00    +0.033 C 
ATOM     24  C   UNL     1      33.763 -20.150 -20.431  0.00  0.00    +0.005 C 
ATOM     25  C   UNL     1      36.162 -20.232 -20.160  0.00  0.00    +0.005 C 
ATOM     26  C   UNL     1      33.619 -21.140 -19.459  0.00  0.00    +0.030 C 
ATOM     27  C   UNL     1      36.019 -21.221 -19.188  0.00  0.00    +0.030 C 
ATOM     28  C   UNL     1      34.748 -21.675 -18.837  0.00  0.00    +0.140 C 
ENDBRANCH  21  23
ENDBRANCH  19  21
ENDBRANCH   1  19
TORSDOF 5
ENDMDL
MODEL 2
REMARK VINA RESULT:     -11.4      3.468     10.173
REMARK  Name = 9799284
REMARK  5 active torsions:
REMARK  status: ('A' for Active; 'I' for Inactive)
REMARK    1  A    between atoms: N_1  and  C_19
REMARK    2  A    between atoms: C_2  and  C_8
REMARK    3  A    between atoms: C_8  and  N_10
REMARK    4  A    between atoms: C_19  and  C_21
REMARK    5  A    between atoms: C_21  and  C_23
REMARK                            x       y       z     vdW  Elec       q    Type
REMARK                         _______ _______ _______ _____ _____    ______ ____
ROOT
ATOM      1  N   UNL     1      33.920 -14.117 -23.370  0.00  0.00    +0.392 N 
ATOM      2  C   UNL     1      34.884 -16.809 -22.720  0.00  0.00    +0.016 C 
ATOM      3  C   UNL     1      34.859 -16.268 -24.154  0.00  0.00    -0.021 C 
ATOM      4  C   UNL     1      34.967 -15.643 -21.728  0.00  0.00    -0.021 C 
ATOM      5  C   UNL     1      33.763 -15.216 -24.333  0.00  0.00    -0.077 C 
ATOM      6  C   UNL     1      33.867 -14.612 -21.988  0.00  0.00    -0.077 C 
ATOM      7  H   UNL     1      34.838 -13.697 -23.519  0.00  0.00    -0.079 HD
ENDROOT
BRANCH   2   8
ATOM      8  C   UNL     1      36.042 -17.783 -22.520  0.00  0.00    +0.094 C 
BRANCH   8  10
ATOM      9  O   UNL     1      37.766 -19.177 -20.471  0.00  0.00    -0.270 OA
ATOM     10  N   UNL     1      35.703 -18.794 -21.564  0.00  0.00    -0.272 N 
ATOM     11  C   UNL     1      34.342 -19.328 -21.450  0.00  0.00    +0.121 C 
ATOM     12  C   UNL     1      36.580 -19.385 -20.647  0.00  0.00    +0.249 C 
ATOM     13  C   UNL     1      34.478 -20.324 -20.350  0.00  0.00    +0.002 C 
ATOM     14  C   UNL     1      35.792 -20.355 -19.881  0.00  0.00    +0.051 C 
ATOM     15  C   UNL     1      33.519 -21.149 -19.794  0.00  0.00    -0.002 C 
ATOM     16  C   UNL     1      36.200 -21.191 -18.860  0.00  0.00    +0.004 C 
ATOM     17  C   UNL     1      33.905 -22.006 -18.759  0.00  0.00    -0.000 C 
ATOM     18  C   UNL     1      35.234 -22.026 -18.295  0.00  0.00    +0.000 C 
ENDBRANCH   8  10
ENDBRANCH   2   8
BRANCH   1  19
ATOM     19  C   UNL     1      32.897 -13.096 -23.588  0.00  0.00    -0.006 C 
BRANCH  19  21
ATOM     20  O   UNL     1      34.564 -11.513 -24.322  0.00  0.00    -0.294 OA
ATOM     21  C   UNL     1      33.561 -11.732 -23.646  0.00  0.00    +0.152 C 
BRANCH  21  23
ATOM     22  F   UNL     1      31.344  -7.567 -20.662  0.00  0.00    -0.204 F 
ATOM     23  C   UNL     1      32.968 -10.618 -22.849  0.00  0.00    +0.033 C 
ATOM     24  C   UNL     1      32.075 -10.928 -21.848  0.00  0.00    +0.005 C 
ATOM     25  C   UNL     1      33.337  -9.326 -23.144  0.00  0.00    +0.005 C 
ATOM     26  C   UNL     1      31.521  -9.887 -21.102  0.00  0.00    +0.030 C 
ATOM     27  C   UNL     1      32.784  -8.286 -22.399  0.00  0.00    +0.030 C 
ATOM     28  C   UNL     1      31.876  -8.566 -21.378  0.00  0.00    +0.140 C 
ENDBRANCH  21  23
ENDBRANCH  19  21
ENDBRANCH   1  19
TORSDOF 5
ENDMDL
MODEL 3
REMARK VINA RESULT:     -11.4      3.397      5.864
REMARK  Name = 9799284
REMARK  5 active torsions:
REMARK  status: ('A' for Active; 'I' for Inactive)
REMARK    1  A    between atoms: N_1  and  C_19
REMARK    2  A    between atoms: C_2  and  C_8
REMARK    3  A    between atoms: C_8  and  N_10
REMARK    4  A    between atoms: C_19  and  C_21
REMARK    5  A    between atoms: C_21  and  C_23
REMARK                            x       y       z     vdW  Elec       q    Type
REMARK                         _______ _______ _______ _____ _____    ______ ____
ROOT
ATOM      1  N   UNL     1      35.726 -21.101 -19.507  0.00  0.00    +0.392 N 
ATOM      2  C   UNL     1      35.574 -18.816 -21.339  0.00  0.00    +0.016 C 
ATOM      3  C   UNL     1      36.908 -19.411 -20.874  0.00  0.00    -0.021 C 
ATOM      4  C   UNL     1      34.476 -19.883 -21.262  0.00  0.00    -0.021 C 
ATOM      5  C   UNL     1      36.774 -20.071 -19.501  0.00  0.00    -0.077 C 
ATOM      6  C   UNL     1      34.424 -20.528 -19.876  0.00  0.00    -0.077 C 
ATOM      7  H   UNL     1      35.973 -21.798 -20.210  0.00  0.00    -0.079 HD
ENDROOT
BRANCH   2   8
ATOM      8  C   UNL     1      35.687 -18.247 -22.751  0.00  0.00    +0.094 C 
BRANCH   8  10
ATOM      9  O   UNL     1      34.532 -16.784 -25.125  0.00  0.00    -0.270 OA
ATOM     10  N   UNL     1      35.088 -16.949 -22.831  0.00  0.00    -0.272 N 
ATOM     11  C   UNL     1      34.944 -16.087 -21.654  0.00  0.00    +0.121 C 
ATOM     12  C   UNL     1      34.576 -16.352 -23.989  0.00  0.00    +0.249 C 
ATOM     13  C   UNL     1      34.281 -14.879 -22.219  0.00  0.00    +0.002 C 
ATOM     14  C   UNL     1      34.066 -15.036 -23.589  0.00  0.00    +0.051 C 
ATOM     15  C   UNL     1      33.890 -13.717 -21.580  0.00  0.00    -0.002 C 
ATOM     16  C   UNL     1      33.466 -14.065 -24.366  0.00  0.00    +0.004 C 
ATOM     17  C   UNL     1      33.280 -12.717 -22.344  0.00  0.00    -0.000 C 
ATOM     18  C   UNL     1      33.069 -12.890 -23.725  0.00  0.00    +0.000 C 
ENDBRANCH   8  10
ENDBRANCH   2   8
BRANCH   1  19
ATOM     19  C   UNL     1      35.646 -21.758 -18.204  0.00  0.00    -0.006 C 
BRANCH  19  21
ATOM     20  O   UNL     1      34.335 -23.526 -19.195  0.00  0.00    -0.294 OA
ATOM     21  C   UNL     1      34.528 -22.785 -18.234  0.00  0.00    +0.152 C 
BRANCH  21  23
ATOM     22  F   UNL     1      31.179 -23.189 -13.785  0.00  0.00    -0.204 F 
ATOM     23  C   UNL     1      33.632 -22.894 -17.044  0.00  0.00    +0.033 C 
ATOM     24  C   UNL     1      34.192 -23.197 -15.824  0.00  0.00    +0.005 C 
ATOM     25  C   UNL     1      32.283 -22.686 -17.214  0.00  0.00    +0.005 C 
ATOM     26  C   UNL     1      33.355 -23.297 -14.712  0.00  0.00    +0.030 C 
ATOM     27  C   UNL     1      31.447 -22.785 -16.103  0.00  0.00    +0.030 C 
ATOM     28  C   UNL     1      31.982 -23.092 -14.852  0.00  0.00    +0.140 C 
ENDBRANCH  21  23
ENDBRANCH  19  21
ENDBRANCH   1  19
TORSDOF 5
ENDMDL
MODEL 4
REMARK VINA RESULT:     -11.3      1.233      1.832
REMARK  Name = 9799284
REMARK  5 active torsions:
REMARK  status: ('A' for Active; 'I' for Inactive)
REMARK    1  A    between atoms: N_1  and  C_19
REMARK    2  A    between atoms: C_2  and  C_8
REMARK    3  A    between atoms: C_8  and  N_10
REMARK    4  A    between atoms: C_19  and  C_21
REMARK    5  A    between atoms: C_21  and  C_23
REMARK                            x       y       z     vdW  Elec       q    Type
REMARK                         _______ _______ _______ _____ _____    ______ ____
ROOT
ATOM      1  N   UNL     1      34.491 -15.874 -21.641  0.00  0.00    +0.392 N 
ATOM      2  C   UNL     1      33.143 -13.276 -21.817  0.00  0.00    +0.016 C 
ATOM      3  C   UNL     1      33.432 -14.138 -23.051  0.00  0.00    -0.021 C 
ATOM      4  C   UNL     1      33.056 -14.166 -20.572  0.00  0.00    -0.021 C 
ATOM      5  C   UNL     1      34.655 -15.030 -22.832  0.00  0.00    -0.077 C 
ATOM      6  C   UNL     1      34.292 -15.057 -20.436  0.00  0.00    -0.077 C 
ATOM      7  H   UNL     1      33.658 -16.447 -21.774  0.00  0.00    -0.079 HD
ENDROOT
BRANCH   2   8
ATOM      8  C   UNL     1      31.864 -12.463 -22.001  0.00  0.00    +0.094 C 
BRANCH   8  10
ATOM      9  O   UNL     1      33.102 -10.428 -23.856  0.00  0.00    -0.270 OA
ATOM     10  N   UNL     1      32.111 -11.067 -21.804  0.00  0.00    -0.272 N 
ATOM     11  C   UNL     1      31.757 -10.385 -20.556  0.00  0.00    +0.121 C 
ATOM     12  C   UNL     1      32.696 -10.197 -22.733  0.00  0.00    +0.249 C 
ATOM     13  C   UNL     1      32.192  -8.984 -20.819  0.00  0.00    +0.002 C 
ATOM     14  C   UNL     1      32.742  -8.877 -22.097  0.00  0.00    +0.051 C 
ATOM     15  C   UNL     1      32.113  -7.876 -19.998  0.00  0.00    -0.002 C 
ATOM     16  C   UNL     1      33.227  -7.686 -22.602  0.00  0.00    +0.004 C 
ATOM     17  C   UNL     1      32.597  -6.657 -20.485  0.00  0.00    -0.000 C 
ATOM     18  C   UNL     1      33.149  -6.564 -21.776  0.00  0.00    +0.000 C 
ENDBRANCH   8  10
ENDBRANCH   2   8
BRANCH   1  19
ATOM     19  C   UNL     1      35.645 -16.756 -21.476  0.00  0.00    -0.006 C 
BRANCH  19  21
ATOM     20  O   UNL     1      34.995 -18.382 -23.136  0.00  0.00    -0.294 OA
ATOM     21  C   UNL     1      35.281 -18.147 -21.965  0.00  0.00    +0.152 C 
BRANCH  21  23
ATOM     22  F   UNL     1      35.252 -22.340 -18.279  0.00  0.00    -0.204 F 
ATOM     23  C   UNL     1      35.274 -19.268 -20.978  0.00  0.00    +0.033 C 
ATOM     24  C   UNL     1      34.071 -19.855 -20.659  0.00  0.00    +0.005 C 
ATOM     25  C   UNL     1      36.468 -19.670 -20.429  0.00  0.00    +0.005 C 
ATOM     26  C   UNL     1      34.063 -20.903 -19.738  0.00  0.00    +0.030 C 
ATOM     27  C   UNL     1      36.462 -20.718 -19.509  0.00  0.00    +0.030 C 
ATOM     28  C   UNL     1      35.259 -21.334 -19.163  0.00  0.00    +0.140 C 
ENDBRANCH  21  23
ENDBRANCH  19  21
ENDBRANCH   1  19
TORSDOF 5
ENDMDL
MODEL 5
REMARK VINA RESULT:     -11.3      1.145      1.713
REMARK  Name = 9799284
REMARK  5 active torsions:
REMARK  status: ('A' for Active; 'I' for Inactive)
REMARK    1  A    between atoms: N_1  and  C_19
REMARK    2  A    between atoms: C_2  and  C_8
REMARK    3  A    between atoms: C_8  and  N_10
REMARK    4  A    between atoms: C_19  and  C_21
REMARK    5  A    between atoms: C_21  and  C_23
REMARK                            x       y       z     vdW  Elec       q    Type
REMARK                         _______ _______ _______ _____ _____    ______ ____
ROOT
ATOM      1  N   UNL     1      34.485 -15.904 -21.617  0.00  0.00    +0.392 N 
ATOM      2  C   UNL     1      33.181 -13.298 -21.940  0.00  0.00    +0.016 C 
ATOM      3  C   UNL     1      33.513 -14.205 -23.130  0.00  0.00    -0.021 C 
ATOM      4  C   UNL     1      33.026 -14.143 -20.671  0.00  0.00    -0.021 C 
ATOM      5  C   UNL     1      34.714 -15.103 -22.827  0.00  0.00    -0.077 C 
ATOM      6  C   UNL     1      34.243 -15.044 -20.450  0.00  0.00    -0.077 C 
ATOM      7  H   UNL     1      33.651 -16.471 -21.768  0.00  0.00    -0.079 HD
ENDROOT
BRANCH   2   8
ATOM      8  C   UNL     1      31.923 -12.476 -22.209  0.00  0.00    +0.094 C 
BRANCH   8  10
ATOM      9  O   UNL     1      31.219 -10.833 -19.776  0.00  0.00    -0.270 OA
ATOM     10  N   UNL     1      32.149 -11.088 -21.937  0.00  0.00    -0.272 N 
ATOM     11  C   UNL     1      32.817 -10.208 -22.900  0.00  0.00    +0.121 C 
ATOM     12  C   UNL     1      31.783 -10.410 -20.768  0.00  0.00    +0.249 C 
ATOM     13  C   UNL     1      32.823  -8.898 -22.190  0.00  0.00    +0.002 C 
ATOM     14  C   UNL     1      32.216  -9.020 -20.940  0.00  0.00    +0.051 C 
ATOM     15  C   UNL     1      33.325  -7.680 -22.607  0.00  0.00    -0.002 C 
ATOM     16  C   UNL     1      32.084  -7.956 -20.068  0.00  0.00    +0.004 C 
ATOM     17  C   UNL     1      33.205  -6.587 -21.743  0.00  0.00    -0.000 C 
ATOM     18  C   UNL     1      32.590  -6.724 -20.484  0.00  0.00    +0.000 C 
ENDBRANCH   8  10
ENDBRANCH   2   8
BRANCH   1  19
ATOM     19  C   UNL     1      35.619 -16.794 -21.370  0.00  0.00    -0.006 C 
BRANCH  19  21
ATOM     20  O   UNL     1      35.043 -18.404 -23.073  0.00  0.00    -0.294 OA
ATOM     21  C   UNL     1      35.283 -18.180 -21.889  0.00  0.00    +0.152 C 
BRANCH  21  23
ATOM     22  F   UNL     1      35.140 -22.411 -18.248  0.00  0.00    -0.204 F 
ATOM     23  C   UNL     1      35.244 -19.313 -20.916  0.00  0.00    +0.033 C 
ATOM     24  C   UNL     1      36.428 -19.744 -20.361  0.00  0.00    +0.005 C 
ATOM     25  C   UNL     1      34.029 -19.879 -20.611  0.00  0.00    +0.005 C 
ATOM     26  C   UNL     1      36.392 -20.801 -19.451  0.00  0.00    +0.030 C 
ATOM     27  C   UNL     1      33.992 -20.934 -19.701  0.00  0.00    +0.030 C 
ATOM     28  C   UNL     1      35.174 -21.396 -19.122  0.00  0.00    +0.140 C 
ENDBRANCH  21  23
ENDBRANCH  19  21
ENDBRANCH   1  19
TORSDOF 5
ENDMDL
MODEL 6
REMARK VINA RESULT:     -11.3      4.769     11.435
REMARK  Name = 9799284
REMARK  5 active torsions:
REMARK  status: ('A' for Active; 'I' for Inactive)
REMARK    1  A    between atoms: N_1  and  C_19
REMARK    2  A    between atoms: C_2  and  C_8
REMARK    3  A    between atoms: C_8  and  N_10
REMARK    4  A    between atoms: C_19  and  C_21
REMARK    5  A    between atoms: C_21  and  C_23
REMARK                            x       y       z     vdW  Elec       q    Type
REMARK                         _______ _______ _______ _____ _____    ______ ____
ROOT
ATOM      1  N   UNL     1      35.385 -19.689 -20.898  0.00  0.00    +0.392 N 
ATOM      2  C   UNL     1      34.519 -21.666 -18.914  0.00  0.00    +0.016 C 
ATOM      3  C   UNL     1      33.563 -21.069 -19.952  0.00  0.00    -0.021 C 
ATOM      4  C   UNL     1      35.958 -21.602 -19.438  0.00  0.00    -0.021 C 
ATOM      5  C   UNL     1      34.010 -19.671 -20.381  0.00  0.00    -0.077 C 
ATOM      6  C   UNL     1      36.326 -20.186 -19.884  0.00  0.00    -0.077 C 
ATOM      7  H   UNL     1      35.414 -20.327 -21.694  0.00  0.00    -0.079 HD
ENDROOT
BRANCH   2   8
ATOM      8  C   UNL     1      34.126 -23.099 -18.564  0.00  0.00    +0.094 C 
BRANCH   8  10
ATOM      9  O   UNL     1      35.306 -23.931 -15.912  0.00  0.00    -0.270 OA
ATOM     10  N   UNL     1      33.523 -23.163 -17.266  0.00  0.00    -0.272 N 
ATOM     11  C   UNL     1      32.122 -22.794 -17.043  0.00  0.00    +0.121 C 
ATOM     12  C   UNL     1      34.158 -23.565 -16.085  0.00  0.00    +0.249 C 
ATOM     13  C   UNL     1      31.960 -23.015 -15.578  0.00  0.00    +0.002 C 
ATOM     14  C   UNL     1      33.156 -23.468 -15.019  0.00  0.00    +0.051 C 
ATOM     15  C   UNL     1      30.843 -22.834 -14.785  0.00  0.00    -0.002 C 
ATOM     16  C   UNL     1      33.289 -23.754 -13.674  0.00  0.00    +0.004 C 
ATOM     17  C   UNL     1      30.951 -23.116 -13.420  0.00  0.00    -0.000 C 
ATOM     18  C   UNL     1      32.163 -23.572 -12.869  0.00  0.00    +0.000 C 
ENDBRANCH   8  10
ENDBRANCH   2   8
BRANCH   1  19
ATOM     19  C   UNL     1      35.779 -18.356 -21.352  0.00  0.00    -0.006 C 
BRANCH  19  21
ATOM     20  O   UNL     1      35.224 -19.052 -23.595  0.00  0.00    -0.294 OA
ATOM     21  C   UNL     1      35.275 -18.145 -22.768  0.00  0.00    +0.152 C 
BRANCH  21  23
ATOM     22  F   UNL     1      33.582 -13.035 -24.250  0.00  0.00    -0.204 F 
ATOM     23  C   UNL     1      34.823 -16.777 -23.165  0.00  0.00    +0.033 C 
ATOM     24  C   UNL     1      34.267 -16.604 -24.412  0.00  0.00    +0.005 C 
ATOM     25  C   UNL     1      34.978 -15.746 -22.268  0.00  0.00    +0.005 C 
ATOM     26  C   UNL     1      33.843 -15.328 -24.782  0.00  0.00    +0.030 C 
ATOM     27  C   UNL     1      34.555 -14.470 -22.637  0.00  0.00    +0.030 C 
ATOM     28  C   UNL     1      33.988 -14.261 -23.894  0.00  0.00    +0.140 C 
ENDBRANCH  21  23
ENDBRANCH  19  21
ENDBRANCH   1  19
TORSDOF 5
ENDMDL
MODEL 7
REMARK VINA RESULT:     -11.1      3.826     10.033
REMARK  Name = 9799284
REMARK  5 active torsions:
REMARK  status: ('A' for Active; 'I' for Inactive)
REMARK    1  A    between atoms: N_1  and  C_19
REMARK    2  A    between atoms: C_2  and  C_8
REMARK    3  A    between atoms: C_8  and  N_10
REMARK    4  A    between atoms: C_19  and  C_21
REMARK    5  A    between atoms: C_21  and  C_23
REMARK                            x       y       z     vdW  Elec       q    Type
REMARK                         _______ _______ _______ _____ _____    ______ ____
ROOT
ATOM      1  N   UNL     1      33.991 -14.655 -21.769  0.00  0.00    +0.392 N 
ATOM      2  C   UNL     1      35.553 -17.072 -22.329  0.00  0.00    +0.016 C 
ATOM      3  C   UNL     1      34.809 -16.862 -21.006  0.00  0.00    -0.021 C 
ATOM      4  C   UNL     1      34.884 -16.250 -23.436  0.00  0.00    -0.021 C 
ATOM      5  C   UNL     1      34.665 -15.374 -20.680  0.00  0.00    -0.077 C 
ATOM      6  C   UNL     1      34.737 -14.783 -23.029  0.00  0.00    -0.077 C 
ATOM      7  H   UNL     1      33.072 -15.076 -21.904  0.00  0.00    -0.079 HD
ENDROOT
BRANCH   2   8
ATOM      8  C   UNL     1      35.607 -18.552 -22.700  0.00  0.00    +0.094 C 
BRANCH   8  10
ATOM      9  O   UNL     1      37.727 -19.109 -20.624  0.00  0.00    -0.270 OA
ATOM     10  N   UNL     1      35.557 -19.376 -21.531  0.00  0.00    -0.272 N 
ATOM     11  C   UNL     1      34.352 -20.123 -21.159  0.00  0.00    +0.121 C 
ATOM     12  C   UNL     1      36.602 -19.573 -20.620  0.00  0.00    +0.249 C 
ATOM     13  C   UNL     1      34.772 -20.810 -19.905  0.00  0.00    +0.002 C 
ATOM     14  C   UNL     1      36.093 -20.486 -19.592  0.00  0.00    +0.051 C 
ATOM     15  C   UNL     1      34.050 -21.662 -19.091  0.00  0.00    -0.002 C 
ATOM     16  C   UNL     1      36.739 -20.986 -18.477  0.00  0.00    +0.004 C 
ATOM     17  C   UNL     1      34.681 -22.182 -17.957  0.00  0.00    -0.000 C 
ATOM     18  C   UNL     1      36.013 -21.847 -17.652  0.00  0.00    +0.000 C 
ENDBRANCH   8  10
ENDBRANCH   2   8
BRANCH   1  19
ATOM     19  C   UNL     1      33.814 -13.246 -21.421  0.00  0.00    -0.006 C 
BRANCH  19  21
ATOM     20  O   UNL     1      31.710 -14.007 -20.517  0.00  0.00    -0.294 OA
ATOM     21  C   UNL     1      32.496 -13.078 -20.687  0.00  0.00    +0.152 C 
BRANCH  21  23
ATOM     22  F   UNL     1      31.187  -8.031 -18.692  0.00  0.00    -0.204 F 
ATOM     23  C   UNL     1      32.146 -11.728 -20.153  0.00  0.00    +0.033 C 
ATOM     24  C   UNL     1      31.903 -10.710 -21.047  0.00  0.00    +0.005 C 
ATOM     25  C   UNL     1      32.080 -11.555 -18.790  0.00  0.00    +0.005 C 
ATOM     26  C   UNL     1      31.575  -9.449 -20.548  0.00  0.00    +0.030 C 
ATOM     27  C   UNL     1      31.753 -10.295 -18.292  0.00  0.00    +0.030 C 
ATOM     28  C   UNL     1      31.501  -9.241 -19.170  0.00  0.00    +0.140 C 
ENDBRANCH  21  23
ENDBRANCH  19  21
ENDBRANCH   1  19
TORSDOF 5
ENDMDL
MODEL 8
REMARK VINA RESULT:     -10.9      2.017      2.902
REMARK  Name = 9799284
REMARK  5 active torsions:
REMARK  status: ('A' for Active; 'I' for Inactive)
REMARK    1  A    between atoms: N_1  and  C_19
REMARK    2  A    between atoms: C_2  and  C_8
REMARK    3  A    between atoms: C_8  and  N_10
REMARK    4  A    between atoms: C_19  and  C_21
REMARK    5  A    between atoms: C_21  and  C_23
REMARK                            x       y       z     vdW  Elec       q    Type
REMARK                         _______ _______ _______ _____ _____    ______ ____
ROOT
ATOM      1  N   UNL     1      35.456 -17.664 -22.986  0.00  0.00    +0.392 N 
ATOM      2  C   UNL     1      34.072 -15.117 -23.425  0.00  0.00    +0.016 C 
ATOM      3  C   UNL     1      34.981 -15.361 -22.215  0.00  0.00    -0.021 C 
ATOM      4  C   UNL     1      34.485 -16.038 -24.578  0.00  0.00    -0.021 C 
ATOM      5  C   UNL     1      35.026 -16.844 -21.844  0.00  0.00    -0.077 C 
ATOM      6  C   UNL     1      34.547 -17.499 -24.128  0.00  0.00    -0.077 C 
ATOM      7  H   UNL     1      36.381 -17.345 -23.272  0.00  0.00    -0.079 HD
ENDROOT
BRANCH   2   8
ATOM      8  C   UNL     1      34.108 -13.652 -23.853  0.00  0.00    +0.094 C 
BRANCH   8  10
ATOM      9  O   UNL     1      33.087 -10.823 -24.112  0.00  0.00    -0.270 OA
ATOM     10  N   UNL     1      33.444 -12.821 -22.894  0.00  0.00    -0.272 N 
ATOM     11  C   UNL     1      33.146 -13.287 -21.537  0.00  0.00    +0.121 C 
ATOM     12  C   UNL     1      33.004 -11.509 -23.111  0.00  0.00    +0.249 C 
ATOM     13  C   UNL     1      32.467 -12.106 -20.933  0.00  0.00    +0.002 C 
ATOM     14  C   UNL     1      32.385 -11.065 -21.858  0.00  0.00    +0.051 C 
ATOM     15  C   UNL     1      31.954 -11.951 -19.659  0.00  0.00    -0.002 C 
ATOM     16  C   UNL     1      31.801  -9.849 -21.562  0.00  0.00    +0.004 C 
ATOM     17  C   UNL     1      31.357 -10.729 -19.333  0.00  0.00    -0.000 C 
ATOM     18  C   UNL     1      31.281  -9.687 -20.276  0.00  0.00    +0.000 C 
ENDBRANCH   8  10
ENDBRANCH   2   8
BRANCH   1  19
ATOM     19  C   UNL     1      35.544 -19.072 -22.601  0.00  0.00    -0.006 C 
BRANCH  19  21
ATOM     20  O   UNL     1      36.765 -18.466 -20.609  0.00  0.00    -0.294 OA
ATOM     21  C   UNL     1      35.895 -19.163 -21.127  0.00  0.00    +0.152 C 
BRANCH  21  23
ATOM     22  F   UNL     1      33.104 -22.814 -17.956  0.00  0.00    -0.204 F 
ATOM     23  C   UNL     1      35.148 -20.139 -20.278  0.00  0.00    +0.033 C 
ATOM     24  C   UNL     1      33.773 -20.134 -20.324  0.00  0.00    +0.005 C 
ATOM     25  C   UNL     1      35.864 -21.004 -19.485  0.00  0.00    +0.005 C 
ATOM     26  C   UNL     1      33.075 -21.047 -19.533  0.00  0.00    +0.030 C 
ATOM     27  C   UNL     1      35.168 -21.917 -18.693  0.00  0.00    +0.030 C 
ATOM     28  C   UNL     1      33.773 -21.938 -18.717  0.00  0.00    +0.140 C 
ENDBRANCH  21  23
ENDBRANCH  19  21
ENDBRANCH   1  19
TORSDOF 5
ENDMDL
MODEL 9
REMARK VINA RESULT:     -10.9      3.496      6.100
REMARK  Name = 9799284
REMARK  5 active torsions:
REMARK  status: ('A' for Active; 'I' for Inactive)
REMARK    1  A    between atoms: N_1  and  C_19
REMARK    2  A    between atoms: C_2  and  C_8
REMARK    3  A    between atoms: C_8  and  N_10
REMARK    4  A    between atoms: C_19  and  C_21
REMARK    5  A    between atoms: C_21  and  C_23
REMARK                            x       y       z     vdW  Elec       q    Type
REMARK                         _______ _______ _______ _____ _____    ______ ____
ROOT
ATOM      1  N   UNL     1      35.354 -21.370 -19.209  0.00  0.00    +0.392 N 
ATOM      2  C   UNL     1      35.463 -19.174 -21.148  0.00  0.00    +0.016 C 
ATOM      3  C   UNL     1      36.719 -19.909 -20.666  0.00  0.00    -0.021 C 
ATOM      4  C   UNL     1      34.242 -20.089 -21.010  0.00  0.00    -0.021 C 
ATOM      5  C   UNL     1      36.523 -20.481 -19.261  0.00  0.00    -0.077 C 
ATOM      6  C   UNL     1      34.128 -20.656 -19.594  0.00  0.00    -0.077 C 
ATOM      7  H   UNL     1      35.502 -22.125 -19.878  0.00  0.00    -0.079 HD
ENDROOT
BRANCH   2   8
ATOM      8  C   UNL     1      35.628 -18.691 -22.587  0.00  0.00    +0.094 C 
BRANCH   8  10
ATOM      9  O   UNL     1      35.332 -16.488 -20.544  0.00  0.00    -0.270 OA
ATOM     10  N   UNL     1      35.140 -17.354 -22.739  0.00  0.00    -0.272 N 
ATOM     11  C   UNL     1      34.681 -16.837 -24.031  0.00  0.00    +0.121 C 
ATOM     12  C   UNL     1      35.040 -16.396 -21.722  0.00  0.00    +0.249 C 
ATOM     13  C   UNL     1      34.282 -15.441 -23.697  0.00  0.00    +0.002 C 
ATOM     14  C   UNL     1      34.494 -15.185 -22.342  0.00  0.00    +0.051 C 
ATOM     15  C   UNL     1      33.768 -14.458 -24.522  0.00  0.00    -0.002 C 
ATOM     16  C   UNL     1      34.210 -13.964 -21.761  0.00  0.00    +0.004 C 
ATOM     17  C   UNL     1      33.472 -13.213 -23.958  0.00  0.00    -0.000 C 
ATOM     18  C   UNL     1      33.691 -12.968 -22.589  0.00  0.00    +0.000 C 
ENDBRANCH   8  10
ENDBRANCH   2   8
BRANCH   1  19
ATOM     19  C   UNL     1      35.210 -21.949 -17.874  0.00  0.00    -0.006 C 
BRANCH  19  21
ATOM     20  O   UNL     1      33.857 -23.691 -18.853  0.00  0.00    -0.294 OA
ATOM     21  C   UNL     1      34.078 -22.960 -17.891  0.00  0.00    +0.152 C 
BRANCH  21  23
ATOM     22  F   UNL     1      30.801 -23.357 -13.387  0.00  0.00    -0.204 F 
ATOM     23  C   UNL     1      33.202 -23.065 -16.686  0.00  0.00    +0.033 C 
ATOM     24  C   UNL     1      31.862 -22.777 -16.819  0.00  0.00    +0.005 C 
ATOM     25  C   UNL     1      33.767 -23.447 -15.491  0.00  0.00    +0.005 C 
ATOM     26  C   UNL     1      31.043 -22.877 -15.694  0.00  0.00    +0.030 C 
ATOM     27  C   UNL     1      32.949 -23.547 -14.367  0.00  0.00    +0.030 C 
ATOM     28  C   UNL     1      31.587 -23.262 -14.468  0.00  0.00    +0.140 C 
ENDBRANCH  21  23
ENDBRANCH  19  21
ENDBRANCH   1  19
TORSDOF 5
ENDMDL
