MODEL 1
REMARK VINA RESULT:     -11.5      0.000      0.000
REMARK  Name = 24958200
REMARK  3 active torsions:
REMARK  status: ('A' for Active; 'I' for Inactive)
REMARK    1  A    between atoms: N_1  and  C_13
REMARK    2  A    between atoms: C_6  and  C_26
REMARK    3  A    between atoms: C_10  and  C_17
REMARK                            x       y       z     vdW  Elec       q    Type
REMARK                         _______ _______ _______ _____ _____    ______ ____
ROOT
ATOM      1  N   UNL     1      32.430 -22.913 -16.743  0.00  0.00    -0.189 N 
ATOM      2  N   UNL     1      31.086 -22.972 -16.821  0.00  0.00    -0.174 NA
ATOM      3  C   UNL     1      31.885 -23.995 -14.957  0.00  0.00    +0.036 C 
ATOM      4  C   UNL     1      32.965 -23.514 -15.641  0.00  0.00    +0.091 C 
ATOM      5  C   UNL     1      30.710 -23.642 -15.717  0.00  0.00    +0.105 C 
ATOM      6  C   UNL     1      29.428 -24.005 -15.263  0.00  0.00    +0.072 C 
ATOM      7  C   UNL     1      31.931 -24.690 -13.755  0.00  0.00    +0.003 C 
ATOM      8  C   UNL     1      29.442 -24.715 -14.042  0.00  0.00    +0.006 C 
ATOM      9  C   UNL     1      30.637 -25.040 -13.325  0.00  0.00    +0.000 C 
ENDROOT
BRANCH   1  13
ATOM     10  C   UNL     1      34.614 -21.007 -19.744  0.00  0.00    -0.024 C 
ATOM     11  C   UNL     1      35.261 -21.842 -18.834  0.00  0.00    -0.003 C 
ATOM     12  C   UNL     1      33.235 -20.809 -19.652  0.00  0.00    -0.003 C 
ATOM     13  C   UNL     1      33.154 -22.281 -17.737  0.00  0.00    +0.074 C 
ATOM     14  C   UNL     1      34.531 -22.479 -17.831  0.00  0.00    +0.016 C 
ATOM     15  C   UNL     1      32.506 -21.446 -18.649  0.00  0.00    +0.016 C 
BRANCH  10  17
ATOM     16  N   UNL     1      35.280 -18.896 -22.869  0.00  0.00    +0.384 N 
ATOM     17  C   UNL     1      35.408 -20.312 -20.835  0.00  0.00    +0.001 C 
ATOM     18  C   UNL     1      36.491 -19.390 -20.253  0.00  0.00    +0.000 C 
ATOM     19  C   UNL     1      34.499 -19.536 -21.807  0.00  0.00    -0.077 C 
ATOM     20  C   UNL     1      37.236 -18.670 -21.375  0.00  0.00    -0.023 C 
ATOM     21  C   UNL     1      36.267 -17.966 -22.322  0.00  0.00    -0.082 C 
ATOM     22  H   UNL     1      34.647 -18.385 -23.484  0.00  0.00    -0.085 HD
ATOM     23  H   UNL     1      35.777 -19.624 -23.384  0.00  0.00    -0.085 HD
ENDBRANCH  10  17
ENDBRANCH   1  13
BRANCH   6  26
ATOM     24  O   UNL     1      27.827 -24.353 -16.954  0.00  0.00    -0.270 OA
ATOM     25  N   UNL     1      27.451 -22.605 -15.519  0.00  0.00    -0.325 N 
ATOM     26  C   UNL     1      28.209 -23.685 -15.974  0.00  0.00    +0.244 C 
ATOM     27  H   UNL     1      26.616 -22.361 -15.980  0.00  0.00    +0.145 HD
ATOM     28  H   UNL     1      27.750 -22.088 -14.737  0.00  0.00    +0.145 HD
ENDBRANCH   6  26
TORSDOF 3
ENDMDL
MODEL 2
REMARK VINA RESULT:     -11.2      1.178      1.858
REMARK  Name = 24958200
REMARK  3 active torsions:
REMARK  status: ('A' for Active; 'I' for Inactive)
REMARK    1  A    between atoms: N_1  and  C_13
REMARK    2  A    between atoms: C_6  and  C_26
REMARK    3  A    between atoms: C_10  and  C_17
REMARK                            x       y       z     vdW  Elec       q    Type
REMARK                         _______ _______ _______ _____ _____    ______ ____
ROOT
ATOM      1  N   UNL     1      33.347 -22.468 -17.327  0.00  0.00    -0.189 N 
ATOM      2  N   UNL     1      32.037 -22.713 -17.132  0.00  0.00    -0.174 NA
ATOM      3  C   UNL     1      33.334 -23.629 -15.507  0.00  0.00    +0.036 C 
ATOM      4  C   UNL     1      34.175 -22.995 -16.379  0.00  0.00    +0.091 C 
ATOM      5  C   UNL     1      31.991 -23.439 -16.000  0.00  0.00    +0.105 C 
ATOM      6  C   UNL     1      30.892 -23.981 -15.309  0.00  0.00    +0.072 C 
ATOM      7  C   UNL     1      33.722 -24.319 -14.366  0.00  0.00    +0.003 C 
ATOM      8  C   UNL     1      31.254 -24.691 -14.142  0.00  0.00    +0.006 C 
ATOM      9  C   UNL     1      32.604 -24.851 -13.695  0.00  0.00    +0.000 C 
ENDROOT
BRANCH   1  13
ATOM     10  C   UNL     1      34.587 -20.247 -20.635  0.00  0.00    -0.024 C 
ATOM     11  C   UNL     1      33.240 -20.265 -20.271  0.00  0.00    -0.003 C 
ATOM     12  C   UNL     1      35.520 -20.972 -19.892  0.00  0.00    -0.003 C 
ATOM     13  C   UNL     1      33.758 -21.733 -18.423  0.00  0.00    +0.074 C 
ATOM     14  C   UNL     1      32.826 -21.007 -19.166  0.00  0.00    +0.016 C 
ATOM     15  C   UNL     1      35.105 -21.714 -18.786  0.00  0.00    +0.016 C 
BRANCH  10  17
ATOM     16  N   UNL     1      34.491 -18.755 -24.160  0.00  0.00    +0.384 N 
ATOM     17  C   UNL     1      35.038 -19.441 -21.839  0.00  0.00    +0.001 C 
ATOM     18  C   UNL     1      35.332 -17.978 -21.469  0.00  0.00    +0.000 C 
ATOM     19  C   UNL     1      34.026 -19.515 -22.998  0.00  0.00    -0.077 C 
ATOM     20  C   UNL     1      35.734 -17.187 -22.711  0.00  0.00    -0.023 C 
ATOM     21  C   UNL     1      34.707 -17.347 -23.829  0.00  0.00    -0.082 C 
ATOM     22  H   UNL     1      33.792 -18.819 -24.899  0.00  0.00    -0.085 HD
ATOM     23  H   UNL     1      35.380 -19.152 -24.467  0.00  0.00    -0.085 HD
ENDBRANCH  10  17
ENDBRANCH   1  13
BRANCH   6  26
ATOM     24  O   UNL     1      28.660 -24.702 -15.514  0.00  0.00    -0.270 OA
ATOM     25  N   UNL     1      29.175 -22.660 -16.422  0.00  0.00    -0.325 N 
ATOM     26  C   UNL     1      29.521 -23.830 -15.744  0.00  0.00    +0.244 C 
ATOM     27  H   UNL     1      28.249 -22.526 -16.731  0.00  0.00    +0.145 HD
ATOM     28  H   UNL     1      29.855 -21.969 -16.590  0.00  0.00    +0.145 HD
ENDBRANCH   6  26
TORSDOF 3
ENDMDL
MODEL 3
REMARK VINA RESULT:     -10.8      3.478      4.727
REMARK  Name = 24958200
REMARK  3 active torsions:
REMARK  status: ('A' for Active; 'I' for Inactive)
REMARK    1  A    between atoms: N_1  and  C_13
REMARK    2  A    between atoms: C_6  and  C_26
REMARK    3  A    between atoms: C_10  and  C_17
REMARK                            x       y       z     vdW  Elec       q    Type
REMARK                         _______ _______ _______ _____ _____    ______ ____
ROOT
ATOM      1  N   UNL     1      34.794 -22.191 -17.511  0.00  0.00    -0.189 N 
ATOM      2  N   UNL     1      35.865 -22.416 -16.725  0.00  0.00    -0.174 NA
ATOM      3  C   UNL     1      33.987 -23.412 -15.925  0.00  0.00    +0.036 C 
ATOM      4  C   UNL     1      33.636 -22.767 -17.077  0.00  0.00    +0.091 C 
ATOM      5  C   UNL     1      35.396 -23.178 -15.720  0.00  0.00    +0.105 C 
ATOM      6  C   UNL     1      36.057 -23.720 -14.603  0.00  0.00    +0.072 C 
ATOM      7  C   UNL     1      33.132 -24.150 -15.117  0.00  0.00    +0.003 C 
ATOM      8  C   UNL     1      35.213 -24.477 -13.760  0.00  0.00    +0.006 C 
ATOM      9  C   UNL     1      33.819 -24.680 -14.007  0.00  0.00    +0.000 C 
ENDROOT
BRANCH   1  13
ATOM     10  C   UNL     1      35.185 -19.882 -20.965  0.00  0.00    -0.024 C 
ATOM     11  C   UNL     1      36.318 -20.248 -20.238  0.00  0.00    -0.003 C 
ATOM     12  C   UNL     1      33.920 -20.289 -20.537  0.00  0.00    -0.003 C 
ATOM     13  C   UNL     1      34.924 -21.426 -18.655  0.00  0.00    +0.074 C 
ATOM     14  C   UNL     1      36.188 -21.019 -19.083  0.00  0.00    +0.016 C 
ATOM     15  C   UNL     1      33.790 -21.061 -19.382  0.00  0.00    +0.016 C 
BRANCH  10  17
ATOM     16  N   UNL     1      34.387 -18.543 -24.462  0.00  0.00    +0.384 N 
ATOM     17  C   UNL     1      35.326 -19.041 -22.220  0.00  0.00    +0.001 C 
ATOM     18  C   UNL     1      35.374 -17.539 -21.898  0.00  0.00    +0.000 C 
ATOM     19  C   UNL     1      34.217 -19.343 -23.246  0.00  0.00    -0.077 C 
ATOM     20  C   UNL     1      35.465 -16.723 -23.185  0.00  0.00    -0.023 C 
ATOM     21  C   UNL     1      34.364 -17.110 -24.168  0.00  0.00    -0.082 C 
ATOM     22  H   UNL     1      33.630 -18.761 -25.110  0.00  0.00    -0.085 HD
ATOM     23  H   UNL     1      35.293 -18.772 -24.872  0.00  0.00    -0.085 HD
ENDBRANCH  10  17
ENDBRANCH   1  13
BRANCH   6  26
ATOM     24  O   UNL     1      37.889 -23.283 -13.189  0.00  0.00    -0.270 OA
ATOM     25  N   UNL     1      38.356 -23.638 -15.405  0.00  0.00    -0.325 N 
ATOM     26  C   UNL     1      37.466 -23.526 -14.336  0.00  0.00    +0.244 C 
ATOM     27  H   UNL     1      39.322 -23.512 -15.257  0.00  0.00    +0.145 HD
ATOM     28  H   UNL     1      38.019 -23.843 -16.307  0.00  0.00    +0.145 HD
ENDBRANCH   6  26
TORSDOF 3
ENDMDL
MODEL 4
REMARK VINA RESULT:     -10.8      4.294      5.553
REMARK  Name = 24958200
REMARK  3 active torsions:
REMARK  status: ('A' for Active; 'I' for Inactive)
REMARK    1  A    between atoms: N_1  and  C_13
REMARK    2  A    between atoms: C_6  and  C_26
REMARK    3  A    between atoms: C_10  and  C_17
REMARK                            x       y       z     vdW  Elec       q    Type
REMARK                         _______ _______ _______ _____ _____    ______ ____
ROOT
ATOM      1  N   UNL     1      35.923 -23.108 -15.425  0.00  0.00    -0.189 N 
ATOM      2  N   UNL     1      36.871 -24.035 -15.187  0.00  0.00    -0.174 NA
ATOM      3  C   UNL     1      35.489 -23.743 -13.408  0.00  0.00    +0.036 C 
ATOM      4  C   UNL     1      35.062 -22.891 -14.388  0.00  0.00    +0.091 C 
ATOM      5  C   UNL     1      36.630 -24.455 -13.932  0.00  0.00    +0.105 C 
ATOM      6  C   UNL     1      37.297 -25.414 -13.148  0.00  0.00    +0.072 C 
ATOM      7  C   UNL     1      34.916 -23.883 -12.151  0.00  0.00    +0.003 C 
ATOM      8  C   UNL     1      36.738 -25.579 -11.862  0.00  0.00    +0.006 C 
ATOM      9  C   UNL     1      35.603 -24.848 -11.388  0.00  0.00    +0.000 C 
ENDROOT
BRANCH   1  13
ATOM     10  C   UNL     1      35.789 -21.150 -19.107  0.00  0.00    -0.024 C 
ATOM     11  C   UNL     1      34.736 -21.978 -18.719  0.00  0.00    -0.003 C 
ATOM     12  C   UNL     1      36.887 -20.976 -18.264  0.00  0.00    -0.003 C 
ATOM     13  C   UNL     1      35.879 -22.460 -16.645  0.00  0.00    +0.074 C 
ATOM     14  C   UNL     1      34.781 -22.633 -17.488  0.00  0.00    +0.016 C 
ATOM     15  C   UNL     1      36.932 -21.631 -17.033  0.00  0.00    +0.016 C 
BRANCH  10  17
ATOM     16  N   UNL     1      34.288 -19.307 -22.110  0.00  0.00    +0.384 N 
ATOM     17  C   UNL     1      35.742 -20.439 -20.447  0.00  0.00    +0.001 C 
ATOM     18  C   UNL     1      36.734 -19.266 -20.506  0.00  0.00    +0.000 C 
ATOM     19  C   UNL     1      34.319 -19.966 -20.801  0.00  0.00    -0.077 C 
ATOM     20  C   UNL     1      36.623 -18.544 -21.847  0.00  0.00    -0.023 C 
ATOM     21  C   UNL     1      35.180 -18.149 -22.148  0.00  0.00    -0.082 C 
ATOM     22  H   UNL     1      33.335 -18.999 -22.303  0.00  0.00    -0.085 HD
ATOM     23  H   UNL     1      34.602 -19.977 -22.813  0.00  0.00    -0.085 HD
ENDBRANCH  10  17
ENDBRANCH   1  13
BRANCH   6  26
ATOM     24  O   UNL     1      38.323 -27.271 -14.169  0.00  0.00    -0.270 OA
ATOM     25  N   UNL     1      39.710 -25.603 -13.427  0.00  0.00    -0.325 N 
ATOM     26  C   UNL     1      38.445 -26.163 -13.609  0.00  0.00    +0.244 C 
ATOM     27  H   UNL     1      40.512 -26.087 -13.730  0.00  0.00    +0.145 HD
ATOM     28  H   UNL     1      39.801 -24.722 -12.996  0.00  0.00    +0.145 HD
ENDBRANCH   6  26
TORSDOF 3
ENDMDL
MODEL 5
REMARK VINA RESULT:     -10.6      2.688      3.842
REMARK  Name = 24958200
REMARK  3 active torsions:
REMARK  status: ('A' for Active; 'I' for Inactive)
REMARK    1  A    between atoms: N_1  and  C_13
REMARK    2  A    between atoms: C_6  and  C_26
REMARK    3  A    between atoms: C_10  and  C_17
REMARK                            x       y       z     vdW  Elec       q    Type
REMARK                         _______ _______ _______ _____ _____    ______ ____
ROOT
ATOM      1  N   UNL     1      33.578 -22.506 -17.317  0.00  0.00    -0.189 N 
ATOM      2  N   UNL     1      34.508 -23.188 -16.621  0.00  0.00    -0.174 NA
ATOM      3  C   UNL     1      32.423 -23.450 -15.758  0.00  0.00    +0.036 C 
ATOM      4  C   UNL     1      32.305 -22.627 -16.843  0.00  0.00    +0.091 C 
ATOM      5  C   UNL     1      33.820 -23.792 -15.635  0.00  0.00    +0.105 C 
ATOM      6  C   UNL     1      34.262 -24.636 -14.600  0.00  0.00    +0.072 C 
ATOM      7  C   UNL     1      31.381 -23.867 -14.940  0.00  0.00    +0.003 C 
ATOM      8  C   UNL     1      33.224 -25.077 -13.750  0.00  0.00    +0.006 C 
ATOM      9  C   UNL     1      31.851 -24.709 -13.914  0.00  0.00    +0.000 C 
ENDROOT
BRANCH   1  13
ATOM     10  C   UNL     1      34.701 -20.246 -20.641  0.00  0.00    -0.024 C 
ATOM     11  C   UNL     1      33.358 -20.322 -20.270  0.00  0.00    -0.003 C 
ATOM     12  C   UNL     1      35.669 -20.926 -19.900  0.00  0.00    -0.003 C 
ATOM     13  C   UNL     1      33.950 -21.758 -18.419  0.00  0.00    +0.074 C 
ATOM     14  C   UNL     1      32.983 -21.078 -19.159  0.00  0.00    +0.016 C 
ATOM     15  C   UNL     1      35.294 -21.681 -18.789  0.00  0.00    +0.016 C 
BRANCH  10  17
ATOM     16  N   UNL     1      34.508 -18.755 -24.163  0.00  0.00    +0.384 N 
ATOM     17  C   UNL     1      35.109 -19.425 -21.850  0.00  0.00    +0.001 C 
ATOM     18  C   UNL     1      35.362 -17.954 -21.483  0.00  0.00    +0.000 C 
ATOM     19  C   UNL     1      34.083 -19.531 -22.994  0.00  0.00    -0.077 C 
ATOM     20  C   UNL     1      35.721 -17.150 -22.729  0.00  0.00    -0.023 C 
ATOM     21  C   UNL     1      34.684 -17.341 -23.833  0.00  0.00    -0.082 C 
ATOM     22  H   UNL     1      33.800 -18.841 -24.892  0.00  0.00    -0.085 HD
ATOM     23  H   UNL     1      35.404 -19.124 -24.483  0.00  0.00    -0.085 HD
ENDBRANCH  10  17
ENDBRANCH   1  13
BRANCH   6  26
ATOM     24  O   UNL     1      36.512 -24.197 -14.064  0.00  0.00    -0.270 OA
ATOM     25  N   UNL     1      35.988 -26.355 -14.633  0.00  0.00    -0.325 N 
ATOM     26  C   UNL     1      35.645 -25.020 -14.418  0.00  0.00    +0.244 C 
ATOM     27  H   UNL     1      36.921 -26.649 -14.518  0.00  0.00    +0.145 HD
ATOM     28  H   UNL     1      35.297 -27.004 -14.900  0.00  0.00    +0.145 HD
ENDBRANCH   6  26
TORSDOF 3
ENDMDL
MODEL 6
REMARK VINA RESULT:     -10.3      4.464      9.056
REMARK  Name = 24958200
REMARK  3 active torsions:
REMARK  status: ('A' for Active; 'I' for Inactive)
REMARK    1  A    between atoms: N_1  and  C_13
REMARK    2  A    between atoms: C_6  and  C_26
REMARK    3  A    between atoms: C_10  and  C_17
REMARK                            x       y       z     vdW  Elec       q    Type
REMARK                         _______ _______ _______ _____ _____    ______ ____
ROOT
ATOM      1  N   UNL     1      34.934 -19.404 -21.061  0.00  0.00    -0.189 N 
ATOM      2  N   UNL     1      34.943 -18.079 -20.821  0.00  0.00    -0.174 NA
ATOM      3  C   UNL     1      34.739 -18.551 -23.034  0.00  0.00    +0.036 C 
ATOM      4  C   UNL     1      34.814 -19.747 -22.376  0.00  0.00    +0.091 C 
ATOM      5  C   UNL     1      34.822 -17.512 -22.036  0.00  0.00    +0.105 C 
ATOM      6  C   UNL     1      34.773 -16.156 -22.408  0.00  0.00    +0.072 C 
ATOM      7  C   UNL     1      34.608 -18.389 -24.407  0.00  0.00    +0.003 C 
ATOM      8  C   UNL     1      34.640 -15.958 -23.800  0.00  0.00    +0.006 C 
ATOM      9  C   UNL     1      34.561 -17.024 -24.751  0.00  0.00    +0.000 C 
ENDROOT
BRANCH   1  13
ATOM     10  C   UNL     1      35.265 -22.103 -17.896  0.00  0.00    -0.024 C 
ATOM     11  C   UNL     1      34.025 -21.876 -18.492  0.00  0.00    -0.003 C 
ATOM     12  C   UNL     1      36.396 -21.429 -18.359  0.00  0.00    -0.003 C 
ATOM     13  C   UNL     1      35.043 -20.298 -20.012  0.00  0.00    +0.074 C 
ATOM     14  C   UNL     1      33.914 -20.973 -19.549  0.00  0.00    +0.016 C 
ATOM     15  C   UNL     1      36.285 -20.527 -19.417  0.00  0.00    +0.016 C 
BRANCH  10  17
ATOM     16  N   UNL     1      36.703 -23.734 -14.743  0.00  0.00    +0.384 N 
ATOM     17  C   UNL     1      35.386 -23.084 -16.744  0.00  0.00    +0.001 C 
ATOM     18  C   UNL     1      34.089 -23.164 -15.924  0.00  0.00    +0.000 C 
ATOM     19  C   UNL     1      36.586 -22.761 -15.833  0.00  0.00    -0.077 C 
ATOM     20  C   UNL     1      34.262 -24.120 -14.746  0.00  0.00    -0.023 C 
ATOM     21  C   UNL     1      35.495 -23.764 -13.919  0.00  0.00    -0.082 C 
ATOM     22  H   UNL     1      37.499 -23.481 -14.158  0.00  0.00    -0.085 HD
ATOM     23  H   UNL     1      36.835 -24.659 -15.154  0.00  0.00    -0.085 HD
ENDBRANCH  10  17
ENDBRANCH   1  13
BRANCH   6  26
ATOM     24  O   UNL     1      34.963 -13.880 -21.834  0.00  0.00    -0.270 OA
ATOM     25  N   UNL     1      34.777 -15.371 -20.102  0.00  0.00    -0.325 N 
ATOM     26  C   UNL     1      34.850 -15.065 -21.461  0.00  0.00    +0.244 C 
ATOM     27  H   UNL     1      34.826 -14.651 -19.431  0.00  0.00    +0.145 HD
ATOM     28  H   UNL     1      34.675 -16.306 -19.812  0.00  0.00    +0.145 HD
ENDBRANCH   6  26
TORSDOF 3
ENDMDL
MODEL 7
REMARK VINA RESULT:     -10.2      8.793     12.915
REMARK  Name = 24958200
REMARK  3 active torsions:
REMARK  status: ('A' for Active; 'I' for Inactive)
REMARK    1  A    between atoms: N_1  and  C_13
REMARK    2  A    between atoms: C_6  and  C_26
REMARK    3  A    between atoms: C_10  and  C_17
REMARK                            x       y       z     vdW  Elec       q    Type
REMARK                         _______ _______ _______ _____ _____    ______ ____
ROOT
ATOM      1  N   UNL     1      33.252 -12.640 -22.986  0.00  0.00    -0.189 N 
ATOM      2  N   UNL     1      33.764 -13.485 -22.070  0.00  0.00    -0.174 NA
ATOM      3  C   UNL     1      33.653 -14.422 -24.136  0.00  0.00    +0.036 C 
ATOM      4  C   UNL     1      33.162 -13.152 -24.248  0.00  0.00    +0.091 C 
ATOM      5  C   UNL     1      34.027 -14.612 -22.755  0.00  0.00    +0.105 C 
ATOM      6  C   UNL     1      34.571 -15.836 -22.323  0.00  0.00    +0.072 C 
ATOM      7  C   UNL     1      33.763 -15.342 -25.171  0.00  0.00    +0.003 C 
ATOM      8  C   UNL     1      34.695 -16.793 -23.353  0.00  0.00    +0.006 C 
ATOM      9  C   UNL     1      34.309 -16.556 -24.711  0.00  0.00    +0.000 C 
ENDROOT
BRANCH   1  13
ATOM     10  C   UNL     1      32.086  -8.795 -21.861  0.00  0.00    -0.024 C 
ATOM     11  C   UNL     1      31.623  -9.901 -21.148  0.00  0.00    -0.003 C 
ATOM     12  C   UNL     1      32.940  -8.975 -22.950  0.00  0.00    -0.003 C 
ATOM     13  C   UNL     1      32.865 -11.366 -22.614  0.00  0.00    +0.074 C 
ATOM     14  C   UNL     1      32.012 -11.187 -21.524  0.00  0.00    +0.016 C 
ATOM     15  C   UNL     1      33.329 -10.260 -23.326  0.00  0.00    +0.016 C 
BRANCH  10  17
ATOM     16  N   UNL     1      32.438  -5.159 -20.713  0.00  0.00    +0.384 N 
ATOM     17  C   UNL     1      31.661  -7.396 -21.452  0.00  0.00    +0.001 C 
ATOM     18  C   UNL     1      30.762  -6.741 -22.513  0.00  0.00    +0.000 C 
ATOM     19  C   UNL     1      32.868  -6.495 -21.132  0.00  0.00    -0.077 C 
ATOM     20  C   UNL     1      30.396  -5.319 -22.094  0.00  0.00    -0.023 C 
ATOM     21  C   UNL     1      31.639  -4.504 -21.748  0.00  0.00    -0.082 C 
ATOM     22  H   UNL     1      33.263  -4.591 -20.520  0.00  0.00    -0.085 HD
ATOM     23  H   UNL     1      31.862  -5.256 -19.876  0.00  0.00    -0.085 HD
ENDBRANCH  10  17
ENDBRANCH   1  13
BRANCH   6  26
ATOM     24  O   UNL     1      35.538 -17.154 -20.629  0.00  0.00    -0.270 OA
ATOM     25  N   UNL     1      34.709 -15.111 -20.001  0.00  0.00    -0.325 N 
ATOM     26  C   UNL     1      34.967 -16.095 -20.956  0.00  0.00    +0.244 C 
ATOM     27  H   UNL     1      34.967 -15.255 -19.062  0.00  0.00    +0.145 HD
ATOM     28  H   UNL     1      34.270 -14.270 -20.267  0.00  0.00    +0.145 HD
ENDBRANCH   6  26
TORSDOF 3
ENDMDL
MODEL 8
REMARK VINA RESULT:     -10.1      2.837      3.783
REMARK  Name = 24958200
REMARK  3 active torsions:
REMARK  status: ('A' for Active; 'I' for Inactive)
REMARK    1  A    between atoms: N_1  and  C_13
REMARK    2  A    between atoms: C_6  and  C_26
REMARK    3  A    between atoms: C_10  and  C_17
REMARK                            x       y       z     vdW  Elec       q    Type
REMARK                         _______ _______ _______ _____ _____    ______ ____
ROOT
ATOM      1  N   UNL     1      35.797 -22.815 -15.754  0.00  0.00    -0.189 N 
ATOM      2  N   UNL     1      34.635 -23.086 -15.130  0.00  0.00    -0.174 NA
ATOM      3  C   UNL     1      36.437 -23.768 -13.927  0.00  0.00    +0.036 C 
ATOM      4  C   UNL     1      36.915 -23.204 -15.076  0.00  0.00    +0.091 C 
ATOM      5  C   UNL     1      34.997 -23.683 -13.981  0.00  0.00    +0.105 C 
ATOM      6  C   UNL     1      34.210 -24.187 -12.928  0.00  0.00    +0.072 C 
ATOM      7  C   UNL     1      37.209 -24.314 -12.910  0.00  0.00    +0.003 C 
ATOM      8  C   UNL     1      34.968 -24.751 -11.878  0.00  0.00    +0.006 C 
ATOM      9  C   UNL     1      36.397 -24.810 -11.871  0.00  0.00    +0.000 C 
ENDROOT
BRANCH   1  13
ATOM     10  C   UNL     1      35.780 -20.930 -19.477  0.00  0.00    -0.024 C 
ATOM     11  C   UNL     1      36.870 -20.774 -18.621  0.00  0.00    -0.003 C 
ATOM     12  C   UNL     1      34.695 -21.718 -19.089  0.00  0.00    -0.003 C 
ATOM     13  C   UNL     1      35.791 -22.190 -16.988  0.00  0.00    +0.074 C 
ATOM     14  C   UNL     1      36.876 -21.403 -17.377  0.00  0.00    +0.016 C 
ATOM     15  C   UNL     1      34.701 -22.347 -17.844  0.00  0.00    +0.016 C 
BRANCH  10  17
ATOM     16  N   UNL     1      34.355 -19.269 -22.619  0.00  0.00    +0.384 N 
ATOM     17  C   UNL     1      35.772 -20.244 -20.831  0.00  0.00    +0.001 C 
ATOM     18  C   UNL     1      36.659 -18.989 -20.840  0.00  0.00    +0.000 C 
ATOM     19  C   UNL     1      34.345 -19.904 -21.299  0.00  0.00    -0.077 C 
ATOM     20  C   UNL     1      36.588 -18.297 -22.199  0.00  0.00    -0.023 C 
ATOM     21  C   UNL     1      35.143 -18.036 -22.615  0.00  0.00    -0.082 C 
ATOM     22  H   UNL     1      33.396 -19.049 -22.889  0.00  0.00    -0.085 HD
ATOM     23  H   UNL     1      34.779 -19.917 -23.284  0.00  0.00    -0.085 HD
ENDBRANCH  10  17
ENDBRANCH   1  13
BRANCH   6  26
ATOM     24  O   UNL     1      32.074 -25.154 -12.715  0.00  0.00    -0.270 OA
ATOM     25  N   UNL     1      32.152 -22.899 -13.120  0.00  0.00    -0.325 N 
ATOM     26  C   UNL     1      32.765 -24.135 -12.916  0.00  0.00    +0.244 C 
ATOM     27  H   UNL     1      31.169 -22.829 -13.118  0.00  0.00    +0.145 HD
ATOM     28  H   UNL     1      32.701 -22.095 -13.266  0.00  0.00    +0.145 HD
ENDBRANCH   6  26
TORSDOF 3
ENDMDL
MODEL 9
REMARK VINA RESULT:     -10.1      9.198     13.070
REMARK  Name = 24958200
REMARK  3 active torsions:
REMARK  status: ('A' for Active; 'I' for Inactive)
REMARK    1  A    between atoms: N_1  and  C_13
REMARK    2  A    between atoms: C_6  and  C_26
REMARK    3  A    between atoms: C_10  and  C_17
REMARK                            x       y       z     vdW  Elec       q    Type
REMARK                         _______ _______ _______ _____ _____    ______ ____
ROOT
ATOM      1  N   UNL     1      33.144 -12.346 -22.196  0.00  0.00    -0.189 N 
ATOM      2  N   UNL     1      33.331 -13.208 -23.213  0.00  0.00    -0.174 NA
ATOM      3  C   UNL     1      34.025 -14.060 -21.225  0.00  0.00    +0.036 C 
ATOM      4  C   UNL     1      33.544 -12.806 -20.975  0.00  0.00    +0.091 C 
ATOM      5  C   UNL     1      33.882 -14.294 -22.641  0.00  0.00    +0.105 C 
ATOM      6  C   UNL     1      34.294 -15.513 -23.211  0.00  0.00    +0.072 C 
ATOM      7  C   UNL     1      34.548 -14.930 -20.277  0.00  0.00    +0.003 C 
ATOM      8  C   UNL     1      34.833 -16.421 -22.271  0.00  0.00    +0.006 C 
ATOM      9  C   UNL     1      34.953 -16.140 -20.873  0.00  0.00    +0.000 C 
ENDROOT
BRANCH   1  13
ATOM     10  C   UNL     1      31.462  -8.596 -22.918  0.00  0.00    -0.024 C 
ATOM     11  C   UNL     1      31.257  -9.228 -21.692  0.00  0.00    -0.003 C 
ATOM     12  C   UNL     1      32.231  -9.217 -23.903  0.00  0.00    -0.003 C 
ATOM     13  C   UNL     1      32.586 -11.103 -22.435  0.00  0.00    +0.074 C 
ATOM     14  C   UNL     1      31.819 -10.481 -21.450  0.00  0.00    +0.016 C 
ATOM     15  C   UNL     1      32.792 -10.471 -23.662  0.00  0.00    +0.016 C 
BRANCH  10  17
ATOM     16  N   UNL     1      30.298  -5.017 -22.209  0.00  0.00    +0.384 N 
ATOM     17  C   UNL     1      30.849  -7.232 -23.182  0.00  0.00    +0.001 C 
ATOM     18  C   UNL     1      31.488  -6.546 -24.400  0.00  0.00    +0.000 C 
ATOM     19  C   UNL     1      30.919  -6.318 -21.945  0.00  0.00    -0.077 C 
ATOM     20  C   UNL     1      30.884  -5.159 -24.606  0.00  0.00    -0.023 C 
ATOM     21  C   UNL     1      30.947  -4.330 -23.325  0.00  0.00    -0.082 C 
ATOM     22  H   UNL     1      30.373  -4.438 -21.373  0.00  0.00    -0.085 HD
ATOM     23  H   UNL     1      29.319  -5.174 -22.455  0.00  0.00    -0.085 HD
ENDBRANCH  10  17
ENDBRANCH   1  13
BRANCH   6  26
ATOM     24  O   UNL     1      34.950 -16.619 -25.183  0.00  0.00    -0.270 OA
ATOM     25  N   UNL     1      33.163 -15.192 -25.344  0.00  0.00    -0.325 N 
ATOM     26  C   UNL     1      34.180 -15.816 -24.621  0.00  0.00    +0.244 C 
ATOM     27  H   UNL     1      33.058 -15.376 -26.306  0.00  0.00    +0.145 HD
ATOM     28  H   UNL     1      32.550 -14.568 -24.893  0.00  0.00    +0.145 HD
ENDBRANCH   6  26
TORSDOF 3
ENDMDL
