MODEL 1
REMARK VINA RESULT:     -11.0      0.000      0.000
REMARK  Name = 71451950
REMARK  5 active torsions:
REMARK  status: ('A' for Active; 'I' for Inactive)
REMARK    1  A    between atoms: N_4  and  C_18
REMARK    2  A    between atoms: C_18  and  C_20
REMARK    3  A    between atoms: N_19  and  C_26
REMARK    4  A    between atoms: C_26  and  C_28
REMARK    5  A    between atoms: C_28  and  O_33
REMARK                            x       y       z     vdW  Elec       q    Type
REMARK                         _______ _______ _______ _____ _____    ______ ____
ROOT
ATOM      1  F   UNL     1      33.129  -5.853 -22.798  0.00  0.00    -0.204 F 
ATOM      2  O   UNL     1      32.999 -10.574 -24.118  0.00  0.00    -0.252 OA
ATOM      3  O   UNL     1      31.645 -12.448 -20.504  0.00  0.00    -0.274 OA
ATOM      4  N   UNL     1      32.445 -12.574 -23.142  0.00  0.00    -0.288 N 
ATOM      5  N   UNL     1      32.291 -10.597 -21.871  0.00  0.00    -0.192 N 
ATOM      6  C   UNL     1      31.617 -10.180 -19.596  0.00  0.00    +0.090 C 
ATOM      7  C   UNL     1      31.988  -8.915 -20.316  0.00  0.00    -0.000 C 
ATOM      8  C   UNL     1      32.613 -11.189 -23.123  0.00  0.00    +0.314 C 
ATOM      9  C   UNL     1      31.839 -11.251 -20.680  0.00  0.00    +0.239 C 
ATOM     10  C   UNL     1      32.373  -9.197 -21.629  0.00  0.00    +0.061 C 
ATOM     11  C   UNL     1      32.544 -10.454 -18.411  0.00  0.00    +0.014 C 
ATOM     12  C   UNL     1      30.149 -10.182 -19.168  0.00  0.00    +0.014 C 
ATOM     13  C   UNL     1      31.981  -7.615 -19.826  0.00  0.00    -0.000 C 
ATOM     14  C   UNL     1      32.762  -8.171 -22.478  0.00  0.00    +0.045 C 
ATOM     15  C   UNL     1      32.369  -6.581 -20.676  0.00  0.00    +0.029 C 
ATOM     16  C   UNL     1      32.757  -6.858 -21.993  0.00  0.00    +0.141 C 
ATOM     17  H   UNL     1      32.134 -13.025 -22.325  0.00  0.00    +0.151 HD
ENDROOT
BRANCH   4  18
ATOM     18  C   UNL     1      32.712 -13.367 -24.319  0.00  0.00    +0.091 C 
BRANCH  18  20
ATOM     19  N   UNL     1      34.841 -16.897 -23.029  0.00  0.00    +0.388 N 
ATOM     20  C   UNL     1      33.861 -14.344 -24.087  0.00  0.00    +0.015 C 
ATOM     21  C   UNL     1      33.595 -15.681 -24.788  0.00  0.00    -0.021 C 
ATOM     22  C   UNL     1      34.090 -14.581 -22.590  0.00  0.00    -0.021 C 
ATOM     23  C   UNL     1      34.694 -16.699 -24.477  0.00  0.00    -0.077 C 
ATOM     24  C   UNL     1      35.172 -15.636 -22.354  0.00  0.00    -0.077 C 
ATOM     25  H   UNL     1      33.946 -17.224 -22.664  0.00  0.00    -0.080 HD
BRANCH  19  26
ATOM     26  C   UNL     1      35.857 -17.910 -22.750  0.00  0.00    -0.050 C 
BRANCH  26  28
ATOM     27  O   UNL     1      35.522 -21.071 -19.905  0.00  0.00    -0.354 OA
ATOM     28  C   UNL     1      35.606 -18.602 -21.411  0.00  0.00    +0.074 C 
ATOM     29  C   UNL     1      36.870 -19.321 -20.921  0.00  0.00    +0.057 C 
ATOM     30  C   UNL     1      34.444 -19.601 -21.512  0.00  0.00    +0.057 C 
ATOM     31  C   UNL     1      36.586 -20.149 -19.670  0.00  0.00    +0.144 C 
ATOM     32  C   UNL     1      34.299 -20.410 -20.226  0.00  0.00    +0.144 C 
BRANCH  28  33
ATOM     33  O   UNL     1      35.273 -17.595 -20.452  0.00  0.00    -0.389 OA
ATOM     34  H   UNL     1      35.253 -16.728 -20.888  0.00  0.00    +0.210 HD
ENDBRANCH  28  33
ENDBRANCH  26  28
ENDBRANCH  19  26
ENDBRANCH  18  20
ENDBRANCH   4  18
TORSDOF 5
ENDMDL
MODEL 2
REMARK VINA RESULT:     -10.8      1.303      1.870
REMARK  Name = 71451950
REMARK  5 active torsions:
REMARK  status: ('A' for Active; 'I' for Inactive)
REMARK    1  A    between atoms: N_4  and  C_18
REMARK    2  A    between atoms: C_18  and  C_20
REMARK    3  A    between atoms: N_19  and  C_26
REMARK    4  A    between atoms: C_26  and  C_28
REMARK    5  A    between atoms: C_28  and  O_33
REMARK                            x       y       z     vdW  Elec       q    Type
REMARK                         _______ _______ _______ _____ _____    ______ ____
ROOT
ATOM      1  F   UNL     1      33.551  -6.944 -23.965  0.00  0.00    -0.204 F 
ATOM      2  O   UNL     1      33.927 -11.818 -24.345  0.00  0.00    -0.252 OA
ATOM      3  O   UNL     1      31.873 -13.124 -20.812  0.00  0.00    -0.274 OA
ATOM      4  N   UNL     1      33.254 -13.651 -23.142  0.00  0.00    -0.288 N 
ATOM      5  N   UNL     1      32.731 -11.499 -22.340  0.00  0.00    -0.192 N 
ATOM      6  C   UNL     1      31.543 -10.741 -20.386  0.00  0.00    +0.090 C 
ATOM      7  C   UNL     1      32.012  -9.598 -21.240  0.00  0.00    -0.000 C 
ATOM      8  C   UNL     1      33.353 -12.276 -23.355  0.00  0.00    +0.314 C 
ATOM      9  C   UNL     1      32.050 -11.966 -21.169  0.00  0.00    +0.239 C 
ATOM     10  C   UNL     1      32.695 -10.077 -22.360  0.00  0.00    +0.061 C 
ATOM     11  C   UNL     1      32.189 -10.719 -19.000  0.00  0.00    +0.014 C 
ATOM     12  C   UNL     1      30.018 -10.792 -20.289  0.00  0.00    +0.014 C 
ATOM     13  C   UNL     1      31.839  -8.238 -21.024  0.00  0.00    -0.000 C 
ATOM     14  C   UNL     1      33.222  -9.190 -23.288  0.00  0.00    +0.045 C 
ATOM     15  C   UNL     1      32.364  -7.342 -21.955  0.00  0.00    +0.029 C 
ATOM     16  C   UNL     1      33.051  -7.817 -23.079  0.00  0.00    +0.141 C 
ATOM     17  H   UNL     1      32.786 -13.974 -22.339  0.00  0.00    +0.151 HD
ENDROOT
BRANCH   4  18
ATOM     18  C   UNL     1      33.814 -14.616 -24.059  0.00  0.00    +0.091 C 
BRANCH  18  20
ATOM     19  N   UNL     1      35.230 -17.907 -21.647  0.00  0.00    +0.388 N 
ATOM     20  C   UNL     1      34.777 -15.567 -23.352  0.00  0.00    +0.015 C 
ATOM     21  C   UNL     1      34.605 -17.001 -23.863  0.00  0.00    -0.021 C 
ATOM     22  C   UNL     1      34.573 -15.529 -21.834  0.00  0.00    -0.021 C 
ATOM     23  C   UNL     1      35.496 -17.976 -23.089  0.00  0.00    -0.077 C 
ATOM     24  C   UNL     1      35.465 -16.553 -21.129  0.00  0.00    -0.077 C 
ATOM     25  H   UNL     1      34.247 -18.135 -21.496  0.00  0.00    -0.080 HD
BRANCH  19  26
ATOM     26  C   UNL     1      36.050 -18.880 -20.927  0.00  0.00    -0.050 C 
BRANCH  26  28
ATOM     27  O   UNL     1      33.714 -21.633 -18.655  0.00  0.00    -0.354 OA
ATOM     28  C   UNL     1      35.259 -20.146 -20.596  0.00  0.00    +0.074 C 
ATOM     29  C   UNL     1      33.802 -19.807 -20.257  0.00  0.00    +0.057 C 
ATOM     30  C   UNL     1      35.902 -20.913 -19.432  0.00  0.00    +0.057 C 
ATOM     31  C   UNL     1      33.046 -21.040 -19.768  0.00  0.00    +0.144 C 
ATOM     32  C   UNL     1      35.026 -22.083 -18.993  0.00  0.00    +0.144 C 
BRANCH  28  33
ATOM     33  O   UNL     1      35.258 -20.978 -21.759  0.00  0.00    -0.389 OA
ATOM     34  H   UNL     1      36.066 -21.515 -21.773  0.00  0.00    +0.210 HD
ENDBRANCH  28  33
ENDBRANCH  26  28
ENDBRANCH  19  26
ENDBRANCH  18  20
ENDBRANCH   4  18
TORSDOF 5
ENDMDL
MODEL 3
REMARK VINA RESULT:     -10.3      4.065      6.775
REMARK  Name = 71451950
REMARK  5 active torsions:
REMARK  status: ('A' for Active; 'I' for Inactive)
REMARK    1  A    between atoms: N_4  and  C_18
REMARK    2  A    between atoms: C_18  and  C_20
REMARK    3  A    between atoms: N_19  and  C_26
REMARK    4  A    between atoms: C_26  and  C_28
REMARK    5  A    between atoms: C_28  and  O_33
REMARK                            x       y       z     vdW  Elec       q    Type
REMARK                         _______ _______ _______ _____ _____    ______ ____
ROOT
ATOM      1  F   UNL     1      33.369 -14.851 -26.462  0.00  0.00    -0.204 F 
ATOM      2  O   UNL     1      35.558 -17.798 -23.211  0.00  0.00    -0.252 OA
ATOM      3  O   UNL     1      34.944 -15.655 -19.546  0.00  0.00    -0.274 OA
ATOM      4  N   UNL     1      35.922 -17.821 -20.946  0.00  0.00    -0.288 N 
ATOM      5  N   UNL     1      34.762 -16.007 -21.903  0.00  0.00    -0.192 N 
ATOM      6  C   UNL     1      33.790 -14.021 -20.949  0.00  0.00    +0.090 C 
ATOM      7  C   UNL     1      33.587 -14.091 -22.435  0.00  0.00    -0.000 C 
ATOM      8  C   UNL     1      35.423 -17.248 -22.117  0.00  0.00    +0.314 C 
ATOM      9  C   UNL     1      34.572 -15.316 -20.662  0.00  0.00    +0.239 C 
ATOM     10  C   UNL     1      34.164 -15.254 -22.950  0.00  0.00    +0.061 C 
ATOM     11  C   UNL     1      34.639 -12.814 -20.546  0.00  0.00    +0.014 C 
ATOM     12  C   UNL     1      32.463 -14.047 -20.190  0.00  0.00    +0.014 C 
ATOM     13  C   UNL     1      32.936 -13.180 -23.256  0.00  0.00    -0.000 C 
ATOM     14  C   UNL     1      34.098 -15.522 -24.310  0.00  0.00    +0.045 C 
ATOM     15  C   UNL     1      32.866 -13.445 -24.623  0.00  0.00    +0.029 C 
ATOM     16  C   UNL     1      33.444 -14.610 -25.146  0.00  0.00    +0.141 C 
ATOM     17  H   UNL     1      35.791 -17.349 -20.094  0.00  0.00    +0.151 HD
ENDROOT
BRANCH   4  18
ATOM     18  C   UNL     1      36.621 -19.085 -20.944  0.00  0.00    +0.091 C 
BRANCH  18  20
ATOM     19  N   UNL     1      33.997 -21.661 -18.678  0.00  0.00    +0.388 N 
ATOM     20  C   UNL     1      35.683 -20.243 -20.611  0.00  0.00    +0.015 C 
ATOM     21  C   UNL     1      34.302 -19.728 -20.192  0.00  0.00    -0.021 C 
ATOM     22  C   UNL     1      36.267 -21.123 -19.501  0.00  0.00    -0.021 C 
ATOM     23  C   UNL     1      33.389 -20.878 -19.761  0.00  0.00    -0.077 C 
ATOM     24  C   UNL     1      35.288 -22.225 -19.094  0.00  0.00    -0.077 C 
ATOM     25  H   UNL     1      34.167 -21.034 -17.892  0.00  0.00    -0.080 HD
BRANCH  19  26
ATOM     26  C   UNL     1      33.091 -22.723 -18.242  0.00  0.00    -0.050 C 
BRANCH  26  28
ATOM     27  O   UNL     1      34.056 -22.938 -14.092  0.00  0.00    -0.354 OA
ATOM     28  C   UNL     1      33.537 -23.328 -16.911  0.00  0.00    +0.074 C 
ATOM     29  C   UNL     1      32.419 -23.234 -15.865  0.00  0.00    +0.057 C 
ATOM     30  C   UNL     1      34.804 -22.639 -16.385  0.00  0.00    +0.057 C 
ATOM     31  C   UNL     1      32.907 -23.685 -14.490  0.00  0.00    +0.144 C 
ATOM     32  C   UNL     1      35.155 -23.127 -14.982  0.00  0.00    +0.144 C 
BRANCH  28  33
ATOM     33  O   UNL     1      33.817 -24.713 -17.132  0.00  0.00    -0.389 OA
ATOM     34  H   UNL     1      33.634 -25.214 -16.321  0.00  0.00    +0.210 HD
ENDBRANCH  28  33
ENDBRANCH  26  28
ENDBRANCH  19  26
ENDBRANCH  18  20
ENDBRANCH   4  18
TORSDOF 5
ENDMDL
MODEL 4
REMARK VINA RESULT:     -10.3      2.007      3.255
REMARK  Name = 71451950
REMARK  5 active torsions:
REMARK  status: ('A' for Active; 'I' for Inactive)
REMARK    1  A    between atoms: N_4  and  C_18
REMARK    2  A    between atoms: C_18  and  C_20
REMARK    3  A    between atoms: N_19  and  C_26
REMARK    4  A    between atoms: C_26  and  C_28
REMARK    5  A    between atoms: C_28  and  O_33
REMARK                            x       y       z     vdW  Elec       q    Type
REMARK                         _______ _______ _______ _____ _____    ______ ____
ROOT
ATOM      1  F   UNL     1      29.650  -5.873 -21.328  0.00  0.00    -0.204 F 
ATOM      2  O   UNL     1      31.276 -10.458 -21.946  0.00  0.00    -0.252 OA
ATOM      3  O   UNL     1      35.086  -9.784 -23.799  0.00  0.00    -0.274 OA
ATOM      4  N   UNL     1      33.150 -11.473 -22.794  0.00  0.00    -0.288 N 
ATOM      5  N   UNL     1      33.006  -9.122 -22.826  0.00  0.00    -0.192 N 
ATOM      6  C   UNL     1      34.517  -7.416 -23.606  0.00  0.00    +0.090 C 
ATOM      7  C   UNL     1      33.262  -6.834 -23.022  0.00  0.00    -0.000 C 
ATOM      8  C   UNL     1      32.382 -10.351 -22.479  0.00  0.00    +0.314 C 
ATOM      9  C   UNL     1      34.284  -8.929 -23.444  0.00  0.00    +0.239 C 
ATOM     10  C   UNL     1      32.413  -7.852 -22.582  0.00  0.00    +0.061 C 
ATOM     11  C   UNL     1      34.665  -7.078 -25.090  0.00  0.00    +0.014 C 
ATOM     12  C   UNL     1      35.759  -7.004 -22.814  0.00  0.00    +0.014 C 
ATOM     13  C   UNL     1      32.913  -5.496 -22.898  0.00  0.00    -0.000 C 
ATOM     14  C   UNL     1      31.188  -7.540 -22.009  0.00  0.00    +0.045 C 
ATOM     15  C   UNL     1      31.684  -5.177 -22.321  0.00  0.00    +0.029 C 
ATOM     16  C   UNL     1      30.828  -6.194 -21.880  0.00  0.00    +0.141 C 
ATOM     17  H   UNL     1      34.028 -11.343 -23.218  0.00  0.00    +0.151 HD
ENDROOT
BRANCH   4  18
ATOM     18  C   UNL     1      32.700 -12.817 -22.518  0.00  0.00    +0.091 C 
BRANCH  18  20
ATOM     19  N   UNL     1      34.887 -16.442 -21.663  0.00  0.00    +0.388 N 
ATOM     20  C   UNL     1      33.873 -13.751 -22.230  0.00  0.00    +0.015 C 
ATOM     21  C   UNL     1      33.994 -14.829 -23.313  0.00  0.00    -0.021 C 
ATOM     22  C   UNL     1      33.727 -14.412 -20.855  0.00  0.00    -0.021 C 
ATOM     23  C   UNL     1      35.104 -15.829 -22.979  0.00  0.00    -0.077 C 
ATOM     24  C   UNL     1      34.846 -15.425 -20.604  0.00  0.00    -0.077 C 
ATOM     25  H   UNL     1      33.983 -16.915 -21.680  0.00  0.00    -0.080 HD
BRANCH  19  26
ATOM     26  C   UNL     1      35.926 -17.432 -21.381  0.00  0.00    -0.050 C 
BRANCH  26  28
ATOM     27  O   UNL     1      34.229 -20.871 -19.513  0.00  0.00    -0.354 OA
ATOM     28  C   UNL     1      35.340 -18.837 -21.244  0.00  0.00    +0.074 C 
ATOM     29  C   UNL     1      33.902 -18.781 -20.711  0.00  0.00    +0.057 C 
ATOM     30  C   UNL     1      36.205 -19.711 -20.325  0.00  0.00    +0.057 C 
ATOM     31  C   UNL     1      33.366 -20.179 -20.416  0.00  0.00    +0.144 C 
ATOM     32  C   UNL     1      35.536 -21.057 -20.055  0.00  0.00    +0.144 C 
BRANCH  28  33
ATOM     33  O   UNL     1      35.303 -19.426 -22.547  0.00  0.00    -0.389 OA
ATOM     34  H   UNL     1      34.384 -19.622 -22.788  0.00  0.00    +0.210 HD
ENDBRANCH  28  33
ENDBRANCH  26  28
ENDBRANCH  19  26
ENDBRANCH  18  20
ENDBRANCH   4  18
TORSDOF 5
ENDMDL
MODEL 5
REMARK VINA RESULT:      -9.9      1.655      2.449
REMARK  Name = 71451950
REMARK  5 active torsions:
REMARK  status: ('A' for Active; 'I' for Inactive)
REMARK    1  A    between atoms: N_4  and  C_18
REMARK    2  A    between atoms: C_18  and  C_20
REMARK    3  A    between atoms: N_19  and  C_26
REMARK    4  A    between atoms: C_26  and  C_28
REMARK    5  A    between atoms: C_28  and  O_33
REMARK                            x       y       z     vdW  Elec       q    Type
REMARK                         _______ _______ _______ _____ _____    ______ ____
ROOT
ATOM      1  F   UNL     1      33.648  -6.503 -26.240  0.00  0.00    -0.204 F 
ATOM      2  O   UNL     1      32.703 -10.804 -24.083  0.00  0.00    -0.252 OA
ATOM      3  O   UNL     1      31.959  -9.598 -20.033  0.00  0.00    -0.274 OA
ATOM      4  N   UNL     1      32.151 -11.542 -21.982  0.00  0.00    -0.288 N 
ATOM      5  N   UNL     1      32.499  -9.239 -22.333  0.00  0.00    -0.192 N 
ATOM      6  C   UNL     1      32.385  -7.338 -20.858  0.00  0.00    +0.090 C 
ATOM      7  C   UNL     1      32.732  -6.941 -22.264  0.00  0.00    -0.000 C 
ATOM      8  C   UNL     1      32.474 -10.542 -22.901  0.00  0.00    +0.314 C 
ATOM      9  C   UNL     1      32.244  -8.867 -20.974  0.00  0.00    +0.239 C 
ATOM     10  C   UNL     1      32.789  -8.068 -23.087  0.00  0.00    +0.061 C 
ATOM     11  C   UNL     1      33.509  -7.002 -19.877  0.00  0.00    +0.014 C 
ATOM     12  C   UNL     1      31.054  -6.735 -20.408  0.00  0.00    +0.014 C 
ATOM     13  C   UNL     1      32.978  -5.668 -22.761  0.00  0.00    -0.000 C 
ATOM     14  C   UNL     1      33.099  -7.933 -24.433  0.00  0.00    +0.045 C 
ATOM     15  C   UNL     1      33.288  -5.527 -24.112  0.00  0.00    +0.029 C 
ATOM     16  C   UNL     1      33.348  -6.654 -24.943  0.00  0.00    +0.141 C 
ATOM     17  H   UNL     1      31.974 -11.288 -21.048  0.00  0.00    +0.151 HD
ENDROOT
BRANCH   4  18
ATOM     18  C   UNL     1      32.065 -12.934 -22.356  0.00  0.00    +0.091 C 
BRANCH  18  20
ATOM     19  N   UNL     1      34.842 -16.171 -21.676  0.00  0.00    +0.388 N 
ATOM     20  C   UNL     1      33.378 -13.666 -22.092  0.00  0.00    +0.015 C 
ATOM     21  C   UNL     1      33.716 -14.622 -23.241  0.00  0.00    -0.021 C 
ATOM     22  C   UNL     1      33.320 -14.443 -20.772  0.00  0.00    -0.021 C 
ATOM     23  C   UNL     1      34.978 -15.432 -22.938  0.00  0.00    -0.077 C 
ATOM     24  C   UNL     1      34.595 -15.259 -20.551  0.00  0.00    -0.077 C 
ATOM     25  H   UNL     1      34.038 -16.793 -21.759  0.00  0.00    -0.080 HD
BRANCH  19  26
ATOM     26  C   UNL     1      36.034 -16.981 -21.426  0.00  0.00    -0.050 C 
BRANCH  26  28
ATOM     27  O   UNL     1      34.899 -20.691 -19.652  0.00  0.00    -0.354 OA
ATOM     28  C   UNL     1      35.690 -18.467 -21.324  0.00  0.00    +0.074 C 
ATOM     29  C   UNL     1      34.252 -18.664 -20.828  0.00  0.00    +0.057 C 
ATOM     30  C   UNL     1      36.669 -19.200 -20.394  0.00  0.00    +0.057 C 
ATOM     31  C   UNL     1      33.954 -20.138 -20.567  0.00  0.00    +0.144 C 
ATOM     32  C   UNL     1      36.231 -20.643 -20.161  0.00  0.00    +0.144 C 
BRANCH  28  33
ATOM     33  O   UNL     1      35.785 -19.029 -22.636  0.00  0.00    -0.389 OA
ATOM     34  H   UNL     1      36.373 -18.483 -23.181  0.00  0.00    +0.210 HD
ENDBRANCH  28  33
ENDBRANCH  26  28
ENDBRANCH  19  26
ENDBRANCH  18  20
ENDBRANCH   4  18
TORSDOF 5
ENDMDL
MODEL 6
REMARK VINA RESULT:      -9.9      7.087     12.513
REMARK  Name = 71451950
REMARK  5 active torsions:
REMARK  status: ('A' for Active; 'I' for Inactive)
REMARK    1  A    between atoms: N_4  and  C_18
REMARK    2  A    between atoms: C_18  and  C_20
REMARK    3  A    between atoms: N_19  and  C_26
REMARK    4  A    between atoms: C_26  and  C_28
REMARK    5  A    between atoms: C_28  and  O_33
REMARK                            x       y       z     vdW  Elec       q    Type
REMARK                         _______ _______ _______ _____ _____    ______ ____
ROOT
ATOM      1  F   UNL     1      37.850 -23.586 -12.209  0.00  0.00    -0.204 F 
ATOM      2  O   UNL     1      35.614 -23.271 -16.562  0.00  0.00    -0.252 OA
ATOM      3  O   UNL     1      31.508 -23.872 -15.473  0.00  0.00    -0.274 OA
ATOM      4  N   UNL     1      33.466 -23.393 -17.357  0.00  0.00    -0.288 N 
ATOM      5  N   UNL     1      33.851 -23.667 -15.049  0.00  0.00    -0.192 N 
ATOM      6  C   UNL     1      32.367 -24.069 -13.195  0.00  0.00    +0.090 C 
ATOM      7  C   UNL     1      33.800 -23.963 -12.758  0.00  0.00    -0.000 C 
ATOM      8  C   UNL     1      34.414 -23.433 -16.333  0.00  0.00    +0.314 C 
ATOM      9  C   UNL     1      32.471 -23.863 -14.717  0.00  0.00    +0.239 C 
ATOM     10  C   UNL     1      34.628 -23.731 -13.859  0.00  0.00    +0.061 C 
ATOM     11  C   UNL     1      31.784 -25.453 -12.906  0.00  0.00    +0.014 C 
ATOM     12  C   UNL     1      31.504 -22.963 -12.587  0.00  0.00    +0.014 C 
ATOM     13  C   UNL     1      34.317 -24.070 -11.474  0.00  0.00    -0.000 C 
ATOM     14  C   UNL     1      35.999 -23.603 -13.687  0.00  0.00    +0.045 C 
ATOM     15  C   UNL     1      35.693 -23.940 -11.295  0.00  0.00    +0.029 C 
ATOM     16  C   UNL     1      36.528 -23.708 -12.396  0.00  0.00    +0.141 C 
ATOM     17  H   UNL     1      32.518 -23.527 -17.131  0.00  0.00    +0.151 HD
ENDROOT
BRANCH   4  18
ATOM     18  C   UNL     1      33.829 -23.161 -18.735  0.00  0.00    +0.091 C 
BRANCH  18  20
ATOM     19  N   UNL     1      34.989 -19.558 -20.814  0.00  0.00    +0.388 N 
ATOM     20  C   UNL     1      34.217 -21.704 -18.974  0.00  0.00    +0.015 C 
ATOM     21  C   UNL     1      33.210 -21.011 -19.897  0.00  0.00    -0.021 C 
ATOM     22  C   UNL     1      35.625 -21.600 -19.571  0.00  0.00    -0.021 C 
ATOM     23  C   UNL     1      33.646 -19.580 -20.221  0.00  0.00    -0.077 C 
ATOM     24  C   UNL     1      35.980 -20.150 -19.906  0.00  0.00    -0.077 C 
ATOM     25  H   UNL     1      34.968 -20.119 -21.666  0.00  0.00    -0.080 HD
BRANCH  19  26
ATOM     26  C   UNL     1      35.371 -18.191 -21.167  0.00  0.00    -0.050 C 
BRANCH  26  28
ATOM     27  O   UNL     1      33.761 -17.061 -24.953  0.00  0.00    -0.354 OA
ATOM     28  C   UNL     1      35.303 -17.961 -22.677  0.00  0.00    +0.074 C 
ATOM     29  C   UNL     1      35.080 -16.477 -22.995  0.00  0.00    +0.057 C 
ATOM     30  C   UNL     1      34.192 -18.806 -23.317  0.00  0.00    +0.057 C 
ATOM     31  C   UNL     1      34.848 -16.260 -24.489  0.00  0.00    +0.144 C 
ATOM     32  C   UNL     1      34.014 -18.456 -24.791  0.00  0.00    +0.144 C 
BRANCH  28  33
ATOM     33  O   UNL     1      36.562 -18.347 -23.235  0.00  0.00    -0.389 OA
ATOM     34  H   UNL     1      37.263 -17.781 -22.876  0.00  0.00    +0.210 HD
ENDBRANCH  28  33
ENDBRANCH  26  28
ENDBRANCH  19  26
ENDBRANCH  18  20
ENDBRANCH   4  18
TORSDOF 5
ENDMDL
MODEL 7
REMARK VINA RESULT:      -9.8      1.409      2.737
REMARK  Name = 71451950
REMARK  5 active torsions:
REMARK  status: ('A' for Active; 'I' for Inactive)
REMARK    1  A    between atoms: N_4  and  C_18
REMARK    2  A    between atoms: C_18  and  C_20
REMARK    3  A    between atoms: N_19  and  C_26
REMARK    4  A    between atoms: C_26  and  C_28
REMARK    5  A    between atoms: C_28  and  O_33
REMARK                            x       y       z     vdW  Elec       q    Type
REMARK                         _______ _______ _______ _____ _____    ______ ____
ROOT
ATOM      1  F   UNL     1      31.129  -8.982 -18.188  0.00  0.00    -0.204 F 
ATOM      2  O   UNL     1      31.885 -12.038 -21.948  0.00  0.00    -0.252 OA
ATOM      3  O   UNL     1      34.059  -9.538 -24.673  0.00  0.00    -0.274 OA
ATOM      4  N   UNL     1      32.916 -11.955 -23.995  0.00  0.00    -0.288 N 
ATOM      5  N   UNL     1      32.907 -10.030 -22.638  0.00  0.00    -0.192 N 
ATOM      6  C   UNL     1      33.823  -7.824 -22.948  0.00  0.00    +0.090 C 
ATOM      7  C   UNL     1      33.136  -7.968 -21.620  0.00  0.00    -0.000 C 
ATOM      8  C   UNL     1      32.514 -11.388 -22.785  0.00  0.00    +0.314 C 
ATOM      9  C   UNL     1      33.636  -9.221 -23.568  0.00  0.00    +0.239 C 
ATOM     10  C   UNL     1      32.619  -9.258 -21.478  0.00  0.00    +0.061 C 
ATOM     11  C   UNL     1      33.142  -6.778 -23.832  0.00  0.00    +0.014 C 
ATOM     12  C   UNL     1      35.316  -7.532 -22.789  0.00  0.00    +0.014 C 
ATOM     13  C   UNL     1      32.988  -7.014 -20.622  0.00  0.00    -0.000 C 
ATOM     14  C   UNL     1      31.937  -9.613 -20.323  0.00  0.00    +0.045 C 
ATOM     15  C   UNL     1      32.305  -7.367 -19.459  0.00  0.00    +0.029 C 
ATOM     16  C   UNL     1      31.784  -8.658 -19.312  0.00  0.00    +0.141 C 
ATOM     17  H   UNL     1      33.417 -11.401 -24.635  0.00  0.00    +0.151 HD
ENDROOT
BRANCH   4  18
ATOM     18  C   UNL     1      32.623 -13.327 -24.339  0.00  0.00    +0.091 C 
BRANCH  18  20
ATOM     19  N   UNL     1      34.873 -16.771 -23.023  0.00  0.00    +0.388 N 
ATOM     20  C   UNL     1      33.812 -14.241 -24.056  0.00  0.00    +0.015 C 
ATOM     21  C   UNL     1      33.684 -15.562 -24.824  0.00  0.00    -0.021 C 
ATOM     22  C   UNL     1      33.945 -14.525 -22.556  0.00  0.00    -0.021 C 
ATOM     23  C   UNL     1      34.821 -16.523 -24.469  0.00  0.00    -0.077 C 
ATOM     24  C   UNL     1      35.073 -15.521 -22.278  0.00  0.00    -0.077 C 
ATOM     25  H   UNL     1      33.977 -17.167 -22.738  0.00  0.00    -0.080 HD
BRANCH  19  26
ATOM     26  C   UNL     1      35.929 -17.731 -22.705  0.00  0.00    -0.050 C 
BRANCH  26  28
ATOM     27  O   UNL     1      35.503 -21.007 -20.005  0.00  0.00    -0.354 OA
ATOM     28  C   UNL     1      35.635 -18.478 -21.404  0.00  0.00    +0.074 C 
ATOM     29  C   UNL     1      36.882 -19.218 -20.904  0.00  0.00    +0.057 C 
ATOM     30  C   UNL     1      34.476 -19.469 -21.583  0.00  0.00    +0.057 C 
ATOM     31  C   UNL     1      36.559 -20.096 -19.698  0.00  0.00    +0.144 C 
ATOM     32  C   UNL     1      34.290 -20.331 -20.337  0.00  0.00    +0.144 C 
BRANCH  28  33
ATOM     33  O   UNL     1      35.272 -17.510 -20.415  0.00  0.00    -0.389 OA
ATOM     34  H   UNL     1      34.961 -17.964 -19.617  0.00  0.00    +0.210 HD
ENDBRANCH  28  33
ENDBRANCH  26  28
ENDBRANCH  19  26
ENDBRANCH  18  20
ENDBRANCH   4  18
TORSDOF 5
ENDMDL
MODEL 8
REMARK VINA RESULT:      -9.5      6.038     11.876
REMARK  Name = 71451950
REMARK  5 active torsions:
REMARK  status: ('A' for Active; 'I' for Inactive)
REMARK    1  A    between atoms: N_4  and  C_18
REMARK    2  A    between atoms: C_18  and  C_20
REMARK    3  A    between atoms: N_19  and  C_26
REMARK    4  A    between atoms: C_26  and  C_28
REMARK    5  A    between atoms: C_28  and  O_33
REMARK                            x       y       z     vdW  Elec       q    Type
REMARK                         _______ _______ _______ _____ _____    ______ ____
ROOT
ATOM      1  F   UNL     1      35.794 -24.341 -11.883  0.00  0.00    -0.204 F 
ATOM      2  O   UNL     1      36.662 -22.389 -16.297  0.00  0.00    -0.252 OA
ATOM      3  O   UNL     1      32.737 -22.376 -18.027  0.00  0.00    -0.274 OA
ATOM      4  N   UNL     1      35.438 -21.832 -18.155  0.00  0.00    -0.288 N 
ATOM      5  N   UNL     1      34.342 -22.796 -16.306  0.00  0.00    -0.192 N 
ATOM      6  C   UNL     1      32.035 -23.361 -15.904  0.00  0.00    +0.090 C 
ATOM      7  C   UNL     1      32.909 -23.685 -14.727  0.00  0.00    -0.000 C 
ATOM      8  C   UNL     1      35.570 -22.348 -16.865  0.00  0.00    +0.314 C 
ATOM      9  C   UNL     1      33.043 -22.777 -16.911  0.00  0.00    +0.239 C 
ATOM     10  C   UNL     1      34.236 -23.344 -14.998  0.00  0.00    +0.061 C 
ATOM     11  C   UNL     1      31.390 -24.615 -16.497  0.00  0.00    +0.014 C 
ATOM     12  C   UNL     1      30.985 -22.303 -15.561  0.00  0.00    +0.014 C 
ATOM     13  C   UNL     1      32.538 -24.243 -13.510  0.00  0.00    -0.000 C 
ATOM     14  C   UNL     1      35.221 -23.563 -14.045  0.00  0.00    +0.045 C 
ATOM     15  C   UNL     1      33.524 -24.462 -12.549  0.00  0.00    +0.029 C 
ATOM     16  C   UNL     1      34.857 -24.124 -12.816  0.00  0.00    +0.141 C 
ATOM     17  H   UNL     1      34.547 -21.817 -18.571  0.00  0.00    +0.151 HD
ENDROOT
BRANCH   4  18
ATOM     18  C   UNL     1      36.565 -21.318 -18.897  0.00  0.00    +0.091 C 
BRANCH  18  20
ATOM     19  N   UNL     1      35.138 -18.352 -21.694  0.00  0.00    +0.388 N 
ATOM     20  C   UNL     1      36.124 -20.681 -20.213  0.00  0.00    +0.015 C 
ATOM     21  C   UNL     1      37.026 -19.497 -20.580  0.00  0.00    -0.021 C 
ATOM     22  C   UNL     1      34.665 -20.217 -20.140  0.00  0.00    -0.021 C 
ATOM     23  C   UNL     1      36.531 -18.792 -21.844  0.00  0.00    -0.077 C 
ATOM     24  C   UNL     1      34.249 -19.489 -21.419  0.00  0.00    -0.077 C 
ATOM     25  H   UNL     1      35.092 -17.717 -20.898  0.00  0.00    -0.080 HD
BRANCH  19  26
ATOM     26  C   UNL     1      34.695 -17.634 -22.889  0.00  0.00    -0.050 C 
BRANCH  26  28
ATOM     27  O   UNL     1      33.569 -13.641 -21.899  0.00  0.00    -0.354 OA
ATOM     28  C   UNL     1      34.817 -16.121 -22.712  0.00  0.00    +0.074 C 
ATOM     29  C   UNL     1      34.633 -15.726 -21.241  0.00  0.00    +0.057 C 
ATOM     30  C   UNL     1      33.796 -15.377 -23.585  0.00  0.00    +0.057 C 
ATOM     31  C   UNL     1      34.589 -14.209 -21.077  0.00  0.00    +0.144 C 
ATOM     32  C   UNL     1      33.803 -13.880 -23.286  0.00  0.00    +0.144 C 
BRANCH  28  33
ATOM     33  O   UNL     1      36.136 -15.738 -23.109  0.00  0.00    -0.389 OA
ATOM     34  H   UNL     1      36.271 -15.961 -24.043  0.00  0.00    +0.210 HD
ENDBRANCH  28  33
ENDBRANCH  26  28
ENDBRANCH  19  26
ENDBRANCH  18  20
ENDBRANCH   4  18
TORSDOF 5
ENDMDL
MODEL 9
REMARK VINA RESULT:      -8.6      3.134      6.269
REMARK  Name = 71451950
REMARK  5 active torsions:
REMARK  status: ('A' for Active; 'I' for Inactive)
REMARK    1  A    between atoms: N_4  and  C_18
REMARK    2  A    between atoms: C_18  and  C_20
REMARK    3  A    between atoms: N_19  and  C_26
REMARK    4  A    between atoms: C_26  and  C_28
REMARK    5  A    between atoms: C_28  and  O_33
REMARK                            x       y       z     vdW  Elec       q    Type
REMARK                         _______ _______ _______ _____ _____    ______ ____
ROOT
ATOM      1  F   UNL     1      36.329  -5.996 -25.513  0.00  0.00    -0.204 F 
ATOM      2  O   UNL     1      33.767  -7.493 -21.609  0.00  0.00    -0.252 OA
ATOM      3  O   UNL     1      30.259  -5.039 -21.881  0.00  0.00    -0.274 OA
ATOM      4  N   UNL     1      31.747  -7.003 -20.640  0.00  0.00    -0.288 N 
ATOM      5  N   UNL     1      32.399  -5.839 -22.581  0.00  0.00    -0.192 N 
ATOM      6  C   UNL     1      31.322  -4.120 -23.879  0.00  0.00    +0.090 C 
ATOM      7  C   UNL     1      32.654  -4.510 -24.454  0.00  0.00    -0.000 C 
ATOM      8  C   UNL     1      32.730  -6.829 -21.616  0.00  0.00    +0.314 C 
ATOM      9  C   UNL     1      31.215  -5.035 -22.646  0.00  0.00    +0.239 C 
ATOM     10  C   UNL     1      33.246  -5.507 -23.675  0.00  0.00    +0.061 C 
ATOM     11  C   UNL     1      31.301  -2.657 -23.432  0.00  0.00    +0.014 C 
ATOM     12  C   UNL     1      30.174  -4.425 -24.842  0.00  0.00    +0.014 C 
ATOM     13  C   UNL     1      33.281  -4.007 -25.586  0.00  0.00    -0.000 C 
ATOM     14  C   UNL     1      34.489  -6.017 -24.022  0.00  0.00    +0.045 C 
ATOM     15  C   UNL     1      34.529  -4.517 -25.939  0.00  0.00    +0.029 C 
ATOM     16  C   UNL     1      35.128  -5.516 -25.161  0.00  0.00    +0.141 C 
ATOM     17  H   UNL     1      30.933  -6.452 -20.683  0.00  0.00    +0.151 HD
ENDROOT
BRANCH   4  18
ATOM     18  C   UNL     1      31.884  -7.964 -19.571  0.00  0.00    +0.091 C 
BRANCH  18  20
ATOM     19  N   UNL     1      32.296 -11.851 -21.409  0.00  0.00    +0.388 N 
ATOM     20  C   UNL     1      31.534  -9.375 -20.039  0.00  0.00    +0.015 C 
ATOM     21  C   UNL     1      32.469 -10.411 -19.405  0.00  0.00    -0.021 C 
ATOM     22  C   UNL     1      31.601  -9.482 -21.566  0.00  0.00    -0.021 C 
ATOM     23  C   UNL     1      32.189 -11.815 -19.945  0.00  0.00    -0.077 C 
ATOM     24  C   UNL     1      31.350 -10.917 -22.033  0.00  0.00    -0.077 C 
ATOM     25  H   UNL     1      33.240 -11.559 -21.664  0.00  0.00    -0.080 HD
BRANCH  19  26
ATOM     26  C   UNL     1      32.078 -13.209 -21.906  0.00  0.00    -0.050 C 
BRANCH  26  28
ATOM     27  O   UNL     1      34.552 -15.916 -24.086  0.00  0.00    -0.354 OA
ATOM     28  C   UNL     1      33.287 -13.721 -22.689  0.00  0.00    +0.074 C 
ATOM     29  C   UNL     1      32.881 -14.150 -24.105  0.00  0.00    +0.057 C 
ATOM     30  C   UNL     1      33.963 -14.892 -21.961  0.00  0.00    +0.057 C 
ATOM     31  C   UNL     1      34.045 -14.813 -24.837  0.00  0.00    +0.144 C 
ATOM     32  C   UNL     1      35.065 -15.510 -22.817  0.00  0.00    +0.144 C 
BRANCH  28  33
ATOM     33  O   UNL     1      34.221 -12.644 -22.806  0.00  0.00    -0.389 OA
ATOM     34  H   UNL     1      34.084 -12.187 -23.650  0.00  0.00    +0.210 HD
ENDBRANCH  28  33
ENDBRANCH  26  28
ENDBRANCH  19  26
ENDBRANCH  18  20
ENDBRANCH   4  18
TORSDOF 5
ENDMDL
