MODEL 1
REMARK VINA RESULT:     -12.4      0.000      0.000
REMARK  Name = 3815
REMARK  0 active torsions:
REMARK  status: ('A' for Active; 'I' for Inactive)
REMARK                            x       y       z     vdW  Elec       q    Type
REMARK                         _______ _______ _______ _____ _____    ______ ____
ROOT
ATOM      1  O   UNL     1      37.463 -22.701 -16.018  0.00  0.00    -0.270 OA
ATOM      2  N   UNL     1      30.967 -23.128 -16.810  0.00  0.00    -0.352 N 
ATOM      3  N   UNL     1      32.692 -21.837 -18.580  0.00  0.00    -0.352 N 
ATOM      4  N   UNL     1      36.389 -23.874 -14.292  0.00  0.00    -0.297 N 
ATOM      5  C   UNL     1      34.256 -23.698 -15.085  0.00  0.00    +0.003 A 
ATOM      6  C   UNL     1      32.904 -23.683 -15.427  0.00  0.00    +0.016 A 
ATOM      7  C   UNL     1      34.556 -22.449 -17.117  0.00  0.00    +0.022 A 
ATOM      8  C   UNL     1      32.300 -23.082 -16.578  0.00  0.00    +0.072 A 
ATOM      9  C   UNL     1      35.106 -23.047 -15.984  0.00  0.00    +0.053 A 
ATOM     10  C   UNL     1      33.164 -22.435 -17.464  0.00  0.00    +0.073 A 
ATOM     11  C   UNL     1      35.035 -24.266 -13.947  0.00  0.00    +0.117 C 
ATOM     12  C   UNL     1      31.647 -24.189 -14.867  0.00  0.00    +0.017 A 
ATOM     13  C   UNL     1      34.989 -21.685 -18.298  0.00  0.00    +0.017 A 
ATOM     14  C   UNL     1      30.534 -23.845 -15.703  0.00  0.00    +0.057 A 
ATOM     15  C   UNL     1      33.867 -21.346 -19.129  0.00  0.00    +0.057 A 
ATOM     16  C   UNL     1      36.471 -23.156 -15.482  0.00  0.00    +0.246 C 
ATOM     17  C   UNL     1      31.380 -24.926 -13.688  0.00  0.00    +0.001 C 
ATOM     18  C   UNL     1      36.265 -21.251 -18.731  0.00  0.00    +0.001 C 
ATOM     19  C   UNL     1      29.224 -24.223 -15.374  0.00  0.00    +0.017 C 
ATOM     20  C   UNL     1      34.022 -20.617 -20.317  0.00  0.00    +0.017 C 
ATOM     21  C   UNL     1      30.070 -25.297 -13.370  0.00  0.00    +0.000 C 
ATOM     22  C   UNL     1      36.408 -20.524 -19.917  0.00  0.00    +0.000 C 
ATOM     23  C   UNL     1      29.011 -24.949 -14.200  0.00  0.00    +0.001 C 
ATOM     24  C   UNL     1      35.302 -20.212 -20.697  0.00  0.00    +0.001 C 
ATOM     25  H   UNL     1      30.447 -22.755 -17.558  0.00  0.00    +0.166 HD
ATOM     26  H   UNL     1      31.768 -21.768 -18.912  0.00  0.00    +0.166 HD
ATOM     27  H   UNL     1      37.174 -24.094 -13.739  0.00  0.00    +0.150 HD
ENDROOT
TORSDOF 0
ENDMDL
MODEL 2
REMARK VINA RESULT:     -12.2      0.920      5.959
REMARK  Name = 3815
REMARK  0 active torsions:
REMARK  status: ('A' for Active; 'I' for Inactive)
REMARK                            x       y       z     vdW  Elec       q    Type
REMARK                         _______ _______ _______ _____ _____    ______ ____
ROOT
ATOM      1  O   UNL     1      34.703 -24.704 -13.188  0.00  0.00    -0.270 OA
ATOM      2  N   UNL     1      32.638 -21.750 -18.667  0.00  0.00    -0.352 N 
ATOM      3  N   UNL     1      30.969 -23.037 -16.843  0.00  0.00    -0.352 N 
ATOM      4  N   UNL     1      36.440 -23.745 -14.441  0.00  0.00    -0.297 N 
ATOM      5  C   UNL     1      35.166 -22.909 -16.141  0.00  0.00    +0.003 A 
ATOM      6  C   UNL     1      34.538 -22.339 -17.247  0.00  0.00    +0.016 A 
ATOM      7  C   UNL     1      32.945 -23.571 -15.501  0.00  0.00    +0.022 A 
ATOM      8  C   UNL     1      33.140 -22.338 -17.556  0.00  0.00    +0.072 A 
ATOM      9  C   UNL     1      34.314 -23.550 -15.236  0.00  0.00    +0.053 A 
ATOM     10  C   UNL     1      32.304 -22.983 -16.642  0.00  0.00    +0.073 A 
ATOM     11  C   UNL     1      36.581 -23.000 -15.678  0.00  0.00    +0.117 C 
ATOM     12  C   UNL     1      34.937 -21.586 -18.441  0.00  0.00    +0.017 A 
ATOM     13  C   UNL     1      31.700 -24.083 -14.906  0.00  0.00    +0.017 A 
ATOM     14  C   UNL     1      33.799 -21.258 -19.249  0.00  0.00    +0.057 A 
ATOM     15  C   UNL     1      30.566 -23.749 -15.722  0.00  0.00    +0.057 A 
ATOM     16  C   UNL     1      35.122 -24.087 -14.148  0.00  0.00    +0.246 C 
ATOM     17  C   UNL     1      36.209 -21.158 -18.893  0.00  0.00    +0.001 C 
ATOM     18  C   UNL     1      31.447 -24.813 -13.720  0.00  0.00    +0.001 C 
ATOM     19  C   UNL     1      33.931 -20.538 -20.445  0.00  0.00    +0.017 C 
ATOM     20  C   UNL     1      29.263 -24.128 -15.367  0.00  0.00    +0.017 C 
ATOM     21  C   UNL     1      36.328 -20.440 -20.087  0.00  0.00    +0.000 C 
ATOM     22  C   UNL     1      30.143 -25.186 -13.375  0.00  0.00    +0.000 C 
ATOM     23  C   UNL     1      35.206 -20.137 -20.849  0.00  0.00    +0.001 C 
ATOM     24  C   UNL     1      29.069 -24.847 -14.187  0.00  0.00    +0.001 C 
ATOM     25  H   UNL     1      31.706 -21.687 -18.978  0.00  0.00    +0.166 HD
ATOM     26  H   UNL     1      30.429 -22.672 -17.580  0.00  0.00    +0.166 HD
ATOM     27  H   UNL     1      37.202 -23.986 -13.865  0.00  0.00    +0.150 HD
ENDROOT
TORSDOF 0
ENDMDL
MODEL 3
REMARK VINA RESULT:     -12.0      2.099      6.377
REMARK  Name = 3815
REMARK  0 active torsions:
REMARK  status: ('A' for Active; 'I' for Inactive)
REMARK                            x       y       z     vdW  Elec       q    Type
REMARK                         _______ _______ _______ _____ _____    ______ ____
ROOT
ATOM      1  O   UNL     1      32.667 -24.915 -13.287  0.00  0.00    -0.270 OA
ATOM      2  N   UNL     1      36.564 -22.001 -17.683  0.00  0.00    -0.352 N 
ATOM      3  N   UNL     1      37.471 -23.348 -15.416  0.00  0.00    -0.352 N 
ATOM      4  N   UNL     1      31.490 -23.895 -15.043  0.00  0.00    -0.297 N 
ATOM      5  C   UNL     1      33.293 -23.093 -16.192  0.00  0.00    +0.003 A 
ATOM      6  C   UNL     1      34.278 -22.538 -17.009  0.00  0.00    +0.016 A 
ATOM      7  C   UNL     1      35.141 -23.826 -14.841  0.00  0.00    +0.022 A 
ATOM      8  C   UNL     1      35.696 -22.579 -16.820  0.00  0.00    +0.072 A 
ATOM      9  C   UNL     1      33.765 -23.765 -15.061  0.00  0.00    +0.053 A 
ATOM     10  C   UNL     1      36.150 -23.253 -15.684  0.00  0.00    +0.073 A 
ATOM     11  C   UNL     1      31.803 -23.140 -16.242  0.00  0.00    +0.117 C 
ATOM     12  C   UNL     1      34.332 -21.767 -18.256  0.00  0.00    +0.017 A 
ATOM     13  C   UNL     1      36.092 -24.377 -13.862  0.00  0.00    +0.017 A 
ATOM     14  C   UNL     1      35.687 -21.471 -18.620  0.00  0.00    +0.057 A 
ATOM     15  C   UNL     1      37.446 -24.074 -14.235  0.00  0.00    +0.057 A 
ATOM     16  C   UNL     1      32.618 -24.279 -14.322  0.00  0.00    +0.246 C 
ATOM     17  C   UNL     1      33.305 -21.297 -19.108  0.00  0.00    +0.001 C 
ATOM     18  C   UNL     1      35.903 -25.119 -12.671  0.00  0.00    +0.001 C 
ATOM     19  C   UNL     1      35.993 -20.742 -19.778  0.00  0.00    +0.017 C 
ATOM     20  C   UNL     1      38.537 -24.493 -13.459  0.00  0.00    +0.017 C 
ATOM     21  C   UNL     1      33.622 -20.571 -20.260  0.00  0.00    +0.000 C 
ATOM     22  C   UNL     1      36.999 -25.531 -11.904  0.00  0.00    +0.000 C 
ATOM     23  C   UNL     1      34.945 -20.299 -20.587  0.00  0.00    +0.001 C 
ATOM     24  C   UNL     1      38.295 -25.221 -12.295  0.00  0.00    +0.001 C 
ATOM     25  H   UNL     1      37.548 -21.966 -17.655  0.00  0.00    +0.166 HD
ATOM     26  H   UNL     1      38.240 -22.998 -15.920  0.00  0.00    +0.166 HD
ATOM     27  H   UNL     1      30.571 -24.114 -14.766  0.00  0.00    +0.150 HD
ENDROOT
TORSDOF 0
ENDMDL
MODEL 4
REMARK VINA RESULT:     -11.0      2.132      6.019
REMARK  Name = 3815
REMARK  0 active torsions:
REMARK  status: ('A' for Active; 'I' for Inactive)
REMARK                            x       y       z     vdW  Elec       q    Type
REMARK                         _______ _______ _______ _____ _____    ______ ____
ROOT
ATOM      1  O   UNL     1      32.538 -21.851 -18.507  0.00  0.00    -0.270 OA
ATOM      2  N   UNL     1      34.554 -24.912 -13.069  0.00  0.00    -0.352 N 
ATOM      3  N   UNL     1      31.882 -24.516 -13.759  0.00  0.00    -0.352 N 
ATOM      4  N   UNL     1      34.875 -21.965 -18.314  0.00  0.00    -0.297 N 
ATOM      5  C   UNL     1      34.962 -23.084 -16.325  0.00  0.00    +0.003 A 
ATOM      6  C   UNL     1      35.190 -23.759 -15.126  0.00  0.00    +0.016 A 
ATOM      7  C   UNL     1      32.637 -23.378 -15.789  0.00  0.00    +0.022 A 
ATOM      8  C   UNL     1      34.216 -24.270 -14.211  0.00  0.00    +0.072 A 
ATOM      9  C   UNL     1      33.617 -22.894 -16.656  0.00  0.00    +0.053 A 
ATOM     10  C   UNL     1      32.877 -24.071 -14.557  0.00  0.00    +0.073 A 
ATOM     11  C   UNL     1      35.845 -22.496 -17.374  0.00  0.00    +0.117 C 
ATOM     12  C   UNL     1      36.350 -24.200 -14.345  0.00  0.00    +0.017 A 
ATOM     13  C   UNL     1      31.170 -23.433 -15.682  0.00  0.00    +0.017 A 
ATOM     14  C   UNL     1      35.940 -24.872 -13.147  0.00  0.00    +0.057 A 
ATOM     15  C   UNL     1      30.769 -24.107 -14.479  0.00  0.00    +0.057 A 
ATOM     16  C   UNL     1      33.554 -22.180 -17.926  0.00  0.00    +0.246 C 
ATOM     17  C   UNL     1      37.740 -24.070 -14.582  0.00  0.00    +0.001 C 
ATOM     18  C   UNL     1      30.139 -22.955 -16.526  0.00  0.00    +0.001 C 
ATOM     19  C   UNL     1      36.874 -25.386 -12.237  0.00  0.00    +0.017 C 
ATOM     20  C   UNL     1      29.417 -24.287 -14.148  0.00  0.00    +0.017 C 
ATOM     21  C   UNL     1      38.663 -24.587 -13.667  0.00  0.00    +0.000 C 
ATOM     22  C   UNL     1      28.795 -23.139 -16.187  0.00  0.00    +0.000 C 
ATOM     23  C   UNL     1      38.234 -25.233 -12.514  0.00  0.00    +0.001 C 
ATOM     24  C   UNL     1      28.441 -23.796 -15.015  0.00  0.00    +0.001 C 
ATOM     25  H   UNL     1      33.976 -25.301 -12.373  0.00  0.00    +0.166 HD
ATOM     26  H   UNL     1      31.932 -24.998 -12.903  0.00  0.00    +0.166 HD
ATOM     27  H   UNL     1      35.125 -21.499 -19.144  0.00  0.00    +0.150 HD
ENDROOT
TORSDOF 0
ENDMDL
MODEL 5
REMARK VINA RESULT:     -10.6      1.798      4.662
REMARK  Name = 3815
REMARK  0 active torsions:
REMARK  status: ('A' for Active; 'I' for Inactive)
REMARK                            x       y       z     vdW  Elec       q    Type
REMARK                         _______ _______ _______ _____ _____    ______ ____
ROOT
ATOM      1  O   UNL     1      36.814 -22.400 -17.468  0.00  0.00    -0.270 OA
ATOM      2  N   UNL     1      31.782 -24.496 -13.822  0.00  0.00    -0.352 N 
ATOM      3  N   UNL     1      34.467 -24.870 -13.171  0.00  0.00    -0.352 N 
ATOM      4  N   UNL     1      34.717 -21.876 -18.385  0.00  0.00    -0.297 N 
ATOM      5  C   UNL     1      33.428 -22.814 -16.751  0.00  0.00    +0.003 A 
ATOM      6  C   UNL     1      32.501 -23.333 -15.847  0.00  0.00    +0.016 A 
ATOM      7  C   UNL     1      35.069 -23.688 -15.227  0.00  0.00    +0.022 A 
ATOM      8  C   UNL     1      32.767 -24.033 -14.627  0.00  0.00    +0.072 A 
ATOM      9  C   UNL     1      34.769 -23.009 -16.409  0.00  0.00    +0.053 A 
ATOM     10  C   UNL     1      34.112 -24.220 -14.302  0.00  0.00    +0.073 A 
ATOM     11  C   UNL     1      33.321 -22.074 -18.042  0.00  0.00    +0.117 C 
ATOM     12  C   UNL     1      31.041 -23.404 -15.726  0.00  0.00    +0.017 A 
ATOM     13  C   UNL     1      36.246 -24.129 -14.461  0.00  0.00    +0.017 A 
ATOM     14  C   UNL     1      30.657 -24.092 -14.528  0.00  0.00    +0.057 A 
ATOM     15  C   UNL     1      35.850 -24.817 -13.264  0.00  0.00    +0.057 A 
ATOM     16  C   UNL     1      35.598 -22.413 -17.449  0.00  0.00    +0.246 C 
ATOM     17  C   UNL     1      30.010 -22.922 -16.567  0.00  0.00    +0.001 C 
ATOM     18  C   UNL     1      37.635 -23.993 -14.697  0.00  0.00    +0.001 C 
ATOM     19  C   UNL     1      29.309 -24.285 -14.193  0.00  0.00    +0.017 C 
ATOM     20  C   UNL     1      36.793 -25.335 -12.364  0.00  0.00    +0.017 C 
ATOM     21  C   UNL     1      28.669 -23.121 -16.222  0.00  0.00    +0.000 C 
ATOM     22  C   UNL     1      38.567 -24.515 -13.793  0.00  0.00    +0.000 C 
ATOM     23  C   UNL     1      28.327 -23.792 -15.055  0.00  0.00    +0.001 C 
ATOM     24  C   UNL     1      38.150 -25.175 -12.644  0.00  0.00    +0.001 C 
ATOM     25  H   UNL     1      31.846 -24.986 -12.970  0.00  0.00    +0.166 HD
ATOM     26  H   UNL     1      33.901 -25.270 -12.473  0.00  0.00    +0.166 HD
ATOM     27  H   UNL     1      35.013 -21.408 -19.199  0.00  0.00    +0.150 HD
ENDROOT
TORSDOF 0
ENDMDL
MODEL 6
REMARK VINA RESULT:      -9.9     12.018     15.372
REMARK  Name = 3815
REMARK  0 active torsions:
REMARK  status: ('A' for Active; 'I' for Inactive)
REMARK                            x       y       z     vdW  Elec       q    Type
REMARK                         _______ _______ _______ _____ _____    ______ ____
ROOT
ATOM      1  O   UNL     1      32.242 -11.941 -18.838  0.00  0.00    -0.270 OA
ATOM      2  N   UNL     1      31.997  -8.067 -24.123  0.00  0.00    -0.352 N 
ATOM      3  N   UNL     1      32.777 -10.743 -24.163  0.00  0.00    -0.352 N 
ATOM      4  N   UNL     1      31.533  -9.756 -18.359  0.00  0.00    -0.297 N 
ATOM      5  C   UNL     1      31.644  -8.927 -20.483  0.00  0.00    +0.003 A 
ATOM      6  C   UNL     1      31.656  -8.268 -21.712  0.00  0.00    +0.016 A 
ATOM      7  C   UNL     1      32.401 -10.827 -21.746  0.00  0.00    +0.022 A 
ATOM      8  C   UNL     1      32.022  -8.803 -22.988  0.00  0.00    +0.072 A 
ATOM      9  C   UNL     1      32.036 -10.268 -20.521  0.00  0.00    +0.053 A 
ATOM     10  C   UNL     1      32.412 -10.144 -23.007  0.00  0.00    +0.073 A 
ATOM     11  C   UNL     1      31.298  -8.524 -19.089  0.00  0.00    +0.117 C 
ATOM     12  C   UNL     1      31.351  -6.924 -22.215  0.00  0.00    +0.017 A 
ATOM     13  C   UNL     1      32.864 -12.112 -22.293  0.00  0.00    +0.017 A 
ATOM     14  C   UNL     1      31.563  -6.843 -23.631  0.00  0.00    +0.057 A 
ATOM     15  C   UNL     1      33.072 -12.021 -23.711  0.00  0.00    +0.057 A 
ATOM     16  C   UNL     1      31.968 -10.803 -19.167  0.00  0.00    +0.246 C 
ATOM     17  C   UNL     1      30.905  -5.757 -21.549  0.00  0.00    +0.001 C 
ATOM     18  C   UNL     1      33.124 -13.363 -21.683  0.00  0.00    +0.001 C 
ATOM     19  C   UNL     1      31.337  -5.655 -24.340  0.00  0.00    +0.017 C 
ATOM     20  C   UNL     1      33.515 -13.118 -24.465  0.00  0.00    +0.017 C 
ATOM     21  C   UNL     1      30.683  -4.577 -22.267  0.00  0.00    +0.000 C 
ATOM     22  C   UNL     1      33.567 -14.450 -22.444  0.00  0.00    +0.000 C 
ATOM     23  C   UNL     1      30.896  -4.530 -23.639  0.00  0.00    +0.001 C 
ATOM     24  C   UNL     1      33.758 -14.328 -23.814  0.00  0.00    +0.001 C 
ATOM     25  H   UNL     1      32.224  -8.326 -25.045  0.00  0.00    +0.166 HD
ATOM     26  H   UNL     1      32.820 -10.375 -25.074  0.00  0.00    +0.166 HD
ATOM     27  H   UNL     1      31.397  -9.843 -17.387  0.00  0.00    +0.150 HD
ENDROOT
TORSDOF 0
ENDMDL
MODEL 7
REMARK VINA RESULT:      -9.7     11.704     14.758
REMARK  Name = 3815
REMARK  0 active torsions:
REMARK  status: ('A' for Active; 'I' for Inactive)
REMARK                            x       y       z     vdW  Elec       q    Type
REMARK                         _______ _______ _______ _____ _____    ______ ____
ROOT
ATOM      1  O   UNL     1      31.045  -8.119 -18.737  0.00  0.00    -0.270 OA
ATOM      2  N   UNL     1      32.893 -11.259 -24.189  0.00  0.00    -0.352 N 
ATOM      3  N   UNL     1      32.034  -8.608 -24.108  0.00  0.00    -0.352 N 
ATOM      4  N   UNL     1      31.693 -10.342 -18.356  0.00  0.00    -0.297 N 
ATOM      5  C   UNL     1      32.202 -10.885 -20.515  0.00  0.00    +0.003 A 
ATOM      6  C   UNL     1      32.555 -11.376 -21.772  0.00  0.00    +0.016 A 
ATOM      7  C   UNL     1      31.733  -8.841 -21.691  0.00  0.00    +0.022 A 
ATOM      8  C   UNL     1      32.526 -10.679 -23.022  0.00  0.00    +0.072 A 
ATOM      9  C   UNL     1      31.775  -9.554 -20.493  0.00  0.00    +0.053 A 
ATOM     10  C   UNL     1      32.096  -9.351 -22.981  0.00  0.00    +0.073 A 
ATOM     11  C   UNL     1      32.173 -11.464 -19.141  0.00  0.00    +0.117 C 
ATOM     12  C   UNL     1      33.044 -12.639 -22.334  0.00  0.00    +0.017 A 
ATOM     13  C   UNL     1      31.380  -7.499 -22.180  0.00  0.00    +0.017 A 
ATOM     14  C   UNL     1      33.230 -12.534 -23.752  0.00  0.00    +0.057 A 
ATOM     15  C   UNL     1      31.570  -7.404 -23.601  0.00  0.00    +0.057 A 
ATOM     16  C   UNL     1      31.448  -9.201 -19.117  0.00  0.00    +0.246 C 
ATOM     17  C   UNL     1      33.344 -13.879 -21.722  0.00  0.00    +0.001 C 
ATOM     18  C   UNL     1      30.907  -6.342 -21.515  0.00  0.00    +0.001 C 
ATOM     19  C   UNL     1      33.694 -13.616 -24.513  0.00  0.00    +0.017 C 
ATOM     20  C   UNL     1      31.301  -6.221 -24.305  0.00  0.00    +0.017 C 
ATOM     21  C   UNL     1      33.805 -14.952 -22.491  0.00  0.00    +0.000 C 
ATOM     22  C   UNL     1      30.641  -5.167 -22.227  0.00  0.00    +0.000 C 
ATOM     23  C   UNL     1      33.976 -14.820 -23.864  0.00  0.00    +0.001 C 
ATOM     24  C   UNL     1      30.836  -5.109 -23.601  0.00  0.00    +0.001 C 
ATOM     25  H   UNL     1      32.913 -10.883 -25.098  0.00  0.00    +0.166 HD
ATOM     26  H   UNL     1      32.257  -8.853 -25.035  0.00  0.00    +0.166 HD
ATOM     27  H   UNL     1      31.555 -10.382 -17.382  0.00  0.00    +0.150 HD
ENDROOT
TORSDOF 0
ENDMDL
