MODEL 1
REMARK VINA RESULT:     -10.3      0.000      0.000
REMARK  Name = 24864079
REMARK  4 active torsions:
REMARK  status: ('A' for Active; 'I' for Inactive)
REMARK    1  A    between atoms: C_3  and  N_19
REMARK    2  A    between atoms: C_4  and  C_9
REMARK    3  A    between atoms: N_8  and  C_12
REMARK    4  A    between atoms: C_20  and  C_24
REMARK                            x       y       z     vdW  Elec       q    Type
REMARK                         _______ _______ _______ _____ _____    ______ ____
ROOT
ATOM      1  N   UNL     1      35.262 -24.814 -13.216  0.00  0.00    -0.230 N 
ATOM      2  N   UNL     1      36.555 -24.969 -13.545  0.00  0.00    -0.178 NA
ATOM      3  C   UNL     1      35.460 -23.646 -15.051  0.00  0.00    +0.091 C 
ATOM      4  C   UNL     1      34.561 -24.031 -14.086  0.00  0.00    +0.134 C 
ATOM      5  C   UNL     1      36.670 -24.252 -14.666  0.00  0.00    +0.134 C 
ATOM      6  H   UNL     1      34.857 -25.228 -12.420  0.00  0.00    +0.175 HD
ENDROOT
BRANCH   4   9
ATOM      7  O   UNL     1      32.747 -23.190 -12.898  0.00  0.00    -0.268 OA
ATOM      8  N   UNL     1      32.343 -24.021 -15.055  0.00  0.00    -0.279 N 
ATOM      9  C   UNL     1      33.174 -23.722 -13.951  0.00  0.00    +0.266 C 
ATOM     10  H   UNL     1      32.798 -24.436 -15.824  0.00  0.00    +0.155 HD
BRANCH   8  12
ATOM     11  F   UNL     1      26.897 -23.189 -15.694  0.00  0.00    -0.204 F 
ATOM     12  C   UNL     1      30.952 -23.808 -15.218  0.00  0.00    +0.051 C 
ATOM     13  C   UNL     1      30.042 -24.753 -14.744  0.00  0.00    +0.017 C 
ATOM     14  C   UNL     1      30.493 -22.654 -15.853  0.00  0.00    +0.017 C 
ATOM     15  C   UNL     1      28.673 -24.544 -14.905  0.00  0.00    +0.031 C 
ATOM     16  C   UNL     1      29.123 -22.445 -16.014  0.00  0.00    +0.031 C 
ATOM     17  C   UNL     1      28.213 -23.390 -15.540  0.00  0.00    +0.140 C 
ENDBRANCH   8  12
ENDBRANCH   4   9
BRANCH   3  19
ATOM     18  O   UNL     1      33.895 -24.205 -17.546  0.00  0.00    -0.270 OA
ATOM     19  N   UNL     1      35.206 -22.823 -16.176  0.00  0.00    -0.278 N 
ATOM     20  C   UNL     1      34.465 -23.124 -17.327  0.00  0.00    +0.254 C 
ATOM     21  H   UNL     1      35.601 -21.922 -16.145  0.00  0.00    +0.155 HD
BRANCH  20  24
ATOM     22  F   UNL     1      32.036 -21.992 -18.154  0.00  0.00    -0.204 F 
ATOM     23  F   UNL     1      36.766 -22.105 -18.565  0.00  0.00    -0.204 F 
ATOM     24  C   UNL     1      34.403 -22.076 -18.333  0.00  0.00    +0.108 C 
ATOM     25  C   UNL     1      33.169 -21.544 -18.711  0.00  0.00    +0.147 C 
ATOM     26  C   UNL     1      35.576 -21.602 -18.921  0.00  0.00    +0.147 C 
ATOM     27  C   UNL     1      33.110 -20.540 -19.677  0.00  0.00    +0.030 C 
ATOM     28  C   UNL     1      35.516 -20.597 -19.887  0.00  0.00    +0.030 C 
ATOM     29  C   UNL     1      34.283 -20.066 -20.265  0.00  0.00    +0.005 C 
ENDBRANCH  20  24
ENDBRANCH   3  19
TORSDOF 4
ENDMDL
MODEL 2
REMARK VINA RESULT:     -10.2      8.085     11.298
REMARK  Name = 24864079
REMARK  4 active torsions:
REMARK  status: ('A' for Active; 'I' for Inactive)
REMARK    1  A    between atoms: C_3  and  N_19
REMARK    2  A    between atoms: C_4  and  C_9
REMARK    3  A    between atoms: N_8  and  C_12
REMARK    4  A    between atoms: C_20  and  C_24
REMARK                            x       y       z     vdW  Elec       q    Type
REMARK                         _______ _______ _______ _____ _____    ______ ____
ROOT
ATOM      1  N   UNL     1      34.384 -16.090 -24.740  0.00  0.00    -0.230 N 
ATOM      2  N   UNL     1      33.862 -15.267 -25.665  0.00  0.00    -0.178 NA
ATOM      3  C   UNL     1      33.652 -14.404 -23.561  0.00  0.00    +0.091 C 
ATOM      4  C   UNL     1      34.283 -15.620 -23.463  0.00  0.00    +0.134 C 
ATOM      5  C   UNL     1      33.418 -14.238 -24.938  0.00  0.00    +0.134 C 
ATOM      6  H   UNL     1      34.800 -16.954 -24.963  0.00  0.00    +0.175 HD
ENDROOT
BRANCH   4   9
ATOM      7  O   UNL     1      34.940 -15.698 -21.233  0.00  0.00    -0.268 OA
ATOM      8  N   UNL     1      34.991 -17.703 -22.452  0.00  0.00    -0.279 N 
ATOM      9  C   UNL     1      34.762 -16.314 -22.311  0.00  0.00    +0.266 C 
ATOM     10  H   UNL     1      34.813 -18.069 -23.349  0.00  0.00    +0.155 HD
BRANCH   8  12
ATOM     11  F   UNL     1      36.739 -21.385 -18.692  0.00  0.00    -0.204 F 
ATOM     12  C   UNL     1      35.437 -18.643 -21.492  0.00  0.00    +0.051 C 
ATOM     13  C   UNL     1      34.546 -19.576 -20.962  0.00  0.00    +0.017 C 
ATOM     14  C   UNL     1      36.769 -18.637 -21.076  0.00  0.00    +0.017 C 
ATOM     15  C   UNL     1      34.986 -20.502 -20.017  0.00  0.00    +0.031 C 
ATOM     16  C   UNL     1      37.208 -19.563 -20.130  0.00  0.00    +0.031 C 
ATOM     17  C   UNL     1      36.317 -20.496 -19.600  0.00  0.00    +0.140 C 
ENDBRANCH   8  12
ENDBRANCH   4   9
BRANCH   3  19
ATOM     18  O   UNL     1      31.175 -12.782 -23.092  0.00  0.00    -0.270 OA
ATOM     19  N   UNL     1      33.319 -13.527 -22.499  0.00  0.00    -0.278 N 
ATOM     20  C   UNL     1      32.145 -12.785 -22.316  0.00  0.00    +0.254 C 
ATOM     21  H   UNL     1      34.002 -13.425 -21.797  0.00  0.00    +0.155 HD
BRANCH  20  24
ATOM     22  F   UNL     1      31.844 -10.001 -22.472  0.00  0.00    -0.204 F 
ATOM     23  F   UNL     1      32.360 -13.842 -19.728  0.00  0.00    -0.204 F 
ATOM     24  C   UNL     1      32.103 -11.943 -21.131  0.00  0.00    +0.108 C 
ATOM     25  C   UNL     1      31.952 -10.562 -21.260  0.00  0.00    +0.147 C 
ATOM     26  C   UNL     1      32.215 -12.517 -19.864  0.00  0.00    +0.147 C 
ATOM     27  C   UNL     1      31.913  -9.756 -20.123  0.00  0.00    +0.030 C 
ATOM     28  C   UNL     1      32.176 -11.710 -18.727  0.00  0.00    +0.030 C 
ATOM     29  C   UNL     1      32.025 -10.329 -18.856  0.00  0.00    +0.005 C 
ENDBRANCH  20  24
ENDBRANCH   3  19
TORSDOF 4
ENDMDL
MODEL 3
REMARK VINA RESULT:     -10.2      8.087     11.308
REMARK  Name = 24864079
REMARK  4 active torsions:
REMARK  status: ('A' for Active; 'I' for Inactive)
REMARK    1  A    between atoms: C_3  and  N_19
REMARK    2  A    between atoms: C_4  and  C_9
REMARK    3  A    between atoms: N_8  and  C_12
REMARK    4  A    between atoms: C_20  and  C_24
REMARK                            x       y       z     vdW  Elec       q    Type
REMARK                         _______ _______ _______ _____ _____    ______ ____
ROOT
ATOM      1  N   UNL     1      34.384 -16.090 -24.742  0.00  0.00    -0.230 N 
ATOM      2  N   UNL     1      33.864 -15.266 -25.667  0.00  0.00    -0.178 NA
ATOM      3  C   UNL     1      33.652 -14.402 -23.564  0.00  0.00    +0.091 C 
ATOM      4  C   UNL     1      34.283 -15.620 -23.465  0.00  0.00    +0.134 C 
ATOM      5  C   UNL     1      33.420 -14.237 -24.941  0.00  0.00    +0.134 C 
ATOM      6  H   UNL     1      34.799 -16.954 -24.965  0.00  0.00    +0.175 HD
ENDROOT
BRANCH   4   9
ATOM      7  O   UNL     1      34.936 -15.697 -21.235  0.00  0.00    -0.268 OA
ATOM      8  N   UNL     1      34.989 -17.702 -22.453  0.00  0.00    -0.279 N 
ATOM      9  C   UNL     1      34.759 -16.314 -22.313  0.00  0.00    +0.266 C 
ATOM     10  H   UNL     1      34.813 -18.069 -23.350  0.00  0.00    +0.155 HD
BRANCH   8  12
ATOM     11  F   UNL     1      36.731 -21.385 -18.691  0.00  0.00    -0.204 F 
ATOM     12  C   UNL     1      35.434 -18.643 -21.492  0.00  0.00    +0.051 C 
ATOM     13  C   UNL     1      34.542 -19.576 -20.965  0.00  0.00    +0.017 C 
ATOM     14  C   UNL     1      36.765 -18.636 -21.074  0.00  0.00    +0.017 C 
ATOM     15  C   UNL     1      34.980 -20.502 -20.019  0.00  0.00    +0.031 C 
ATOM     16  C   UNL     1      37.202 -19.562 -20.128  0.00  0.00    +0.031 C 
ATOM     17  C   UNL     1      36.310 -20.495 -19.599  0.00  0.00    +0.140 C 
ENDBRANCH   8  12
ENDBRANCH   4   9
BRANCH   3  19
ATOM     18  O   UNL     1      31.176 -12.779 -23.097  0.00  0.00    -0.270 OA
ATOM     19  N   UNL     1      33.320 -13.525 -22.503  0.00  0.00    -0.278 N 
ATOM     20  C   UNL     1      32.145 -12.782 -22.321  0.00  0.00    +0.254 C 
ATOM     21  H   UNL     1      34.003 -13.423 -21.801  0.00  0.00    +0.155 HD
BRANCH  20  24
ATOM     22  F   UNL     1      32.353 -13.838 -19.731  0.00  0.00    -0.204 F 
ATOM     23  F   UNL     1      31.853  -9.997 -22.479  0.00  0.00    -0.204 F 
ATOM     24  C   UNL     1      32.104 -11.940 -21.136  0.00  0.00    +0.108 C 
ATOM     25  C   UNL     1      32.211 -12.513 -19.868  0.00  0.00    +0.147 C 
ATOM     26  C   UNL     1      31.956 -10.559 -21.267  0.00  0.00    +0.147 C 
ATOM     27  C   UNL     1      32.170 -11.705 -18.732  0.00  0.00    +0.030 C 
ATOM     28  C   UNL     1      31.916  -9.751 -20.131  0.00  0.00    +0.030 C 
ATOM     29  C   UNL     1      32.023 -10.324 -18.863  0.00  0.00    +0.005 C 
ENDBRANCH  20  24
ENDBRANCH   3  19
TORSDOF 4
ENDMDL
MODEL 4
REMARK VINA RESULT:     -10.2      1.745      2.566
REMARK  Name = 24864079
REMARK  4 active torsions:
REMARK  status: ('A' for Active; 'I' for Inactive)
REMARK    1  A    between atoms: C_3  and  N_19
REMARK    2  A    between atoms: C_4  and  C_9
REMARK    3  A    between atoms: N_8  and  C_12
REMARK    4  A    between atoms: C_20  and  C_24
REMARK                            x       y       z     vdW  Elec       q    Type
REMARK                         _______ _______ _______ _____ _____    ______ ____
ROOT
ATOM      1  N   UNL     1      36.608 -25.595 -12.114  0.00  0.00    -0.230 N 
ATOM      2  N   UNL     1      37.875 -25.876 -12.463  0.00  0.00    -0.178 NA
ATOM      3  C   UNL     1      36.805 -24.678 -14.087  0.00  0.00    +0.091 C 
ATOM      4  C   UNL     1      35.923 -24.879 -13.052  0.00  0.00    +0.134 C 
ATOM      5  C   UNL     1      37.989 -25.312 -13.669  0.00  0.00    +0.134 C 
ATOM      6  H   UNL     1      36.210 -25.879 -11.260  0.00  0.00    +0.175 HD
ENDROOT
BRANCH   4   9
ATOM      7  O   UNL     1      34.189 -23.882 -11.865  0.00  0.00    -0.268 OA
ATOM      8  N   UNL     1      33.704 -24.714 -14.005  0.00  0.00    -0.279 N 
ATOM      9  C   UNL     1      34.565 -24.462 -12.912  0.00  0.00    +0.266 C 
ATOM     10  H   UNL     1      34.119 -25.176 -14.769  0.00  0.00    +0.155 HD
BRANCH   8  12
ATOM     11  F   UNL     1      28.332 -23.478 -14.616  0.00  0.00    -0.204 F 
ATOM     12  C   UNL     1      32.332 -24.399 -14.161  0.00  0.00    +0.051 C 
ATOM     13  C   UNL     1      31.356 -25.284 -13.704  0.00  0.00    +0.017 C 
ATOM     14  C   UNL     1      31.957 -23.201 -14.771  0.00  0.00    +0.017 C 
ATOM     15  C   UNL     1      30.006 -24.973 -13.858  0.00  0.00    +0.031 C 
ATOM     16  C   UNL     1      30.606 -22.891 -14.925  0.00  0.00    +0.031 C 
ATOM     17  C   UNL     1      29.630 -23.777 -14.469  0.00  0.00    +0.140 C 
ENDBRANCH   8  12
ENDBRANCH   4   9
BRANCH   3  19
ATOM     18  O   UNL     1      35.456 -22.045 -14.569  0.00  0.00    -0.270 OA
ATOM     19  N   UNL     1      36.557 -23.984 -15.297  0.00  0.00    -0.278 N 
ATOM     20  C   UNL     1      35.921 -22.749 -15.480  0.00  0.00    +0.254 C 
ATOM     21  H   UNL     1      36.874 -24.428 -16.118  0.00  0.00    +0.155 HD
BRANCH  20  24
ATOM     22  F   UNL     1      37.743 -20.968 -16.653  0.00  0.00    -0.204 F 
ATOM     23  F   UNL     1      33.826 -23.611 -17.133  0.00  0.00    -0.204 F 
ATOM     24  C   UNL     1      35.788 -22.301 -16.857  0.00  0.00    +0.108 C 
ATOM     25  C   UNL     1      36.720 -21.414 -17.396  0.00  0.00    +0.147 C 
ATOM     26  C   UNL     1      34.727 -22.758 -17.640  0.00  0.00    +0.147 C 
ATOM     27  C   UNL     1      36.592 -20.984 -18.716  0.00  0.00    +0.030 C 
ATOM     28  C   UNL     1      34.599 -22.328 -18.960  0.00  0.00    +0.030 C 
ATOM     29  C   UNL     1      35.531 -21.441 -19.499  0.00  0.00    +0.005 C 
ENDBRANCH  20  24
ENDBRANCH   3  19
TORSDOF 4
ENDMDL
MODEL 5
REMARK VINA RESULT:     -10.1      7.655     10.921
REMARK  Name = 24864079
REMARK  4 active torsions:
REMARK  status: ('A' for Active; 'I' for Inactive)
REMARK    1  A    between atoms: C_3  and  N_19
REMARK    2  A    between atoms: C_4  and  C_9
REMARK    3  A    between atoms: N_8  and  C_12
REMARK    4  A    between atoms: C_20  and  C_24
REMARK                            x       y       z     vdW  Elec       q    Type
REMARK                         _______ _______ _______ _____ _____    ______ ____
ROOT
ATOM      1  N   UNL     1      33.475 -14.530 -24.806  0.00  0.00    -0.230 N 
ATOM      2  N   UNL     1      33.657 -15.434 -25.783  0.00  0.00    -0.178 NA
ATOM      3  C   UNL     1      34.277 -16.264 -23.747  0.00  0.00    +0.091 C 
ATOM      4  C   UNL     1      33.830 -14.977 -23.567  0.00  0.00    +0.134 C 
ATOM      5  C   UNL     1      34.147 -16.492 -25.129  0.00  0.00    +0.134 C 
ATOM      6  H   UNL     1      33.117 -13.628 -24.969  0.00  0.00    +0.175 HD
ENDROOT
BRANCH   4   9
ATOM      7  O   UNL     1      34.581 -14.333 -21.462  0.00  0.00    -0.268 OA
ATOM      8  N   UNL     1      32.656 -13.283 -22.298  0.00  0.00    -0.279 N 
ATOM      9  C   UNL     1      33.730 -14.201 -22.374  0.00  0.00    +0.266 C 
ATOM     10  H   UNL     1      32.056 -13.272 -23.078  0.00  0.00    +0.155 HD
BRANCH   8  12
ATOM     11  F   UNL     1      31.335  -9.731 -18.248  0.00  0.00    -0.204 F 
ATOM     12  C   UNL     1      32.319 -12.376 -21.263  0.00  0.00    +0.051 C 
ATOM     13  C   UNL     1      31.917 -11.078 -21.578  0.00  0.00    +0.017 C 
ATOM     14  C   UNL     1      32.388 -12.781 -19.930  0.00  0.00    +0.017 C 
ATOM     15  C   UNL     1      31.585 -10.185 -20.559  0.00  0.00    +0.031 C 
ATOM     16  C   UNL     1      32.056 -11.887 -18.912  0.00  0.00    +0.031 C 
ATOM     17  C   UNL     1      31.655 -10.589 -19.226  0.00  0.00    +0.140 C 
ENDBRANCH   8  12
ENDBRANCH   4   9
BRANCH   3  19
ATOM     18  O   UNL     1      34.547 -19.249 -23.773  0.00  0.00    -0.270 OA
ATOM     19  N   UNL     1      34.758 -17.148 -22.750  0.00  0.00    -0.278 N 
ATOM     20  C   UNL     1      34.869 -18.544 -22.803  0.00  0.00    +0.254 C 
ATOM     21  H   UNL     1      35.053 -16.727 -21.911  0.00  0.00    +0.155 HD
BRANCH  20  24
ATOM     22  F   UNL     1      37.528 -18.244 -21.962  0.00  0.00    -0.204 F 
ATOM     23  F   UNL     1      33.254 -20.161 -21.177  0.00  0.00    -0.204 F 
ATOM     24  C   UNL     1      35.378 -19.186 -21.601  0.00  0.00    +0.108 C 
ATOM     25  C   UNL     1      36.709 -19.006 -21.224  0.00  0.00    +0.147 C 
ATOM     26  C   UNL     1      34.535 -19.982 -20.825  0.00  0.00    +0.147 C 
ATOM     27  C   UNL     1      37.197 -19.623 -20.072  0.00  0.00    +0.030 C 
ATOM     28  C   UNL     1      35.023 -20.598 -19.673  0.00  0.00    +0.030 C 
ATOM     29  C   UNL     1      36.354 -20.419 -19.296  0.00  0.00    +0.005 C 
ENDBRANCH  20  24
ENDBRANCH   3  19
TORSDOF 4
ENDMDL
MODEL 6
REMARK VINA RESULT:      -9.9      2.713      6.070
REMARK  Name = 24864079
REMARK  4 active torsions:
REMARK  status: ('A' for Active; 'I' for Inactive)
REMARK    1  A    between atoms: C_3  and  N_19
REMARK    2  A    between atoms: C_4  and  C_9
REMARK    3  A    between atoms: N_8  and  C_12
REMARK    4  A    between atoms: C_20  and  C_24
REMARK                            x       y       z     vdW  Elec       q    Type
REMARK                         _______ _______ _______ _____ _____    ______ ____
ROOT
ATOM      1  N   UNL     1      30.134 -24.054 -14.882  0.00  0.00    -0.230 N 
ATOM      2  N   UNL     1      30.105 -24.864 -13.811  0.00  0.00    -0.178 NA
ATOM      3  C   UNL     1      32.247 -24.400 -14.453  0.00  0.00    +0.091 C 
ATOM      4  C   UNL     1      31.393 -23.745 -15.308  0.00  0.00    +0.134 C 
ATOM      5  C   UNL     1      31.400 -25.071 -13.553  0.00  0.00    +0.134 C 
ATOM      6  H   UNL     1      29.321 -23.713 -15.321  0.00  0.00    +0.175 HD
ENDROOT
BRANCH   4   9
ATOM      7  O   UNL     1      30.793 -22.148 -16.889  0.00  0.00    -0.268 OA
ATOM      8  N   UNL     1      32.996 -22.956 -16.941  0.00  0.00    -0.279 N 
ATOM      9  C   UNL     1      31.681 -22.904 -16.424  0.00  0.00    +0.266 C 
ATOM     10  H   UNL     1      33.600 -23.589 -16.489  0.00  0.00    +0.155 HD
BRANCH   8  12
ATOM     11  F   UNL     1      35.251 -20.117 -21.137  0.00  0.00    -0.204 F 
ATOM     12  C   UNL     1      33.572 -22.231 -18.013  0.00  0.00    +0.051 C 
ATOM     13  C   UNL     1      32.767 -21.440 -18.832  0.00  0.00    +0.017 C 
ATOM     14  C   UNL     1      34.945 -22.308 -18.249  0.00  0.00    +0.017 C 
ATOM     15  C   UNL     1      33.334 -20.726 -19.887  0.00  0.00    +0.031 C 
ATOM     16  C   UNL     1      35.512 -21.594 -19.304  0.00  0.00    +0.031 C 
ATOM     17  C   UNL     1      34.707 -20.803 -20.124  0.00  0.00    +0.140 C 
ENDBRANCH   8  12
ENDBRANCH   4   9
BRANCH   3  19
ATOM     18  O   UNL     1      34.235 -23.910 -12.263  0.00  0.00    -0.270 OA
ATOM     19  N   UNL     1      33.664 -24.389 -14.488  0.00  0.00    -0.278 N 
ATOM     20  C   UNL     1      34.560 -24.155 -13.437  0.00  0.00    +0.254 C 
ATOM     21  H   UNL     1      34.072 -24.569 -15.366  0.00  0.00    +0.155 HD
BRANCH  20  24
ATOM     22  F   UNL     1      36.320 -26.074 -12.394  0.00  0.00    -0.204 F 
ATOM     23  F   UNL     1      35.695 -22.292 -15.199  0.00  0.00    -0.204 F 
ATOM     24  C   UNL     1      35.971 -24.182 -13.787  0.00  0.00    +0.108 C 
ATOM     25  C   UNL     1      36.807 -25.157 -13.242  0.00  0.00    +0.147 C 
ATOM     26  C   UNL     1      36.489 -23.233 -14.669  0.00  0.00    +0.147 C 
ATOM     27  C   UNL     1      38.161 -25.182 -13.579  0.00  0.00    +0.030 C 
ATOM     28  C   UNL     1      37.843 -23.258 -15.005  0.00  0.00    +0.030 C 
ATOM     29  C   UNL     1      38.679 -24.233 -14.460  0.00  0.00    +0.005 C 
ENDBRANCH  20  24
ENDBRANCH   3  19
TORSDOF 4
ENDMDL
MODEL 7
REMARK VINA RESULT:      -9.8      2.662      5.455
REMARK  Name = 24864079
REMARK  4 active torsions:
REMARK  status: ('A' for Active; 'I' for Inactive)
REMARK    1  A    between atoms: C_3  and  N_19
REMARK    2  A    between atoms: C_4  and  C_9
REMARK    3  A    between atoms: N_8  and  C_12
REMARK    4  A    between atoms: C_20  and  C_24
REMARK                            x       y       z     vdW  Elec       q    Type
REMARK                         _______ _______ _______ _____ _____    ______ ____
ROOT
ATOM      1  N   UNL     1      35.198 -21.936 -18.577  0.00  0.00    -0.230 N 
ATOM      2  N   UNL     1      36.359 -21.261 -18.600  0.00  0.00    -0.178 NA
ATOM      3  C   UNL     1      36.005 -22.247 -16.571  0.00  0.00    +0.091 C 
ATOM      4  C   UNL     1      34.938 -22.546 -17.384  0.00  0.00    +0.134 C 
ATOM      5  C   UNL     1      36.848 -21.456 -17.372  0.00  0.00    +0.134 C 
ATOM      6  H   UNL     1      34.590 -21.987 -19.350  0.00  0.00    +0.175 HD
ENDROOT
BRANCH   4   9
ATOM      7  O   UNL     1      33.454 -24.269 -17.870  0.00  0.00    -0.268 OA
ATOM      8  N   UNL     1      33.025 -22.972 -15.962  0.00  0.00    -0.279 N 
ATOM      9  C   UNL     1      33.769 -23.319 -17.115  0.00  0.00    +0.266 C 
ATOM     10  H   UNL     1      33.376 -22.207 -15.451  0.00  0.00    +0.155 HD
BRANCH   8  12
ATOM     11  F   UNL     1      28.429 -25.292 -13.902  0.00  0.00    -0.204 F 
ATOM     12  C   UNL     1      31.852 -23.564 -15.436  0.00  0.00    +0.051 C 
ATOM     13  C   UNL     1      31.949 -24.583 -14.489  0.00  0.00    +0.017 C 
ATOM     14  C   UNL     1      30.598 -23.128 -15.865  0.00  0.00    +0.017 C 
ATOM     15  C   UNL     1      30.793 -25.166 -13.971  0.00  0.00    +0.031 C 
ATOM     16  C   UNL     1      29.442 -23.712 -15.347  0.00  0.00    +0.031 C 
ATOM     17  C   UNL     1      29.539 -24.731 -14.400  0.00  0.00    +0.140 C 
ENDBRANCH   8  12
ENDBRANCH   4   9
BRANCH   3  19
ATOM     18  O   UNL     1      36.162 -24.996 -15.385  0.00  0.00    -0.270 OA
ATOM     19  N   UNL     1      36.195 -22.655 -15.228  0.00  0.00    -0.278 N 
ATOM     20  C   UNL     1      36.264 -23.957 -14.713  0.00  0.00    +0.254 C 
ATOM     21  H   UNL     1      36.292 -21.930 -14.569  0.00  0.00    +0.155 HD
BRANCH  20  24
ATOM     22  F   UNL     1      38.737 -24.596 -13.555  0.00  0.00    -0.204 F 
ATOM     23  F   UNL     1      34.152 -23.533 -12.916  0.00  0.00    -0.204 F 
ATOM     24  C   UNL     1      36.440 -24.062 -13.273  0.00  0.00    +0.108 C 
ATOM     25  C   UNL     1      37.691 -24.383 -12.745  0.00  0.00    +0.147 C 
ATOM     26  C   UNL     1      35.358 -23.842 -12.420  0.00  0.00    +0.147 C 
ATOM     27  C   UNL     1      37.860 -24.484 -11.364  0.00  0.00    +0.030 C 
ATOM     28  C   UNL     1      35.527 -23.943 -11.039  0.00  0.00    +0.030 C 
ATOM     29  C   UNL     1      36.778 -24.264 -10.511  0.00  0.00    +0.005 C 
ENDBRANCH  20  24
ENDBRANCH   3  19
TORSDOF 4
ENDMDL
MODEL 8
REMARK VINA RESULT:      -9.8      2.662      5.214
REMARK  Name = 24864079
REMARK  4 active torsions:
REMARK  status: ('A' for Active; 'I' for Inactive)
REMARK    1  A    between atoms: C_3  and  N_19
REMARK    2  A    between atoms: C_4  and  C_9
REMARK    3  A    between atoms: N_8  and  C_12
REMARK    4  A    between atoms: C_20  and  C_24
REMARK                            x       y       z     vdW  Elec       q    Type
REMARK                         _______ _______ _______ _____ _____    ______ ____
ROOT
ATOM      1  N   UNL     1      35.198 -21.935 -18.577  0.00  0.00    -0.230 N 
ATOM      2  N   UNL     1      36.359 -21.260 -18.601  0.00  0.00    -0.178 NA
ATOM      3  C   UNL     1      36.005 -22.246 -16.571  0.00  0.00    +0.091 C 
ATOM      4  C   UNL     1      34.938 -22.545 -17.384  0.00  0.00    +0.134 C 
ATOM      5  C   UNL     1      36.848 -21.455 -17.373  0.00  0.00    +0.134 C 
ATOM      6  H   UNL     1      34.590 -21.986 -19.350  0.00  0.00    +0.175 HD
ENDROOT
BRANCH   4   9
ATOM      7  O   UNL     1      33.454 -24.268 -17.870  0.00  0.00    -0.268 OA
ATOM      8  N   UNL     1      33.026 -22.971 -15.962  0.00  0.00    -0.279 N 
ATOM      9  C   UNL     1      33.769 -23.318 -17.114  0.00  0.00    +0.266 C 
ATOM     10  H   UNL     1      33.377 -22.206 -15.451  0.00  0.00    +0.155 HD
BRANCH   8  12
ATOM     11  F   UNL     1      28.430 -25.290 -13.901  0.00  0.00    -0.204 F 
ATOM     12  C   UNL     1      31.852 -23.563 -15.436  0.00  0.00    +0.051 C 
ATOM     13  C   UNL     1      31.949 -24.578 -14.484  0.00  0.00    +0.017 C 
ATOM     14  C   UNL     1      30.598 -23.130 -15.868  0.00  0.00    +0.017 C 
ATOM     15  C   UNL     1      30.794 -25.162 -13.966  0.00  0.00    +0.031 C 
ATOM     16  C   UNL     1      29.442 -23.714 -15.350  0.00  0.00    +0.031 C 
ATOM     17  C   UNL     1      29.540 -24.730 -14.399  0.00  0.00    +0.140 C 
ENDBRANCH   8  12
ENDBRANCH   4   9
BRANCH   3  19
ATOM     18  O   UNL     1      36.162 -24.995 -15.386  0.00  0.00    -0.270 OA
ATOM     19  N   UNL     1      36.196 -22.654 -15.228  0.00  0.00    -0.278 N 
ATOM     20  C   UNL     1      36.264 -23.956 -14.714  0.00  0.00    +0.254 C 
ATOM     21  H   UNL     1      36.293 -21.929 -14.570  0.00  0.00    +0.155 HD
BRANCH  20  24
ATOM     22  F   UNL     1      34.154 -23.531 -12.916  0.00  0.00    -0.204 F 
ATOM     23  F   UNL     1      38.737 -24.596 -13.557  0.00  0.00    -0.204 F 
ATOM     24  C   UNL     1      36.441 -24.061 -13.274  0.00  0.00    +0.108 C 
ATOM     25  C   UNL     1      35.360 -23.840 -12.420  0.00  0.00    +0.147 C 
ATOM     26  C   UNL     1      37.692 -24.382 -12.746  0.00  0.00    +0.147 C 
ATOM     27  C   UNL     1      35.530 -23.940 -11.039  0.00  0.00    +0.030 C 
ATOM     28  C   UNL     1      37.862 -24.482 -11.365  0.00  0.00    +0.030 C 
ATOM     29  C   UNL     1      36.781 -24.261 -10.512  0.00  0.00    +0.005 C 
ENDBRANCH  20  24
ENDBRANCH   3  19
TORSDOF 4
ENDMDL
MODEL 9
REMARK VINA RESULT:      -9.8      7.359     10.338
REMARK  Name = 24864079
REMARK  4 active torsions:
REMARK  status: ('A' for Active; 'I' for Inactive)
REMARK    1  A    between atoms: C_3  and  N_19
REMARK    2  A    between atoms: C_4  and  C_9
REMARK    3  A    between atoms: N_8  and  C_12
REMARK    4  A    between atoms: C_20  and  C_24
REMARK                            x       y       z     vdW  Elec       q    Type
REMARK                         _______ _______ _______ _____ _____    ______ ____
ROOT
ATOM      1  N   UNL     1      35.186 -17.043 -24.147  0.00  0.00    -0.230 N 
ATOM      2  N   UNL     1      34.969 -16.197 -25.166  0.00  0.00    -0.178 NA
ATOM      3  C   UNL     1      34.321 -15.289 -23.173  0.00  0.00    +0.091 C 
ATOM      4  C   UNL     1      34.815 -16.549 -22.930  0.00  0.00    +0.134 C 
ATOM      5  C   UNL     1      34.441 -15.127 -24.565  0.00  0.00    +0.134 C 
ATOM      6  H   UNL     1      35.577 -17.939 -24.265  0.00  0.00    +0.175 HD
ENDROOT
BRANCH   4   9
ATOM      7  O   UNL     1      35.006 -16.634 -20.614  0.00  0.00    -0.268 OA
ATOM      8  N   UNL     1      34.978 -18.671 -21.778  0.00  0.00    -0.279 N 
ATOM      9  C   UNL     1      34.946 -17.260 -21.700  0.00  0.00    +0.266 C 
ATOM     10  H   UNL     1      34.922 -19.043 -22.688  0.00  0.00    +0.155 HD
BRANCH   8  12
ATOM     11  F   UNL     1      35.361 -22.420 -17.709  0.00  0.00    -0.204 F 
ATOM     12  C   UNL     1      35.076 -19.629 -20.739  0.00  0.00    +0.051 C 
ATOM     13  C   UNL     1      36.316 -19.917 -20.170  0.00  0.00    +0.017 C 
ATOM     14  C   UNL     1      33.931 -20.283 -20.284  0.00  0.00    +0.017 C 
ATOM     15  C   UNL     1      36.412 -20.859 -19.147  0.00  0.00    +0.031 C 
ATOM     16  C   UNL     1      34.028 -21.226 -19.260  0.00  0.00    +0.031 C 
ATOM     17  C   UNL     1      35.268 -21.515 -18.692  0.00  0.00    +0.140 C 
ENDBRANCH   8  12
ENDBRANCH   4   9
BRANCH   3  19
ATOM     18  O   UNL     1      31.933 -13.483 -23.311  0.00  0.00    -0.270 OA
ATOM     19  N   UNL     1      33.810 -14.374 -22.220  0.00  0.00    -0.278 N 
ATOM     20  C   UNL     1      32.685 -13.546 -22.324  0.00  0.00    +0.254 C 
ATOM     21  H   UNL     1      34.309 -14.313 -21.374  0.00  0.00    +0.155 HD
BRANCH  20  24
ATOM     22  F   UNL     1      32.682 -14.518 -19.693  0.00  0.00    -0.204 F 
ATOM     23  F   UNL     1      32.149 -10.807 -22.609  0.00  0.00    -0.204 F 
ATOM     24  C   UNL     1      32.422 -12.685 -21.181  0.00  0.00    +0.108 C 
ATOM     25  C   UNL     1      32.432 -13.217 -19.891  0.00  0.00    +0.147 C 
ATOM     26  C   UNL     1      32.160 -11.329 -21.374  0.00  0.00    +0.147 C 
ATOM     27  C   UNL     1      32.180 -12.392 -18.795  0.00  0.00    +0.030 C 
ATOM     28  C   UNL     1      31.908 -10.504 -20.278  0.00  0.00    +0.030 C 
ATOM     29  C   UNL     1      31.918 -11.035 -18.988  0.00  0.00    +0.005 C 
ENDBRANCH  20  24
ENDBRANCH   3  19
TORSDOF 4
ENDMDL
