MODEL 1
REMARK VINA RESULT:     -11.2      0.000      0.000
REMARK  Name = 118513932
REMARK  2 active torsions:
REMARK  status: ('A' for Active; 'I' for Inactive)
REMARK    1  A    between atoms: C_4  and  N_24
REMARK    2  A    between atoms: C_10  and  C_15
REMARK                            x       y       z     vdW  Elec       q    Type
REMARK                         _______ _______ _______ _____ _____    ______ ____
ROOT
ATOM      1  O   UNL     1      32.672 -22.798 -18.172  0.00  0.00    -0.274 OA
ATOM      2  N   UNL     1      34.870 -22.198 -17.596  0.00  0.00    -0.209 N 
ATOM      3  N   UNL     1      36.004 -20.575 -18.931  0.00  0.00    -0.389 NA
ATOM      4  C   UNL     1      35.998 -23.173 -15.709  0.00  0.00    +0.063 C 
ATOM      5  C   UNL     1      34.920 -23.055 -16.502  0.00  0.00    +0.089 C 
ATOM      6  C   UNL     1      37.159 -22.365 -16.018  0.00  0.00    +0.020 C 
ATOM      7  C   UNL     1      37.174 -21.522 -17.056  0.00  0.00    +0.050 C 
ATOM      8  C   UNL     1      35.973 -21.399 -17.927  0.00  0.00    +0.193 C 
ATOM      9  C   UNL     1      33.698 -22.149 -18.362  0.00  0.00    +0.242 C 
ATOM     10  C   UNL     1      34.874 -20.506 -19.696  0.00  0.00    +0.139 C 
ATOM     11  C   UNL     1      33.751 -21.204 -19.502  0.00  0.00    +0.146 C 
ENDROOT
BRANCH  10  15
ATOM     12  N   UNL     1      34.922 -17.577 -21.805  0.00  0.00    -0.178 N 
ATOM     13  N   UNL     1      34.916 -18.294 -20.652  0.00  0.00    -0.173 NA
ATOM     14  N   UNL     1      34.913 -17.086 -23.978  0.00  0.00    -0.392 NA
ATOM     15  C   UNL     1      34.884 -19.584 -20.836  0.00  0.00    +0.124 C 
ATOM     16  C   UNL     1      34.855 -20.251 -22.172  0.00  0.00    +0.023 C 
ATOM     17  C   UNL     1      34.863 -19.484 -23.278  0.00  0.00    +0.025 C 
ATOM     18  C   UNL     1      34.898 -18.068 -23.097  0.00  0.00    +0.198 C 
ATOM     19  C   UNL     1      34.954 -16.211 -21.892  0.00  0.00    +0.173 C 
ATOM     20  C   UNL     1      34.948 -15.933 -23.237  0.00  0.00    +0.111 C 
ATOM     21  C   UNL     1      34.835 -20.134 -24.637  0.00  0.00    +0.035 C 
ATOM     22  C   UNL     1      34.973 -14.620 -23.898  0.00  0.00    +0.063 C 
ENDBRANCH  10  15
BRANCH   4  24
ATOM     23  N   UNL     1      35.955 -25.142 -11.999  0.00  0.00    +0.389 N 
ATOM     24  N   UNL     1      36.062 -24.010 -14.631  0.00  0.00    -0.311 N 
ATOM     25  C   UNL     1      37.103 -24.309 -12.442  0.00  0.00    -0.027 C 
ATOM     26  C   UNL     1      38.327 -24.258 -11.555  0.00  0.00    -0.020 C 
ATOM     27  C   UNL     1      37.431 -23.059 -11.652  0.00  0.00    -0.020 C 
ATOM     28  C   UNL     1      37.325 -24.288 -13.940  0.00  0.00    +0.071 C 
ATOM     29  C   UNL     1      34.735 -24.732 -12.696  0.00  0.00    -0.060 C 
ATOM     30  C   UNL     1      34.915 -24.821 -14.212  0.00  0.00    +0.067 C 
ATOM     31  H   UNL     1      35.824 -25.030 -10.994  0.00  0.00    -0.084 HD
ATOM     32  H   UNL     1      36.150 -26.120 -12.217  0.00  0.00    -0.084 HD
ENDBRANCH   4  24
TORSDOF 2
ENDMDL
MODEL 2
REMARK VINA RESULT:     -10.8      5.840     10.352
REMARK  Name = 118513932
REMARK  2 active torsions:
REMARK  status: ('A' for Active; 'I' for Inactive)
REMARK    1  A    between atoms: C_4  and  N_24
REMARK    2  A    between atoms: C_10  and  C_15
REMARK                            x       y       z     vdW  Elec       q    Type
REMARK                         _______ _______ _______ _____ _____    ______ ____
ROOT
ATOM      1  O   UNL     1      33.405 -14.003 -25.430  0.00  0.00    -0.274 OA
ATOM      2  N   UNL     1      33.833 -14.174 -23.125  0.00  0.00    -0.209 N 
ATOM      3  N   UNL     1      33.387 -12.287 -21.732  0.00  0.00    -0.389 NA
ATOM      4  C   UNL     1      34.705 -16.189 -22.142  0.00  0.00    +0.063 C 
ATOM      5  C   UNL     1      34.285 -15.487 -23.209  0.00  0.00    +0.089 C 
ATOM      6  C   UNL     1      34.682 -15.538 -20.850  0.00  0.00    +0.020 C 
ATOM      7  C   UNL     1      34.259 -14.278 -20.703  0.00  0.00    +0.050 C 
ATOM      8  C   UNL     1      33.795 -13.510 -21.891  0.00  0.00    +0.193 C 
ATOM      9  C   UNL     1      33.417 -13.528 -24.296  0.00  0.00    +0.242 C 
ATOM     10  C   UNL     1      32.975 -11.631 -22.858  0.00  0.00    +0.139 C 
ATOM     11  C   UNL     1      32.954 -12.134 -24.096  0.00  0.00    +0.146 C 
ENDROOT
BRANCH  10  15
ATOM     12  N   UNL     1      31.826  -8.260 -23.440  0.00  0.00    -0.178 N 
ATOM     13  N   UNL     1      32.247  -9.513 -23.748  0.00  0.00    -0.173 NA
ATOM     14  N   UNL     1      31.237  -6.470 -22.251  0.00  0.00    -0.392 NA
ATOM     15  C   UNL     1      32.510 -10.249 -22.705  0.00  0.00    +0.124 C 
ATOM     16  C   UNL     1      32.376  -9.795 -21.288  0.00  0.00    +0.023 C 
ATOM     17  C   UNL     1      31.954  -8.539 -21.049  0.00  0.00    +0.025 C 
ATOM     18  C   UNL     1      31.660  -7.717 -22.179  0.00  0.00    +0.198 C 
ATOM     19  C   UNL     1      31.485  -7.290 -24.345  0.00  0.00    +0.173 C 
ATOM     20  C   UNL     1      31.127  -6.200 -23.591  0.00  0.00    +0.111 C 
ATOM     21  C   UNL     1      31.811  -8.058 -19.628  0.00  0.00    +0.035 C 
ATOM     22  C   UNL     1      30.673  -4.880 -24.053  0.00  0.00    +0.063 C 
ENDBRANCH  10  15
BRANCH   4  24
ATOM     23  N   UNL     1      35.338 -20.337 -22.347  0.00  0.00    +0.389 N 
ATOM     24  N   UNL     1      35.150 -17.478 -22.209  0.00  0.00    -0.311 N 
ATOM     25  C   UNL     1      35.088 -19.634 -21.062  0.00  0.00    -0.027 C 
ATOM     26  C   UNL     1      35.163 -20.442 -19.785  0.00  0.00    -0.020 C 
ATOM     27  C   UNL     1      33.831 -19.974 -20.289  0.00  0.00    -0.020 C 
ATOM     28  C   UNL     1      35.594 -18.207 -21.016  0.00  0.00    +0.071 C 
ATOM     29  C   UNL     1      34.791 -19.559 -23.461  0.00  0.00    -0.060 C 
ATOM     30  C   UNL     1      35.387 -18.151 -23.489  0.00  0.00    +0.067 C 
ATOM     31  H   UNL     1      34.891 -21.253 -22.324  0.00  0.00    -0.084 HD
ATOM     32  H   UNL     1      36.344 -20.444 -22.478  0.00  0.00    -0.084 HD
ENDBRANCH   4  24
TORSDOF 2
ENDMDL
MODEL 3
REMARK VINA RESULT:     -10.1      7.626     14.738
REMARK  Name = 118513932
REMARK  2 active torsions:
REMARK  status: ('A' for Active; 'I' for Inactive)
REMARK    1  A    between atoms: C_4  and  N_24
REMARK    2  A    between atoms: C_10  and  C_15
REMARK                            x       y       z     vdW  Elec       q    Type
REMARK                         _______ _______ _______ _____ _____    ______ ____
ROOT
ATOM      1  O   UNL     1      30.779 -10.379 -20.211  0.00  0.00    -0.274 OA
ATOM      2  N   UNL     1      32.183  -9.489 -21.873  0.00  0.00    -0.209 N 
ATOM      3  N   UNL     1      33.597 -10.974 -23.096  0.00  0.00    -0.389 NA
ATOM      4  C   UNL     1      32.231  -7.135 -22.366  0.00  0.00    +0.063 C 
ATOM      5  C   UNL     1      31.758  -8.181 -21.667  0.00  0.00    +0.089 C 
ATOM      6  C   UNL     1      33.232  -7.395 -23.380  0.00  0.00    +0.020 C 
ATOM      7  C   UNL     1      33.682  -8.630 -23.626  0.00  0.00    +0.050 C 
ATOM      8  C   UNL     1      33.150  -9.780 -22.845  0.00  0.00    +0.193 C 
ATOM      9  C   UNL     1      31.629 -10.510 -21.090  0.00  0.00    +0.242 C 
ATOM     10  C   UNL     1      33.073 -11.990 -22.348  0.00  0.00    +0.139 C 
ATOM     11  C   UNL     1      32.150 -11.864 -21.390  0.00  0.00    +0.146 C 
ENDROOT
BRANCH  10  15
ATOM     12  N   UNL     1      34.588 -15.256 -22.092  0.00  0.00    -0.178 N 
ATOM     13  N   UNL     1      34.202 -14.017 -21.695  0.00  0.00    -0.173 NA
ATOM     14  N   UNL     1      34.887 -17.060 -23.365  0.00  0.00    -0.392 NA
ATOM     15  C   UNL     1      33.563 -13.347 -22.612  0.00  0.00    +0.124 C 
ATOM     16  C   UNL     1      33.263 -13.857 -23.984  0.00  0.00    +0.023 C 
ATOM     17  C   UNL     1      33.674 -15.095 -24.317  0.00  0.00    +0.025 C 
ATOM     18  C   UNL     1      34.375 -15.845 -23.326  0.00  0.00    +0.198 C 
ATOM     19  C   UNL     1      35.271 -16.161 -21.324  0.00  0.00    +0.173 C 
ATOM     20  C   UNL     1      35.443 -17.261 -22.128  0.00  0.00    +0.111 C 
ATOM     21  C   UNL     1      33.383 -15.632 -25.695  0.00  0.00    +0.035 C 
ATOM     22  C   UNL     1      36.114 -18.530 -21.807  0.00  0.00    +0.063 C 
ENDBRANCH  10  15
BRANCH   4  24
ATOM     23  N   UNL     1      30.379  -3.369 -22.208  0.00  0.00    +0.389 N 
ATOM     24  N   UNL     1      31.823  -5.847 -22.176  0.00  0.00    -0.311 N 
ATOM     25  C   UNL     1      31.239  -3.783 -23.346  0.00  0.00    -0.027 C 
ATOM     26  C   UNL     1      31.522  -2.765 -24.429  0.00  0.00    -0.020 C 
ATOM     27  C   UNL     1      30.605  -3.916 -24.715  0.00  0.00    -0.020 C 
ATOM     28  C   UNL     1      32.355  -4.739 -22.977  0.00  0.00    +0.071 C 
ATOM     29  C   UNL     1      29.843  -4.548 -21.525  0.00  0.00    -0.060 C 
ATOM     30  C   UNL     1      30.972  -5.462 -21.046  0.00  0.00    +0.067 C 
ATOM     31  H   UNL     1      29.607  -2.801 -22.556  0.00  0.00    -0.084 HD
ATOM     32  H   UNL     1      30.938  -2.827 -21.548  0.00  0.00    -0.084 HD
ENDBRANCH   4  24
TORSDOF 2
ENDMDL
MODEL 4
REMARK VINA RESULT:      -9.8      6.128     11.035
REMARK  Name = 118513932
REMARK  2 active torsions:
REMARK  status: ('A' for Active; 'I' for Inactive)
REMARK    1  A    between atoms: C_4  and  N_24
REMARK    2  A    between atoms: C_10  and  C_15
REMARK                            x       y       z     vdW  Elec       q    Type
REMARK                         _______ _______ _______ _____ _____    ______ ____
ROOT
ATOM      1  O   UNL     1      33.067 -13.740 -20.028  0.00  0.00    -0.274 OA
ATOM      2  N   UNL     1      33.484 -13.753 -22.341  0.00  0.00    -0.209 N 
ATOM      3  N   UNL     1      33.091 -11.756 -23.589  0.00  0.00    -0.389 NA
ATOM      4  C   UNL     1      34.291 -15.716 -23.474  0.00  0.00    +0.063 C 
ATOM      5  C   UNL     1      33.896 -15.081 -22.356  0.00  0.00    +0.089 C 
ATOM      6  C   UNL     1      34.282 -14.971 -24.715  0.00  0.00    +0.020 C 
ATOM      7  C   UNL     1      33.896 -13.692 -24.767  0.00  0.00    +0.050 C 
ATOM      8  C   UNL     1      33.462 -12.999 -23.522  0.00  0.00    +0.193 C 
ATOM      9  C   UNL     1      33.091 -13.183 -21.123  0.00  0.00    +0.242 C 
ATOM     10  C   UNL     1      32.702 -11.173 -22.416  0.00  0.00    +0.139 C 
ATOM     11  C   UNL     1      32.672 -11.765 -21.218  0.00  0.00    +0.146 C 
ENDROOT
BRANCH  10  15
ATOM     12  N   UNL     1      31.611  -7.901 -23.478  0.00  0.00    -0.178 N 
ATOM     13  N   UNL     1      31.988  -9.200 -23.600  0.00  0.00    -0.173 NA
ATOM     14  N   UNL     1      31.116  -5.930 -22.565  0.00  0.00    -0.392 NA
ATOM     15  C   UNL     1      32.278  -9.771 -22.465  0.00  0.00    +0.124 C 
ATOM     16  C   UNL     1      32.215  -9.096 -21.133  0.00  0.00    +0.023 C 
ATOM     17  C   UNL     1      31.834  -7.806 -21.080  0.00  0.00    +0.025 C 
ATOM     18  C   UNL     1      31.512  -7.163 -22.313  0.00  0.00    +0.198 C 
ATOM     19  C   UNL     1      31.255  -7.076 -24.511  0.00  0.00    +0.173 C 
ATOM     20  C   UNL     1      30.955  -5.870 -23.925  0.00  0.00    +0.111 C 
ATOM     21  C   UNL     1      31.764  -7.104 -19.748  0.00  0.00    +0.035 C 
ATOM     22  C   UNL     1      30.514  -4.626 -24.572  0.00  0.00    +0.063 C 
ENDBRANCH  10  15
BRANCH   4  24
ATOM     23  N   UNL     1      34.881 -19.867 -23.230  0.00  0.00    +0.389 N 
ATOM     24  N   UNL     1      34.699 -17.018 -23.505  0.00  0.00    -0.311 N 
ATOM     25  C   UNL     1      35.178 -18.956 -22.095  0.00  0.00    -0.027 C 
ATOM     26  C   UNL     1      35.803 -19.549 -20.852  0.00  0.00    -0.020 C 
ATOM     27  C   UNL     1      34.371 -19.105 -20.822  0.00  0.00    -0.020 C 
ATOM     28  C   UNL     1      35.620 -17.565 -22.504  0.00  0.00    +0.071 C 
ATOM     29  C   UNL     1      33.897 -19.255 -24.125  0.00  0.00    -0.060 C 
ATOM     30  C   UNL     1      34.391 -17.900 -24.635  0.00  0.00    +0.067 C 
ATOM     31  H   UNL     1      34.508 -20.745 -22.870  0.00  0.00    -0.084 HD
ATOM     32  H   UNL     1      35.741 -20.043 -23.750  0.00  0.00    -0.084 HD
ENDBRANCH   4  24
TORSDOF 2
ENDMDL
MODEL 5
REMARK VINA RESULT:      -9.7      1.396      1.943
REMARK  Name = 118513932
REMARK  2 active torsions:
REMARK  status: ('A' for Active; 'I' for Inactive)
REMARK    1  A    between atoms: C_4  and  N_24
REMARK    2  A    between atoms: C_10  and  C_15
REMARK                            x       y       z     vdW  Elec       q    Type
REMARK                         _______ _______ _______ _____ _____    ______ ____
ROOT
ATOM      1  O   UNL     1      37.812 -20.857 -17.220  0.00  0.00    -0.274 OA
ATOM      2  N   UNL     1      35.686 -21.818 -17.506  0.00  0.00    -0.209 N 
ATOM      3  N   UNL     1      34.355 -21.128 -19.365  0.00  0.00    -0.389 NA
ATOM      4  C   UNL     1      34.823 -23.466 -15.981  0.00  0.00    +0.063 C 
ATOM      5  C   UNL     1      35.793 -22.624 -16.378  0.00  0.00    +0.089 C 
ATOM      6  C   UNL     1      33.613 -23.528 -16.774  0.00  0.00    +0.020 C 
ATOM      7  C   UNL     1      33.449 -22.778 -17.868  0.00  0.00    +0.050 C 
ATOM      8  C   UNL     1      34.530 -21.850 -18.298  0.00  0.00    +0.193 C 
ATOM      9  C   UNL     1      36.753 -20.973 -17.834  0.00  0.00    +0.242 C 
ATOM     10  C   UNL     1      35.381 -20.294 -19.710  0.00  0.00    +0.139 C 
ATOM     11  C   UNL     1      36.537 -20.158 -19.053  0.00  0.00    +0.146 C 
ENDROOT
BRANCH  10  15
ATOM     12  N   UNL     1      35.042 -17.547 -22.027  0.00  0.00    -0.178 N 
ATOM     13  N   UNL     1      35.212 -18.168 -20.831  0.00  0.00    -0.173 NA
ATOM     14  N   UNL     1      34.734 -17.236 -24.211  0.00  0.00    -0.392 NA
ATOM     15  C   UNL     1      35.208 -19.469 -20.909  0.00  0.00    +0.124 C 
ATOM     16  C   UNL     1      35.034 -20.244 -22.175  0.00  0.00    +0.023 C 
ATOM     17  C   UNL     1      34.869 -19.569 -23.328  0.00  0.00    +0.025 C 
ATOM     18  C   UNL     1      34.871 -18.143 -23.263  0.00  0.00    +0.198 C 
ATOM     19  C   UNL     1      35.008 -16.192 -22.223  0.00  0.00    +0.173 C 
ATOM     20  C   UNL     1      34.818 -16.026 -23.573  0.00  0.00    +0.111 C 
ATOM     21  C   UNL     1      34.692 -20.329 -24.617  0.00  0.00    +0.035 C 
ATOM     22  C   UNL     1      34.706 -14.771 -24.330  0.00  0.00    +0.063 C 
ENDBRANCH  10  15
BRANCH   4  24
ATOM     23  N   UNL     1      35.489 -25.342 -12.283  0.00  0.00    +0.389 N 
ATOM     24  N   UNL     1      34.914 -24.264 -14.877  0.00  0.00    -0.311 N 
ATOM     25  C   UNL     1      36.500 -25.353 -13.371  0.00  0.00    -0.027 C 
ATOM     26  C   UNL     1      37.766 -26.153 -13.157  0.00  0.00    -0.020 C 
ATOM     27  C   UNL     1      37.822 -24.654 -13.132  0.00  0.00    -0.020 C 
ATOM     28  C   UNL     1      35.919 -25.327 -14.770  0.00  0.00    +0.071 C 
ATOM     29  C   UNL     1      34.585 -24.202 -12.445  0.00  0.00    -0.060 C 
ATOM     30  C   UNL     1      33.905 -24.234 -13.814  0.00  0.00    +0.067 C 
ATOM     31  H   UNL     1      35.963 -25.271 -11.383  0.00  0.00    -0.084 HD
ATOM     32  H   UNL     1      34.947 -26.205 -12.323  0.00  0.00    -0.084 HD
ENDBRANCH   4  24
TORSDOF 2
ENDMDL
MODEL 6
REMARK VINA RESULT:      -9.3      6.588     13.881
REMARK  Name = 118513932
REMARK  2 active torsions:
REMARK  status: ('A' for Active; 'I' for Inactive)
REMARK    1  A    between atoms: C_4  and  N_24
REMARK    2  A    between atoms: C_10  and  C_15
REMARK                            x       y       z     vdW  Elec       q    Type
REMARK                         _______ _______ _______ _____ _____    ______ ____
ROOT
ATOM      1  O   UNL     1      30.554 -11.525 -21.813  0.00  0.00    -0.274 OA
ATOM      2  N   UNL     1      32.492 -10.743 -22.888  0.00  0.00    -0.209 N 
ATOM      3  N   UNL     1      34.273 -12.279 -23.303  0.00  0.00    -0.389 NA
ATOM      4  C   UNL     1      32.725  -8.450 -23.575  0.00  0.00    +0.063 C 
ATOM      5  C   UNL     1      32.019  -9.441 -23.005  0.00  0.00    +0.089 C 
ATOM      6  C   UNL     1      34.041  -8.764 -24.089  0.00  0.00    +0.020 C 
ATOM      7  C   UNL     1      34.553  -9.997 -24.008  0.00  0.00    +0.050 C 
ATOM      8  C   UNL     1      33.761 -11.087 -23.375  0.00  0.00    +0.193 C 
ATOM      9  C   UNL     1      31.678 -11.705 -22.276  0.00  0.00    +0.242 C 
ATOM     10  C   UNL     1      33.501 -13.238 -22.712  0.00  0.00    +0.139 C 
ATOM     11  C   UNL     1      32.277 -13.059 -22.205  0.00  0.00    +0.146 C 
ENDROOT
BRANCH  10  15
ATOM     12  N   UNL     1      35.059 -16.292 -21.584  0.00  0.00    -0.178 N 
ATOM     13  N   UNL     1      34.592 -15.019 -21.510  0.00  0.00    -0.173 NA
ATOM     14  N   UNL     1      35.565 -18.304 -22.395  0.00  0.00    -0.392 NA
ATOM     15  C   UNL     1      34.056 -14.592 -22.619  0.00  0.00    +0.124 C 
ATOM     16  C   UNL     1      33.945 -15.394 -23.874  0.00  0.00    +0.023 C 
ATOM     17  C   UNL     1      34.428 -16.651 -23.883  0.00  0.00    +0.025 C 
ATOM     18  C   UNL     1      35.019 -17.137 -22.678  0.00  0.00    +0.198 C 
ATOM     19  C   UNL     1      35.665 -16.978 -20.565  0.00  0.00    +0.173 C 
ATOM     20  C   UNL     1      35.966 -18.212 -21.088  0.00  0.00    +0.111 C 
ATOM     21  C   UNL     1      34.328 -17.479 -25.137  0.00  0.00    +0.035 C 
ATOM     22  C   UNL     1      36.626 -19.346 -20.425  0.00  0.00    +0.063 C 
ENDBRANCH  10  15
BRANCH   4  24
ATOM     23  N   UNL     1      31.941  -4.323 -23.528  0.00  0.00    +0.389 N 
ATOM     24  N   UNL     1      32.273  -7.167 -23.697  0.00  0.00    -0.311 N 
ATOM     25  C   UNL     1      31.528  -5.223 -22.419  0.00  0.00    -0.027 C 
ATOM     26  C   UNL     1      30.714  -4.630 -21.290  0.00  0.00    -0.020 C 
ATOM     27  C   UNL     1      32.145  -5.010 -21.053  0.00  0.00    -0.020 C 
ATOM     28  C   UNL     1      31.202  -6.639 -22.846  0.00  0.00    +0.071 C 
ATOM     29  C   UNL     1      33.062  -4.912 -24.264  0.00  0.00    -0.060 C 
ATOM     30  C   UNL     1      32.697  -6.297 -24.798  0.00  0.00    +0.067 C 
ATOM     31  H   UNL     1      32.225  -3.423 -23.144  0.00  0.00    -0.084 HD
ATOM     32  H   UNL     1      31.154  -4.197 -24.165  0.00  0.00    -0.084 HD
ENDBRANCH   4  24
TORSDOF 2
ENDMDL
MODEL 7
REMARK VINA RESULT:      -9.0      8.488     16.325
REMARK  Name = 118513932
REMARK  2 active torsions:
REMARK  status: ('A' for Active; 'I' for Inactive)
REMARK    1  A    between atoms: C_4  and  N_24
REMARK    2  A    between atoms: C_10  and  C_15
REMARK                            x       y       z     vdW  Elec       q    Type
REMARK                         _______ _______ _______ _____ _____    ______ ____
ROOT
ATOM      1  O   UNL     1      30.103  -8.498 -23.244  0.00  0.00    -0.274 OA
ATOM      2  N   UNL     1      32.377  -7.993 -23.561  0.00  0.00    -0.209 N 
ATOM      3  N   UNL     1      33.994  -9.715 -23.211  0.00  0.00    -0.389 NA
ATOM      4  C   UNL     1      33.110  -5.800 -24.224  0.00  0.00    +0.063 C 
ATOM      5  C   UNL     1      32.134  -6.669 -23.908  0.00  0.00    +0.089 C 
ATOM      6  C   UNL     1      34.477  -6.278 -24.198  0.00  0.00    +0.020 C 
ATOM      7  C   UNL     1      34.776  -7.540 -23.872  0.00  0.00    +0.050 C 
ATOM      8  C   UNL     1      33.687  -8.493 -23.525  0.00  0.00    +0.193 C 
ATOM      9  C   UNL     1      31.290  -8.819 -23.248  0.00  0.00    +0.242 C 
ATOM     10  C   UNL     1      32.953 -10.544 -22.901  0.00  0.00    +0.139 C 
ATOM     11  C   UNL     1      31.659 -10.210 -22.893  0.00  0.00    +0.146 C 
ENDROOT
BRANCH  10  15
ATOM     12  N   UNL     1      34.229 -13.920 -22.846  0.00  0.00    -0.178 N 
ATOM     13  N   UNL     1      34.023 -12.663 -23.317  0.00  0.00    -0.173 NA
ATOM     14  N   UNL     1      34.137 -15.716 -21.531  0.00  0.00    -0.392 NA
ATOM     15  C   UNL     1      33.274 -11.929 -22.542  0.00  0.00    +0.124 C 
ATOM     16  C   UNL     1      32.679 -12.388 -21.251  0.00  0.00    +0.023 C 
ATOM     17  C   UNL     1      32.921 -13.647 -20.840  0.00  0.00    +0.025 C 
ATOM     18  C   UNL     1      33.738 -14.467 -21.674  0.00  0.00    +0.198 C 
ATOM     19  C   UNL     1      34.975 -14.888 -23.463  0.00  0.00    +0.173 C 
ATOM     20  C   UNL     1      34.904 -15.982 -22.636  0.00  0.00    +0.111 C 
ATOM     21  C   UNL     1      32.331 -14.133 -19.541  0.00  0.00    +0.035 C 
ATOM     22  C   UNL     1      35.524 -17.303 -22.815  0.00  0.00    +0.063 C 
ENDBRANCH  10  15
BRANCH   4  24
ATOM     23  N   UNL     1      31.799  -2.062 -25.620  0.00  0.00    +0.389 N 
ATOM     24  N   UNL     1      32.887  -4.498 -24.568  0.00  0.00    -0.311 N 
ATOM     25  C   UNL     1      32.575  -2.999 -26.472  0.00  0.00    -0.027 C 
ATOM     26  C   UNL     1      32.980  -2.534 -27.853  0.00  0.00    -0.020 C 
ATOM     27  C   UNL     1      31.908  -3.572 -27.705  0.00  0.00    -0.020 C 
ATOM     28  C   UNL     1      33.554  -3.874 -25.715  0.00  0.00    +0.071 C 
ATOM     29  C   UNL     1      31.116  -2.797 -24.553  0.00  0.00    -0.060 C 
ATOM     30  C   UNL     1      32.115  -3.592 -23.712  0.00  0.00    +0.067 C 
ATOM     31  H   UNL     1      31.108  -1.579 -26.192  0.00  0.00    -0.084 HD
ATOM     32  H   UNL     1      32.438  -1.385 -25.201  0.00  0.00    -0.084 HD
ENDBRANCH   4  24
TORSDOF 2
ENDMDL
MODEL 8
REMARK VINA RESULT:      -9.0      8.204     15.439
REMARK  Name = 118513932
REMARK  2 active torsions:
REMARK  status: ('A' for Active; 'I' for Inactive)
REMARK    1  A    between atoms: C_4  and  N_24
REMARK    2  A    between atoms: C_10  and  C_15
REMARK                            x       y       z     vdW  Elec       q    Type
REMARK                         _______ _______ _______ _____ _____    ______ ____
ROOT
ATOM      1  O   UNL     1      35.656  -8.473 -23.937  0.00  0.00    -0.274 OA
ATOM      2  N   UNL     1      33.330  -8.749 -23.737  0.00  0.00    -0.209 N 
ATOM      3  N   UNL     1      32.463 -10.942 -23.359  0.00  0.00    -0.389 NA
ATOM      4  C   UNL     1      31.813  -6.890 -23.903  0.00  0.00    +0.063 C 
ATOM      5  C   UNL     1      33.058  -7.397 -23.914  0.00  0.00    +0.089 C 
ATOM      6  C   UNL     1      30.710  -7.805 -23.695  0.00  0.00    +0.020 C 
ATOM      7  C   UNL     1      30.906  -9.116 -23.519  0.00  0.00    +0.050 C 
ATOM      8  C   UNL     1      32.289  -9.666 -23.532  0.00  0.00    +0.193 C 
ATOM      9  C   UNL     1      34.663  -9.178 -23.766  0.00  0.00    +0.242 C 
ATOM     10  C   UNL     1      33.754 -11.389 -23.383  0.00  0.00    +0.139 C 
ATOM     11  C   UNL     1      34.843 -10.636 -23.566  0.00  0.00    +0.146 C 
ENDROOT
BRANCH  10  15
ATOM     12  N   UNL     1      34.171 -14.942 -23.860  0.00  0.00    -0.178 N 
ATOM     13  N   UNL     1      33.945 -13.648 -24.201  0.00  0.00    -0.173 NA
ATOM     14  N   UNL     1      34.592 -16.752 -22.631  0.00  0.00    -0.392 NA
ATOM     15  C   UNL     1      33.976 -12.825 -23.190  0.00  0.00    +0.124 C 
ATOM     16  C   UNL     1      34.233 -13.228 -21.774  0.00  0.00    +0.023 C 
ATOM     17  C   UNL     1      34.449 -14.529 -21.502  0.00  0.00    +0.025 C 
ATOM     18  C   UNL     1      34.419 -15.445 -22.595  0.00  0.00    +0.198 C 
ATOM     19  C   UNL     1      34.192 -16.002 -24.728  0.00  0.00    +0.173 C 
ATOM     20  C   UNL     1      34.453 -17.102 -23.949  0.00  0.00    +0.111 C 
ATOM     21  C   UNL     1      34.709 -14.959 -20.081  0.00  0.00    +0.035 C 
ATOM     22  C   UNL     1      34.586 -18.505 -24.368  0.00  0.00    +0.063 C 
ENDBRANCH  10  15
BRANCH   4  24
ATOM     23  N   UNL     1      31.572  -2.698 -24.025  0.00  0.00    +0.389 N 
ATOM     24  N   UNL     1      31.530  -5.566 -24.075  0.00  0.00    -0.311 N 
ATOM     25  C   UNL     1      31.064  -3.489 -22.874  0.00  0.00    -0.027 C 
ATOM     26  C   UNL     1      30.353  -2.749 -21.763  0.00  0.00    -0.020 C 
ATOM     27  C   UNL     1      31.726  -3.303 -21.525  0.00  0.00    -0.020 C 
ATOM     28  C   UNL     1      30.549  -4.868 -23.236  0.00  0.00    +0.071 C 
ATOM     29  C   UNL     1      32.595  -3.458 -24.746  0.00  0.00    -0.060 C 
ATOM     30  C   UNL     1      32.045  -4.805 -25.217  0.00  0.00    +0.067 C 
ATOM     31  H   UNL     1      31.977  -1.828 -23.683  0.00  0.00    -0.084 HD
ATOM     32  H   UNL     1      30.799  -2.497 -24.658  0.00  0.00    -0.084 HD
ENDBRANCH   4  24
TORSDOF 2
ENDMDL
MODEL 9
REMARK VINA RESULT:      -8.9      8.332     15.616
REMARK  Name = 118513932
REMARK  2 active torsions:
REMARK  status: ('A' for Active; 'I' for Inactive)
REMARK    1  A    between atoms: C_4  and  N_24
REMARK    2  A    between atoms: C_10  and  C_15
REMARK                            x       y       z     vdW  Elec       q    Type
REMARK                         _______ _______ _______ _____ _____    ______ ____
ROOT
ATOM      1  O   UNL     1      35.678  -8.059 -23.935  0.00  0.00    -0.274 OA
ATOM      2  N   UNL     1      33.494  -8.257 -23.088  0.00  0.00    -0.209 N 
ATOM      3  N   UNL     1      32.614 -10.439 -22.682  0.00  0.00    -0.389 NA
ATOM      4  C   UNL     1      32.133  -6.328 -22.624  0.00  0.00    +0.063 C 
ATOM      5  C   UNL     1      33.282  -6.883 -23.049  0.00  0.00    +0.089 C 
ATOM      6  C   UNL     1      31.073  -7.213 -22.190  0.00  0.00    +0.020 C 
ATOM      7  C   UNL     1      31.215  -8.543 -22.204  0.00  0.00    +0.050 C 
ATOM      8  C   UNL     1      32.492  -9.145 -22.675  0.00  0.00    +0.193 C 
ATOM      9  C   UNL     1      34.727  -8.736 -23.548  0.00  0.00    +0.242 C 
ATOM     10  C   UNL     1      33.807 -10.935 -23.126  0.00  0.00    +0.139 C 
ATOM     11  C   UNL     1      34.849 -10.213 -23.549  0.00  0.00    +0.146 C 
ENDROOT
BRANCH  10  15
ATOM     12  N   UNL     1      34.564 -14.365 -22.294  0.00  0.00    -0.178 N 
ATOM     13  N   UNL     1      34.482 -13.020 -22.124  0.00  0.00    -0.173 NA
ATOM     14  N   UNL     1      34.399 -16.382 -23.224  0.00  0.00    -0.392 NA
ATOM     15  C   UNL     1      33.970 -12.392 -23.144  0.00  0.00    +0.124 C 
ATOM     16  C   UNL     1      33.505 -13.051 -24.402  0.00  0.00    +0.023 C 
ATOM     17  C   UNL     1      33.614 -14.389 -24.509  0.00  0.00    +0.025 C 
ATOM     18  C   UNL     1      34.173 -15.095 -23.401  0.00  0.00    +0.198 C 
ATOM     19  C   UNL     1      35.062 -15.254 -21.378  0.00  0.00    +0.173 C 
ATOM     20  C   UNL     1      34.949 -16.486 -21.973  0.00  0.00    +0.111 C 
ATOM     21  C   UNL     1      33.152 -15.076 -25.768  0.00  0.00    +0.035 C 
ATOM     22  C   UNL     1      35.333 -17.798 -21.432  0.00  0.00    +0.063 C 
ENDBRANCH  10  15
BRANCH   4  24
ATOM     23  N   UNL     1      30.741  -2.366 -22.697  0.00  0.00    +0.389 N 
ATOM     24  N   UNL     1      31.910  -4.982 -22.579  0.00  0.00    -0.311 N 
ATOM     25  C   UNL     1      31.205  -3.067 -23.922  0.00  0.00    -0.027 C 
ATOM     26  C   UNL     1      31.261  -2.279 -25.212  0.00  0.00    -0.020 C 
ATOM     27  C   UNL     1      30.202  -3.324 -25.027  0.00  0.00    -0.020 C 
ATOM     28  C   UNL     1      32.290  -4.096 -23.685  0.00  0.00    +0.071 C 
ATOM     29  C   UNL     1      30.317  -3.340 -21.689  0.00  0.00    -0.060 C 
ATOM     30  C   UNL     1      31.449  -4.313 -21.359  0.00  0.00    +0.067 C 
ATOM     31  H   UNL     1      29.955  -1.760 -22.931  0.00  0.00    -0.084 HD
ATOM     32  H   UNL     1      31.508  -1.810 -22.320  0.00  0.00    -0.084 HD
ENDBRANCH   4  24
TORSDOF 2
ENDMDL
