MODEL 1
REMARK VINA RESULT:     -10.9      0.000      0.000
REMARK  Name = 16750059
REMARK  4 active torsions:
REMARK  status: ('A' for Active; 'I' for Inactive)
REMARK    1  A    between atoms: C_4  and  C_15
REMARK    2  A    between atoms: C_5  and  N_31
REMARK    3  A    between atoms: C_10  and  C_21
REMARK    4  A    between atoms: C_24  and  S_27
REMARK                            x       y       z     vdW  Elec       q    Type
REMARK                         _______ _______ _______ _____ _____    ______ ____
ROOT
ATOM      1  N   UNL     1      32.249 -10.097 -22.520  0.00  0.00    -0.298 N 
ATOM      2  N   UNL     1      31.213  -8.015 -22.195  0.00  0.00    -0.234 NA
ATOM      3  N   UNL     1      31.922  -6.123 -23.508  0.00  0.00    -0.248 NA
ATOM      4  C   UNL     1      33.173 -12.256 -22.245  0.00  0.00    +0.026 C 
ATOM      5  C   UNL     1      31.721 -12.256 -21.739  0.00  0.00    -0.040 C 
ATOM      6  C   UNL     1      33.204 -11.009 -23.151  0.00  0.00    +0.094 C 
ATOM      7  C   UNL     1      31.454 -10.766 -21.491  0.00  0.00    +0.070 C 
ATOM      8  C   UNL     1      32.130  -8.761 -22.843  0.00  0.00    +0.111 C 
ATOM      9  C   UNL     1      32.968  -8.268 -23.822  0.00  0.00    +0.106 C 
ATOM     10  C   UNL     1      32.817  -6.928 -24.116  0.00  0.00    +0.063 C 
ATOM     11  C   UNL     1      31.163  -6.722 -22.571  0.00  0.00    +0.251 C 
ENDROOT
BRANCH   4  15
ATOM     12  F   UNL     1      34.906 -14.151 -21.042  0.00  0.00    -0.204 F 
ATOM     13  F   UNL     1      33.164 -15.237 -26.112  0.00  0.00    -0.202 F 
ATOM     14  F   UNL     1      34.840 -16.980 -24.834  0.00  0.00    -0.202 F 
ATOM     15  C   UNL     1      33.621 -13.522 -22.936  0.00  0.00    +0.007 C 
ATOM     16  C   UNL     1      34.476 -14.411 -22.285  0.00  0.00    +0.138 C 
ATOM     17  C   UNL     1      33.178 -13.801 -24.228  0.00  0.00    +0.030 C 
ATOM     18  C   UNL     1      33.589 -14.969 -24.870  0.00  0.00    +0.167 C 
ATOM     19  C   UNL     1      34.887 -15.580 -22.925  0.00  0.00    +0.061 C 
ATOM     20  C   UNL     1      34.444 -15.859 -24.218  0.00  0.00    +0.170 C 
ENDBRANCH   4  15
BRANCH  10  21
ATOM     21  C   UNL     1      33.632  -6.288 -25.121  0.00  0.00    +0.015 C 
ATOM     22  C   UNL     1      33.115  -6.055 -26.396  0.00  0.00    +0.020 C 
ATOM     23  C   UNL     1      34.937  -5.902 -24.818  0.00  0.00    +0.001 C 
ATOM     24  C   UNL     1      33.903  -5.437 -27.367  0.00  0.00    +0.106 C 
ATOM     25  C   UNL     1      35.209  -5.052 -27.063  0.00  0.00    +0.018 C 
ATOM     26  C   UNL     1      35.726  -5.285 -25.789  0.00  0.00    +0.001 C 
BRANCH  24  27
ATOM     27  S   UNL     1      33.258  -5.149 -28.963  0.00  0.00    +0.010 S 
ATOM     28  O   UNL     1      33.129  -6.434 -29.635  0.00  0.00    -0.169 OA
ATOM     29  O   UNL     1      32.101  -4.272 -28.853  0.00  0.00    -0.169 OA
ATOM     30  C   UNL     1      34.531  -4.224 -29.793  0.00  0.00    +0.182 C 
ENDBRANCH  24  27
ENDBRANCH  10  21
BRANCH   5  31
ATOM     31  N   UNL     1      31.536 -13.050 -20.533  0.00  0.00    +0.383 N 
ATOM     32  H   UNL     1      31.725 -12.473 -19.714  0.00  0.00    -0.089 HD
ATOM     33  H   UNL     1      32.177 -13.843 -20.548  0.00  0.00    -0.089 HD
ATOM     34  H   UNL     1      30.575 -13.391 -20.495  0.00  0.00    -0.089 HD
ENDBRANCH   5  31
TORSDOF 4
ENDMDL
MODEL 2
REMARK VINA RESULT:     -10.5      1.455      1.638
REMARK  Name = 16750059
REMARK  4 active torsions:
REMARK  status: ('A' for Active; 'I' for Inactive)
REMARK    1  A    between atoms: C_4  and  C_15
REMARK    2  A    between atoms: C_5  and  N_31
REMARK    3  A    between atoms: C_10  and  C_21
REMARK    4  A    between atoms: C_24  and  S_27
REMARK                            x       y       z     vdW  Elec       q    Type
REMARK                         _______ _______ _______ _____ _____    ______ ____
ROOT
ATOM      1  N   UNL     1      32.489 -10.921 -21.560  0.00  0.00    -0.298 N 
ATOM      2  N   UNL     1      31.500  -8.930 -20.804  0.00  0.00    -0.234 NA
ATOM      3  N   UNL     1      32.043  -6.851 -21.895  0.00  0.00    -0.248 NA
ATOM      4  C   UNL     1      33.440 -13.079 -21.724  0.00  0.00    +0.026 C 
ATOM      5  C   UNL     1      32.061 -13.181 -21.052  0.00  0.00    -0.040 C 
ATOM      6  C   UNL     1      33.360 -11.712 -22.431  0.00  0.00    +0.094 C 
ATOM      7  C   UNL     1      31.826 -11.750 -20.554  0.00  0.00    +0.070 C 
ATOM      8  C   UNL     1      32.332  -9.554 -21.662  0.00  0.00    +0.111 C 
ATOM      9  C   UNL     1      33.043  -8.906 -22.651  0.00  0.00    +0.106 C 
ATOM     10  C   UNL     1      32.857  -7.540 -22.721  0.00  0.00    +0.063 C 
ATOM     11  C   UNL     1      31.404  -7.597 -20.974  0.00  0.00    +0.251 C 
ENDROOT
BRANCH   4  15
ATOM     12  F   UNL     1      35.110 -15.236 -20.945  0.00  0.00    -0.204 F 
ATOM     13  F   UNL     1      33.159 -15.317 -26.055  0.00  0.00    -0.202 F 
ATOM     14  F   UNL     1      34.781 -17.335 -25.173  0.00  0.00    -0.202 F 
ATOM     15  C   UNL     1      33.801 -14.220 -22.646  0.00  0.00    +0.007 C 
ATOM     16  C   UNL     1      34.628 -15.249 -22.197  0.00  0.00    +0.138 C 
ATOM     17  C   UNL     1      33.305 -14.243 -23.949  0.00  0.00    +0.030 C 
ATOM     18  C   UNL     1      33.635 -15.295 -24.803  0.00  0.00    +0.167 C 
ATOM     19  C   UNL     1      34.959 -16.302 -23.050  0.00  0.00    +0.061 C 
ATOM     20  C   UNL     1      34.463 -16.325 -24.353  0.00  0.00    +0.170 C 
ENDBRANCH   4  15
BRANCH  10  21
ATOM     21  C   UNL     1      33.544  -6.743 -23.709  0.00  0.00    +0.015 C 
ATOM     22  C   UNL     1      32.822  -5.875 -24.530  0.00  0.00    +0.020 C 
ATOM     23  C   UNL     1      34.928  -6.839 -23.844  0.00  0.00    +0.001 C 
ATOM     24  C   UNL     1      33.485  -5.106 -25.487  0.00  0.00    +0.106 C 
ATOM     25  C   UNL     1      34.870  -5.204 -25.621  0.00  0.00    +0.018 C 
ATOM     26  C   UNL     1      35.592  -6.071 -24.800  0.00  0.00    +0.001 C 
BRANCH  24  27
ATOM     27  S   UNL     1      32.583  -4.024 -26.516  0.00  0.00    +0.010 S 
ATOM     28  O   UNL     1      32.652  -4.536 -27.878  0.00  0.00    -0.169 OA
ATOM     29  O   UNL     1      31.286  -3.763 -25.907  0.00  0.00    -0.169 OA
ATOM     30  C   UNL     1      33.496  -2.498 -26.461  0.00  0.00    +0.182 C 
ENDBRANCH  24  27
ENDBRANCH  10  21
BRANCH   5  31
ATOM     31  N   UNL     1      32.025 -14.149 -19.966  0.00  0.00    +0.383 N 
ATOM     32  H   UNL     1      32.079 -15.093 -20.350  0.00  0.00    -0.089 HD
ATOM     33  H   UNL     1      31.154 -14.043 -19.445  0.00  0.00    -0.089 HD
ATOM     34  H   UNL     1      32.816 -13.990 -19.342  0.00  0.00    -0.089 HD
ENDBRANCH   5  31
TORSDOF 4
ENDMDL
MODEL 3
REMARK VINA RESULT:     -10.2      0.756      1.504
REMARK  Name = 16750059
REMARK  4 active torsions:
REMARK  status: ('A' for Active; 'I' for Inactive)
REMARK    1  A    between atoms: C_4  and  C_15
REMARK    2  A    between atoms: C_5  and  N_31
REMARK    3  A    between atoms: C_10  and  C_21
REMARK    4  A    between atoms: C_24  and  S_27
REMARK                            x       y       z     vdW  Elec       q    Type
REMARK                         _______ _______ _______ _____ _____    ______ ____
ROOT
ATOM      1  N   UNL     1      32.341 -10.358 -22.452  0.00  0.00    -0.298 N 
ATOM      2  N   UNL     1      31.303  -8.288 -22.062  0.00  0.00    -0.234 NA
ATOM      3  N   UNL     1      32.006  -6.357 -23.320  0.00  0.00    -0.248 NA
ATOM      4  C   UNL     1      33.268 -12.524 -22.243  0.00  0.00    +0.026 C 
ATOM      5  C   UNL     1      31.817 -12.540 -21.733  0.00  0.00    -0.040 C 
ATOM      6  C   UNL     1      33.294 -11.251 -23.112  0.00  0.00    +0.094 C 
ATOM      7  C   UNL     1      31.550 -11.059 -21.441  0.00  0.00    +0.070 C 
ATOM      8  C   UNL     1      32.219  -9.014 -22.734  0.00  0.00    +0.111 C 
ATOM      9  C   UNL     1      33.054  -8.490 -23.701  0.00  0.00    +0.106 C 
ATOM     10  C   UNL     1      32.900  -7.143 -23.955  0.00  0.00    +0.063 C 
ATOM     11  C   UNL     1      31.250  -6.986 -22.400  0.00  0.00    +0.251 C 
ENDROOT
BRANCH   4  15
ATOM     12  F   UNL     1      32.481 -13.132 -24.900  0.00  0.00    -0.204 F 
ATOM     13  F   UNL     1      35.776 -16.710 -22.399  0.00  0.00    -0.202 F 
ATOM     14  F   UNL     1      34.941 -17.173 -24.962  0.00  0.00    -0.202 F 
ATOM     15  C   UNL     1      33.715 -13.768 -22.973  0.00  0.00    +0.007 C 
ATOM     16  C   UNL     1      33.289 -14.004 -24.280  0.00  0.00    +0.138 C 
ATOM     17  C   UNL     1      34.555 -14.682 -22.338  0.00  0.00    +0.030 C 
ATOM     18  C   UNL     1      34.969 -15.832 -23.009  0.00  0.00    +0.167 C 
ATOM     19  C   UNL     1      33.703 -15.154 -24.953  0.00  0.00    +0.061 C 
ATOM     20  C   UNL     1      34.544 -16.068 -24.317  0.00  0.00    +0.170 C 
ENDBRANCH   4  15
BRANCH  10  21
ATOM     21  C   UNL     1      33.712  -6.472 -24.942  0.00  0.00    +0.015 C 
ATOM     22  C   UNL     1      33.191  -6.203 -26.208  0.00  0.00    +0.020 C 
ATOM     23  C   UNL     1      35.017  -6.093 -24.631  0.00  0.00    +0.001 C 
ATOM     24  C   UNL     1      33.976  -5.556 -27.163  0.00  0.00    +0.106 C 
ATOM     25  C   UNL     1      35.281  -5.177 -26.851  0.00  0.00    +0.018 C 
ATOM     26  C   UNL     1      35.802  -5.446 -25.585  0.00  0.00    +0.001 C 
BRANCH  24  27
ATOM     27  S   UNL     1      33.326  -5.222 -28.748  0.00  0.00    +0.010 S 
ATOM     28  O   UNL     1      33.080  -6.496 -29.411  0.00  0.00    -0.169 OA
ATOM     29  O   UNL     1      32.246  -4.254 -28.622  0.00  0.00    -0.169 OA
ATOM     30  C   UNL     1      34.654  -4.408 -29.607  0.00  0.00    +0.182 C 
ENDBRANCH  24  27
ENDBRANCH  10  21
BRANCH   5  31
ATOM     31  N   UNL     1      31.637 -13.371 -20.552  0.00  0.00    +0.383 N 
ATOM     32  H   UNL     1      31.283 -12.798 -19.785  0.00  0.00    -0.089 HD
ATOM     33  H   UNL     1      32.532 -13.781 -20.285  0.00  0.00    -0.089 HD
ATOM     34  H   UNL     1      30.969 -14.114 -20.758  0.00  0.00    -0.089 HD
ENDBRANCH   5  31
TORSDOF 4
ENDMDL
MODEL 4
REMARK VINA RESULT:     -10.1      5.547      9.283
REMARK  Name = 16750059
REMARK  4 active torsions:
REMARK  status: ('A' for Active; 'I' for Inactive)
REMARK    1  A    between atoms: C_4  and  C_15
REMARK    2  A    between atoms: C_5  and  N_31
REMARK    3  A    between atoms: C_10  and  C_21
REMARK    4  A    between atoms: C_24  and  S_27
REMARK                            x       y       z     vdW  Elec       q    Type
REMARK                         _______ _______ _______ _____ _____    ______ ____
ROOT
ATOM      1  N   UNL     1      32.395  -9.952 -21.951  0.00  0.00    -0.298 N 
ATOM      2  N   UNL     1      31.820 -11.600 -20.381  0.00  0.00    -0.234 NA
ATOM      3  N   UNL     1      32.459 -13.888 -20.780  0.00  0.00    -0.248 NA
ATOM      4  C   UNL     1      32.443  -8.039 -23.341  0.00  0.00    +0.026 C 
ATOM      5  C   UNL     1      32.282  -7.599 -21.876  0.00  0.00    -0.040 C 
ATOM      6  C   UNL     1      32.999  -9.469 -23.194  0.00  0.00    +0.094 C 
ATOM      7  C   UNL     1      31.753  -8.872 -21.203  0.00  0.00    +0.070 C 
ATOM      8  C   UNL     1      32.409 -11.270 -21.548  0.00  0.00    +0.111 C 
ATOM      9  C   UNL     1      33.036 -12.180 -22.375  0.00  0.00    +0.106 C 
ATOM     10  C   UNL     1      33.030 -13.488 -21.935  0.00  0.00    +0.063 C 
ATOM     11  C   UNL     1      31.881 -12.907 -20.062  0.00  0.00    +0.251 C 
ENDROOT
BRANCH   4  15
ATOM     12  F   UNL     1      35.100  -7.315 -22.662  0.00  0.00    -0.204 F 
ATOM     13  F   UNL     1      33.085  -5.293 -27.327  0.00  0.00    -0.202 F 
ATOM     14  F   UNL     1      35.633  -4.676 -26.552  0.00  0.00    -0.202 F 
ATOM     15  C   UNL     1      33.300  -7.138 -24.200  0.00  0.00    +0.007 C 
ATOM     16  C   UNL     1      34.599  -6.823 -23.804  0.00  0.00    +0.138 C 
ATOM     17  C   UNL     1      32.788  -6.622 -25.389  0.00  0.00    +0.030 C 
ATOM     18  C   UNL     1      33.576  -5.790 -26.184  0.00  0.00    +0.167 C 
ATOM     19  C   UNL     1      35.388  -5.992 -24.599  0.00  0.00    +0.061 C 
ATOM     20  C   UNL     1      34.877  -5.475 -25.789  0.00  0.00    +0.170 C 
ENDBRANCH   4  15
BRANCH  10  21
ATOM     21  C   UNL     1      33.651 -14.538 -22.707  0.00  0.00    +0.015 C 
ATOM     22  C   UNL     1      34.229 -15.632 -22.061  0.00  0.00    +0.020 C 
ATOM     23  C   UNL     1      33.673 -14.460 -24.099  0.00  0.00    +0.001 C 
ATOM     24  C   UNL     1      34.830 -16.646 -22.807  0.00  0.00    +0.106 C 
ATOM     25  C   UNL     1      34.852 -16.566 -24.199  0.00  0.00    +0.018 C 
ATOM     26  C   UNL     1      34.274 -15.473 -24.845  0.00  0.00    +0.001 C 
BRANCH  24  27
ATOM     27  S   UNL     1      35.556 -18.012 -21.999  0.00  0.00    +0.010 S 
ATOM     28  O   UNL     1      36.991 -17.966 -22.241  0.00  0.00    -0.169 OA
ATOM     29  O   UNL     1      35.056 -18.074 -20.633  0.00  0.00    -0.169 OA
ATOM     30  C   UNL     1      34.903 -19.428 -22.854  0.00  0.00    +0.182 C 
ENDBRANCH  24  27
ENDBRANCH  10  21
BRANCH   5  31
ATOM     31  N   UNL     1      31.370  -6.477 -21.713  0.00  0.00    +0.383 N 
ATOM     32  H   UNL     1      30.744  -6.659 -20.928  0.00  0.00    -0.089 HD
ATOM     33  H   UNL     1      30.822  -6.358 -22.566  0.00  0.00    -0.089 HD
ATOM     34  H   UNL     1      31.905  -5.628 -21.532  0.00  0.00    -0.089 HD
ENDBRANCH   5  31
TORSDOF 4
ENDMDL
MODEL 5
REMARK VINA RESULT:      -9.7      7.825     12.160
REMARK  Name = 16750059
REMARK  4 active torsions:
REMARK  status: ('A' for Active; 'I' for Inactive)
REMARK    1  A    between atoms: C_4  and  C_15
REMARK    2  A    between atoms: C_5  and  N_31
REMARK    3  A    between atoms: C_10  and  C_21
REMARK    4  A    between atoms: C_24  and  S_27
REMARK                            x       y       z     vdW  Elec       q    Type
REMARK                         _______ _______ _______ _____ _____    ______ ____
ROOT
ATOM      1  N   UNL     1      34.083 -15.866 -23.304  0.00  0.00    -0.298 N 
ATOM      2  N   UNL     1      34.615 -17.828 -24.479  0.00  0.00    -0.234 NA
ATOM      3  N   UNL     1      35.335 -19.778 -23.261  0.00  0.00    -0.248 NA
ATOM      4  C   UNL     1      33.762 -13.621 -22.633  0.00  0.00    +0.026 C 
ATOM      5  C   UNL     1      33.062 -13.854 -23.982  0.00  0.00    -0.040 C 
ATOM      6  C   UNL     1      33.921 -15.057 -22.095  0.00  0.00    +0.094 C 
ATOM      7  C   UNL     1      33.769 -15.107 -24.513  0.00  0.00    +0.070 C 
ATOM      8  C   UNL     1      34.503 -17.180 -23.302  0.00  0.00    +0.111 C 
ATOM      9  C   UNL     1      34.784 -17.755 -22.079  0.00  0.00    +0.106 C 
ATOM     10  C   UNL     1      35.200 -19.070 -22.121  0.00  0.00    +0.063 C 
ATOM     11  C   UNL     1      35.030 -19.106 -24.387  0.00  0.00    +0.251 C 
ENDROOT
BRANCH   4  15
ATOM     12  F   UNL     1      33.367 -14.213 -19.887  0.00  0.00    -0.204 F 
ATOM     13  F   UNL     1      31.407  -9.444 -21.713  0.00  0.00    -0.202 F 
ATOM     14  F   UNL     1      31.096 -10.140 -19.087  0.00  0.00    -0.202 F 
ATOM     15  C   UNL     1      33.049 -12.690 -21.681  0.00  0.00    +0.007 C 
ATOM     16  C   UNL     1      32.889 -13.045 -20.342  0.00  0.00    +0.138 C 
ATOM     17  C   UNL     1      32.548 -11.474 -22.144  0.00  0.00    +0.030 C 
ATOM     18  C   UNL     1      31.889 -10.612 -21.268  0.00  0.00    +0.167 C 
ATOM     19  C   UNL     1      32.230 -12.183 -19.465  0.00  0.00    +0.061 C 
ATOM     20  C   UNL     1      31.729 -10.967 -19.929  0.00  0.00    +0.170 C 
ENDBRANCH   4  15
BRANCH  10  21
ATOM     21  C   UNL     1      35.526 -19.788 -20.912  0.00  0.00    +0.015 C 
ATOM     22  C   UNL     1      34.621 -20.708 -20.381  0.00  0.00    +0.020 C 
ATOM     23  C   UNL     1      36.745 -19.562 -20.274  0.00  0.00    +0.001 C 
ATOM     24  C   UNL     1      34.936 -21.401 -19.211  0.00  0.00    +0.106 C 
ATOM     25  C   UNL     1      36.156 -21.174 -18.574  0.00  0.00    +0.018 C 
ATOM     26  C   UNL     1      37.060 -20.254 -19.105  0.00  0.00    +0.001 C 
BRANCH  24  27
ATOM     27  S   UNL     1      33.804 -22.550 -18.544  0.00  0.00    +0.010 S 
ATOM     28  O   UNL     1      32.495 -21.912 -18.491  0.00  0.00    -0.169 OA
ATOM     29  O   UNL     1      33.959 -23.822 -19.235  0.00  0.00    -0.169 OA
ATOM     30  C   UNL     1      34.359 -22.798 -16.873  0.00  0.00    +0.182 C 
ENDBRANCH  24  27
ENDBRANCH  10  21
BRANCH   5  31
ATOM     31  N   UNL     1      33.189 -12.727 -24.894  0.00  0.00    +0.383 N 
ATOM     32  H   UNL     1      32.397 -12.096 -24.768  0.00  0.00    -0.089 HD
ATOM     33  H   UNL     1      33.203 -13.068 -25.855  0.00  0.00    -0.089 HD
ATOM     34  H   UNL     1      34.057 -12.228 -24.698  0.00  0.00    -0.089 HD
ENDBRANCH   5  31
TORSDOF 4
ENDMDL
MODEL 6
REMARK VINA RESULT:      -9.7     13.125     17.421
REMARK  Name = 16750059
REMARK  4 active torsions:
REMARK  status: ('A' for Active; 'I' for Inactive)
REMARK    1  A    between atoms: C_4  and  C_15
REMARK    2  A    between atoms: C_5  and  N_31
REMARK    3  A    between atoms: C_10  and  C_21
REMARK    4  A    between atoms: C_24  and  S_27
REMARK                            x       y       z     vdW  Elec       q    Type
REMARK                         _______ _______ _______ _____ _____    ______ ____
ROOT
ATOM      1  N   UNL     1      33.531 -22.631 -17.042  0.00  0.00    -0.298 N 
ATOM      2  N   UNL     1      32.260 -23.665 -15.361  0.00  0.00    -0.234 NA
ATOM      3  N   UNL     1      33.378 -24.639 -13.462  0.00  0.00    -0.248 NA
ATOM      4  C   UNL     1      34.355 -21.798 -19.097  0.00  0.00    +0.026 C 
ATOM      5  C   UNL     1      32.916 -21.297 -18.884  0.00  0.00    -0.040 C 
ATOM      6  C   UNL     1      34.779 -22.189 -17.667  0.00  0.00    +0.094 C 
ATOM      7  C   UNL     1      32.365 -22.293 -17.857  0.00  0.00    +0.070 C 
ATOM      8  C   UNL     1      33.467 -23.306 -15.842  0.00  0.00    +0.111 C 
ATOM      9  C   UNL     1      34.659 -23.574 -15.199  0.00  0.00    +0.106 C 
ATOM     10  C   UNL     1      34.552 -24.250 -14.001  0.00  0.00    +0.063 C 
ATOM     11  C   UNL     1      32.287 -24.318 -14.183  0.00  0.00    +0.251 C 
ENDROOT
BRANCH   4  15
ATOM     12  F   UNL     1      37.106 -21.592 -18.440  0.00  0.00    -0.204 F 
ATOM     13  F   UNL     1      35.215 -18.231 -22.319  0.00  0.00    -0.202 F 
ATOM     14  F   UNL     1      37.848 -18.139 -21.589  0.00  0.00    -0.202 F 
ATOM     15  C   UNL     1      35.292 -20.819 -19.763  0.00  0.00    +0.007 C 
ATOM     16  C   UNL     1      36.635 -20.771 -19.390  0.00  0.00    +0.138 C 
ATOM     17  C   UNL     1      34.813 -19.961 -20.752  0.00  0.00    +0.030 C 
ATOM     18  C   UNL     1      35.676 -19.056 -21.369  0.00  0.00    +0.167 C 
ATOM     19  C   UNL     1      37.500 -19.867 -20.007  0.00  0.00    +0.061 C 
ATOM     20  C   UNL     1      37.019 -19.008 -20.997  0.00  0.00    +0.170 C 
ENDBRANCH   4  15
BRANCH  10  21
ATOM     21  C   UNL     1      35.723 -24.592 -13.229  0.00  0.00    +0.015 C 
ATOM     22  C   UNL     1      36.931 -24.857 -13.874  0.00  0.00    +0.020 C 
ATOM     23  C   UNL     1      35.647 -24.658 -11.839  0.00  0.00    +0.001 C 
ATOM     24  C   UNL     1      38.063 -25.189 -13.129  0.00  0.00    +0.106 C 
ATOM     25  C   UNL     1      37.985 -25.255 -11.738  0.00  0.00    +0.018 C 
ATOM     26  C   UNL     1      36.777 -24.990 -11.092  0.00  0.00    +0.001 C 
BRANCH  24  27
ATOM     27  S   UNL     1      39.573 -25.524 -13.935  0.00  0.00    +0.010 S 
ATOM     28  O   UNL     1      40.652 -25.011 -13.102  0.00  0.00    -0.169 OA
ATOM     29  O   UNL     1      39.586 -26.919 -14.354  0.00  0.00    -0.169 OA
ATOM     30  C   UNL     1      39.512 -24.540 -15.416  0.00  0.00    +0.182 C 
ENDBRANCH  24  27
ENDBRANCH  10  21
BRANCH   5  31
ATOM     31  N   UNL     1      32.129 -21.285 -20.109  0.00  0.00    +0.383 N 
ATOM     32  H   UNL     1      32.522 -21.953 -20.772  0.00  0.00    -0.089 HD
ATOM     33  H   UNL     1      32.149 -20.349 -20.515  0.00  0.00    -0.089 HD
ATOM     34  H   UNL     1      31.165 -21.543 -19.896  0.00  0.00    -0.089 HD
ENDBRANCH   5  31
TORSDOF 4
ENDMDL
MODEL 7
REMARK VINA RESULT:      -9.4      2.039      2.548
REMARK  Name = 16750059
REMARK  4 active torsions:
REMARK  status: ('A' for Active; 'I' for Inactive)
REMARK    1  A    between atoms: C_4  and  C_15
REMARK    2  A    between atoms: C_5  and  N_31
REMARK    3  A    between atoms: C_10  and  C_21
REMARK    4  A    between atoms: C_24  and  S_27
REMARK                            x       y       z     vdW  Elec       q    Type
REMARK                         _______ _______ _______ _____ _____    ______ ____
ROOT
ATOM      1  N   UNL     1      32.559 -11.087 -21.580  0.00  0.00    -0.298 N 
ATOM      2  N   UNL     1      31.549  -9.108 -20.819  0.00  0.00    -0.234 NA
ATOM      3  N   UNL     1      32.119  -7.012 -21.863  0.00  0.00    -0.248 NA
ATOM      4  C   UNL     1      33.515 -13.243 -21.753  0.00  0.00    +0.026 C 
ATOM      5  C   UNL     1      32.119 -13.355 -21.119  0.00  0.00    -0.040 C 
ATOM      6  C   UNL     1      33.452 -11.864 -22.440  0.00  0.00    +0.094 C 
ATOM      7  C   UNL     1      31.870 -11.932 -20.605  0.00  0.00    +0.070 C 
ATOM      8  C   UNL     1      32.403  -9.719 -21.665  0.00  0.00    +0.111 C 
ATOM      9  C   UNL     1      33.140  -9.055 -22.624  0.00  0.00    +0.106 C 
ATOM     10  C   UNL     1      32.955  -7.688 -22.678  0.00  0.00    +0.063 C 
ATOM     11  C   UNL     1      31.457  -7.773 -20.971  0.00  0.00    +0.251 C 
ENDROOT
BRANCH   4  15
ATOM     12  F   UNL     1      32.671 -13.379 -24.457  0.00  0.00    -0.204 F 
ATOM     13  F   UNL     1      35.840 -17.446 -22.631  0.00  0.00    -0.202 F 
ATOM     14  F   UNL     1      34.955 -17.452 -25.218  0.00  0.00    -0.202 F 
ATOM     15  C   UNL     1      33.900 -14.369 -22.683  0.00  0.00    +0.007 C 
ATOM     16  C   UNL     1      33.448 -14.373 -24.002  0.00  0.00    +0.138 C 
ATOM     17  C   UNL     1      34.707 -15.407 -22.220  0.00  0.00    +0.030 C 
ATOM     18  C   UNL     1      35.064 -16.448 -23.076  0.00  0.00    +0.167 C 
ATOM     19  C   UNL     1      33.805 -15.413 -24.860  0.00  0.00    +0.061 C 
ATOM     20  C   UNL     1      34.613 -16.452 -24.396  0.00  0.00    +0.170 C 
ENDBRANCH   4  15
BRANCH  10  21
ATOM     21  C   UNL     1      33.666  -6.875 -23.636  0.00  0.00    +0.015 C 
ATOM     22  C   UNL     1      33.099  -5.690 -24.103  0.00  0.00    +0.020 C 
ATOM     23  C   UNL     1      34.920  -7.276 -24.094  0.00  0.00    +0.001 C 
ATOM     24  C   UNL     1      33.786  -4.905 -25.030  0.00  0.00    +0.106 C 
ATOM     25  C   UNL     1      35.040  -5.306 -25.488  0.00  0.00    +0.018 C 
ATOM     26  C   UNL     1      35.608  -6.492 -25.021  0.00  0.00    +0.001 C 
BRANCH  24  27
ATOM     27  S   UNL     1      33.075  -3.424 -25.618  0.00  0.00    +0.010 S 
ATOM     28  O   UNL     1      32.413  -2.767 -24.499  0.00  0.00    -0.169 OA
ATOM     29  O   UNL     1      34.071  -2.698 -26.395  0.00  0.00    -0.169 OA
ATOM     30  C   UNL     1      31.818  -3.959 -26.758  0.00  0.00    +0.182 C 
ENDBRANCH  24  27
ENDBRANCH  10  21
BRANCH   5  31
ATOM     31  N   UNL     1      32.055 -14.340 -20.049  0.00  0.00    +0.383 N 
ATOM     32  H   UNL     1      31.468 -15.122 -20.342  0.00  0.00    -0.089 HD
ATOM     33  H   UNL     1      31.657 -13.909 -19.214  0.00  0.00    -0.089 HD
ATOM     34  H   UNL     1      32.995 -14.679 -19.842  0.00  0.00    -0.089 HD
ENDBRANCH   5  31
TORSDOF 4
ENDMDL
MODEL 8
REMARK VINA RESULT:      -9.1      1.695      1.920
REMARK  Name = 16750059
REMARK  4 active torsions:
REMARK  status: ('A' for Active; 'I' for Inactive)
REMARK    1  A    between atoms: C_4  and  C_15
REMARK    2  A    between atoms: C_5  and  N_31
REMARK    3  A    between atoms: C_10  and  C_21
REMARK    4  A    between atoms: C_24  and  S_27
REMARK                            x       y       z     vdW  Elec       q    Type
REMARK                         _______ _______ _______ _____ _____    ______ ____
ROOT
ATOM      1  N   UNL     1      32.071  -9.633 -22.762  0.00  0.00    -0.298 N 
ATOM      2  N   UNL     1      30.995  -7.567 -22.467  0.00  0.00    -0.234 NA
ATOM      3  N   UNL     1      31.441  -5.771 -24.009  0.00  0.00    -0.248 NA
ATOM      4  C   UNL     1      33.118 -11.729 -22.442  0.00  0.00    +0.026 C 
ATOM      5  C   UNL     1      31.746 -11.735 -21.747  0.00  0.00    -0.040 C 
ATOM      6  C   UNL     1      32.974 -10.564 -23.441  0.00  0.00    +0.094 C 
ATOM      7  C   UNL     1      31.448 -10.239 -21.585  0.00  0.00    +0.070 C 
ATOM      8  C   UNL     1      31.851  -8.335 -23.171  0.00  0.00    +0.111 C 
ATOM      9  C   UNL     1      32.531  -7.898 -24.290  0.00  0.00    +0.106 C 
ATOM     10  C   UNL     1      32.283  -6.594 -24.667  0.00  0.00    +0.063 C 
ATOM     11  C   UNL     1      30.838  -6.314 -22.935  0.00  0.00    +0.251 C 
ENDROOT
BRANCH   4  15
ATOM     12  F   UNL     1      34.814 -13.618 -21.177  0.00  0.00    -0.204 F 
ATOM     13  F   UNL     1      32.997 -14.866 -26.183  0.00  0.00    -0.202 F 
ATOM     14  F   UNL     1      34.640 -16.597 -24.848  0.00  0.00    -0.202 F 
ATOM     15  C   UNL     1      33.527 -13.034 -23.085  0.00  0.00    +0.007 C 
ATOM     16  C   UNL     1      34.365 -13.917 -22.404  0.00  0.00    +0.138 C 
ATOM     17  C   UNL     1      33.065 -13.354 -24.361  0.00  0.00    +0.030 C 
ATOM     18  C   UNL     1      33.441 -14.558 -24.957  0.00  0.00    +0.167 C 
ATOM     19  C   UNL     1      34.741 -15.121 -22.999  0.00  0.00    +0.061 C 
ATOM     20  C   UNL     1      34.279 -15.442 -24.276  0.00  0.00    +0.170 C 
ENDBRANCH   4  15
BRANCH  10  21
ATOM     21  C   UNL     1      32.930  -6.014 -25.820  0.00  0.00    +0.015 C 
ATOM     22  C   UNL     1      33.387  -4.697 -25.775  0.00  0.00    +0.020 C 
ATOM     23  C   UNL     1      33.098  -6.771 -26.979  0.00  0.00    +0.001 C 
ATOM     24  C   UNL     1      34.011  -4.136 -26.890  0.00  0.00    +0.106 C 
ATOM     25  C   UNL     1      34.178  -4.894 -28.049  0.00  0.00    +0.018 C 
ATOM     26  C   UNL     1      33.721  -6.212 -28.094  0.00  0.00    +0.001 C 
BRANCH  24  27
ATOM     27  S   UNL     1      34.580  -2.487 -26.836  0.00  0.00    +0.010 S 
ATOM     28  O   UNL     1      33.833  -1.788 -25.800  0.00  0.00    -0.169 OA
ATOM     29  O   UNL     1      36.035  -2.491 -26.800  0.00  0.00    -0.169 OA
ATOM     30  C   UNL     1      34.103  -1.804 -28.408  0.00  0.00    +0.182 C 
ENDBRANCH  24  27
ENDBRANCH  10  21
BRANCH   5  31
ATOM     31  N   UNL     1      31.757 -12.430 -20.469  0.00  0.00    +0.383 N 
ATOM     32  H   UNL     1      30.822 -12.787 -20.268  0.00  0.00    -0.089 HD
ATOM     33  H   UNL     1      32.040 -11.783 -19.733  0.00  0.00    -0.089 HD
ATOM     34  H   UNL     1      32.416 -13.208 -20.510  0.00  0.00    -0.089 HD
ENDBRANCH   5  31
TORSDOF 4
ENDMDL
MODEL 9
REMARK VINA RESULT:      -9.1      4.651      8.597
REMARK  Name = 16750059
REMARK  4 active torsions:
REMARK  status: ('A' for Active; 'I' for Inactive)
REMARK    1  A    between atoms: C_4  and  C_15
REMARK    2  A    between atoms: C_5  and  N_31
REMARK    3  A    between atoms: C_10  and  C_21
REMARK    4  A    between atoms: C_24  and  S_27
REMARK                            x       y       z     vdW  Elec       q    Type
REMARK                         _______ _______ _______ _____ _____    ______ ____
ROOT
ATOM      1  N   UNL     1      31.754  -8.879 -22.864  0.00  0.00    -0.298 N 
ATOM      2  N   UNL     1      30.577 -10.121 -21.257  0.00  0.00    -0.234 NA
ATOM      3  N   UNL     1      31.307 -12.354 -20.721  0.00  0.00    -0.248 NA
ATOM      4  C   UNL     1      32.378  -7.391 -24.594  0.00  0.00    +0.026 C 
ATOM      5  C   UNL     1      31.637  -6.611 -23.495  0.00  0.00    -0.040 C 
ATOM      6  C   UNL     1      32.815  -8.668 -23.850  0.00  0.00    +0.094 C 
ATOM      7  C   UNL     1      30.870  -7.718 -22.760  0.00  0.00    +0.070 C 
ATOM      8  C   UNL     1      31.593 -10.041 -22.139  0.00  0.00    +0.111 C 
ATOM      9  C   UNL     1      32.496 -11.060 -22.366  0.00  0.00    +0.106 C 
ATOM     10  C   UNL     1      32.302 -12.205 -21.620  0.00  0.00    +0.063 C 
ATOM     11  C   UNL     1      30.494 -11.289 -20.591  0.00  0.00    +0.251 C 
ENDROOT
BRANCH   4  15
ATOM     12  F   UNL     1      34.749  -6.642 -23.230  0.00  0.00    -0.204 F 
ATOM     13  F   UNL     1      34.391  -5.301 -28.520  0.00  0.00    -0.202 F 
ATOM     14  F   UNL     1      36.623  -4.639 -27.085  0.00  0.00    -0.202 F 
ATOM     15  C   UNL     1      33.516  -6.654 -25.259  0.00  0.00    +0.007 C 
ATOM     16  C   UNL     1      34.654  -6.316 -24.527  0.00  0.00    +0.138 C 
ATOM     17  C   UNL     1      33.427  -6.311 -26.607  0.00  0.00    +0.030 C 
ATOM     18  C   UNL     1      34.477  -5.631 -27.225  0.00  0.00    +0.167 C 
ATOM     19  C   UNL     1      35.704  -5.636 -25.144  0.00  0.00    +0.061 C 
ATOM     20  C   UNL     1      35.615  -5.293 -26.493  0.00  0.00    +0.170 C 
ENDBRANCH   4  15
BRANCH  10  21
ATOM     21  C   UNL     1      33.176 -13.345 -21.761  0.00  0.00    +0.015 C 
ATOM     22  C   UNL     1      33.280 -13.997 -22.990  0.00  0.00    +0.020 C 
ATOM     23  C   UNL     1      33.917 -13.795 -20.670  0.00  0.00    +0.001 C 
ATOM     24  C   UNL     1      34.123 -15.100 -23.127  0.00  0.00    +0.106 C 
ATOM     25  C   UNL     1      34.864 -15.549 -22.034  0.00  0.00    +0.018 C 
ATOM     26  C   UNL     1      34.760 -14.897 -20.805  0.00  0.00    +0.001 C 
BRANCH  24  27
ATOM     27  S   UNL     1      34.250 -15.918 -24.663  0.00  0.00    +0.010 S 
ATOM     28  O   UNL     1      33.060 -15.603 -25.440  0.00  0.00    -0.169 OA
ATOM     29  O   UNL     1      35.569 -15.664 -25.226  0.00  0.00    -0.169 OA
ATOM     30  C   UNL     1      34.189 -17.647 -24.248  0.00  0.00    +0.182 C 
ENDBRANCH  24  27
ENDBRANCH  10  21
BRANCH   5  31
ATOM     31  N   UNL     1      30.746  -5.588 -24.022  0.00  0.00    +0.383 N 
ATOM     32  H   UNL     1      30.846  -5.540 -25.036  0.00  0.00    -0.089 HD
ATOM     33  H   UNL     1      30.985  -4.685 -23.612  0.00  0.00    -0.089 HD
ATOM     34  H   UNL     1      29.781  -5.824 -23.786  0.00  0.00    -0.089 HD
ENDBRANCH   5  31
TORSDOF 4
ENDMDL
