MODEL 1
REMARK VINA RESULT:     -12.2      0.000      0.000
REMARK  Name = 11677589
REMARK  7 active torsions:
REMARK  status: ('A' for Active; 'I' for Inactive)
REMARK    1  A    between atoms: C_1  and  N_7
REMARK    2  A    between atoms: C_2  and  C_20
REMARK    3  A    between atoms: C_11  and  C_18
REMARK    4  A    between atoms: C_20  and  C_21
REMARK    5  A    between atoms: C_21  and  N_23
REMARK    6  A    between atoms: N_24  and  S_28
REMARK    7  A    between atoms: S_28  and  C_31
REMARK                            x       y       z     vdW  Elec       q    Type
REMARK                         _______ _______ _______ _____ _____    ______ ____
ROOT
ATOM      1  C   UNL     1      34.608 -21.635 -18.275  0.00  0.00    +0.058 C 
ATOM      2  C   UNL     1      34.778 -20.221 -20.659  0.00  0.00    -0.020 C 
ATOM      3  C   UNL     1      33.445 -21.291 -18.952  0.00  0.00    +0.015 C 
ATOM      4  C   UNL     1      35.855 -21.281 -18.774  0.00  0.00    +0.015 C 
ATOM      5  C   UNL     1      33.531 -20.581 -20.150  0.00  0.00    -0.003 C 
ATOM      6  C   UNL     1      35.940 -20.571 -19.972  0.00  0.00    -0.003 C 
ENDROOT
BRANCH   1   7
ATOM      7  N   UNL     1      34.523 -22.345 -17.077  0.00  0.00    -0.242 N 
ATOM      8  N   UNL     1      35.174 -23.385 -15.223  0.00  0.00    -0.387 NA
ATOM      9  N   UNL     1      31.534 -23.925 -14.794  0.00  0.00    -0.408 NA
ATOM     10  C   UNL     1      33.370 -22.787 -16.481  0.00  0.00    +0.091 C 
ATOM     11  C   UNL     1      35.573 -22.727 -16.288  0.00  0.00    +0.168 C 
ATOM     12  C   UNL     1      33.804 -23.432 -15.326  0.00  0.00    +0.172 C 
ATOM     13  C   UNL     1      32.032 -22.684 -16.835  0.00  0.00    +0.045 C 
ATOM     14  C   UNL     1      32.852 -24.004 -14.482  0.00  0.00    +0.140 C 
ATOM     15  C   UNL     1      31.167 -23.284 -15.931  0.00  0.00    +0.110 C 
ATOM     16  C   UNL     1      33.203 -24.719 -13.221  0.00  0.00    +0.069 C 
ATOM     17  C   UNL     1      29.700 -23.236 -16.210  0.00  0.00    +0.066 C 
BRANCH  11  18
ATOM     18  C   UNL     1      36.979 -22.417 -16.628  0.00  0.00    +0.075 C 
ATOM     19  C   UNL     1      37.953 -22.788 -15.504  0.00  0.00    +0.009 C 
ENDBRANCH  11  18
ENDBRANCH   1   7
BRANCH   2  20
ATOM     20  C   UNL     1      34.869 -19.461 -21.939  0.00  0.00    +0.048 C 
BRANCH  20  21
ATOM     21  C   UNL     1      35.882 -18.310 -21.898  0.00  0.00    +0.096 C 
BRANCH  21  23
ATOM     22  O   UNL     1      34.953 -16.433 -23.864  0.00  0.00    -0.251 OA
ATOM     23  N   UNL     1      35.254 -17.040 -21.652  0.00  0.00    -0.287 N 
ATOM     24  N   UNL     1      34.245 -14.986 -22.171  0.00  0.00    -0.169 N 
ATOM     25  C   UNL     1      34.835 -16.193 -22.666  0.00  0.00    +0.319 C 
ATOM     26  H   UNL     1      35.116 -16.757 -20.719  0.00  0.00    +0.151 HD
ATOM     27  H   UNL     1      34.196 -14.875 -21.194  0.00  0.00    +0.178 HD
BRANCH  24  28
ATOM     28  S   UNL     1      33.622 -13.722 -23.137  0.00  0.00    +0.077 S 
ATOM     29  O   UNL     1      34.721 -12.964 -23.705  0.00  0.00    -0.150 OA
ATOM     30  O   UNL     1      32.571 -14.244 -23.990  0.00  0.00    -0.150 OA
BRANCH  28  31
ATOM     31  C   UNL     1      32.835 -12.718 -21.914  0.00  0.00    +0.125 C 
ATOM     32  C   UNL     1      32.834 -13.135 -20.595  0.00  0.00    +0.020 C 
ATOM     33  C   UNL     1      32.233 -11.532 -22.299  0.00  0.00    +0.020 C 
ATOM     34  C   UNL     1      31.602 -11.145 -19.999  0.00  0.00    -0.022 C 
ATOM     35  C   UNL     1      32.213 -12.342 -19.629  0.00  0.00    -0.003 C 
ATOM     36  C   UNL     1      31.612 -10.739 -21.333  0.00  0.00    -0.003 C 
ATOM     37  C   UNL     1      30.939 -10.297 -18.967  0.00  0.00    +0.031 C 
ENDBRANCH  28  31
ENDBRANCH  24  28
ENDBRANCH  21  23
ENDBRANCH  20  21
ENDBRANCH   2  20
TORSDOF 7
ENDMDL
MODEL 2
REMARK VINA RESULT:     -12.2      4.626     13.837
REMARK  Name = 11677589
REMARK  7 active torsions:
REMARK  status: ('A' for Active; 'I' for Inactive)
REMARK    1  A    between atoms: C_1  and  N_7
REMARK    2  A    between atoms: C_2  and  C_20
REMARK    3  A    between atoms: C_11  and  C_18
REMARK    4  A    between atoms: C_20  and  C_21
REMARK    5  A    between atoms: C_21  and  N_23
REMARK    6  A    between atoms: N_24  and  S_28
REMARK    7  A    between atoms: S_28  and  C_31
REMARK                            x       y       z     vdW  Elec       q    Type
REMARK                         _______ _______ _______ _____ _____    ______ ____
ROOT
ATOM      1  C   UNL     1      32.550  -8.730 -22.958  0.00  0.00    +0.058 C 
ATOM      2  C   UNL     1      32.812 -11.491 -22.816  0.00  0.00    -0.020 C 
ATOM      3  C   UNL     1      31.471  -9.500 -22.544  0.00  0.00    +0.015 C 
ATOM      4  C   UNL     1      33.758  -9.322 -23.302  0.00  0.00    +0.015 C 
ATOM      5  C   UNL     1      31.603 -10.887 -22.473  0.00  0.00    -0.003 C 
ATOM      6  C   UNL     1      33.890 -10.709 -23.232  0.00  0.00    -0.003 C 
ENDROOT
BRANCH   1   7
ATOM      7  N   UNL     1      32.419  -7.342 -23.029  0.00  0.00    -0.242 N 
ATOM      8  N   UNL     1      32.039  -5.251 -22.378  0.00  0.00    -0.387 NA
ATOM      9  N   UNL     1      32.801  -4.493 -25.923  0.00  0.00    -0.408 NA
ATOM     10  C   UNL     1      32.603  -6.572 -24.148  0.00  0.00    +0.091 C 
ATOM     11  C   UNL     1      32.084  -6.509 -21.998  0.00  0.00    +0.168 C 
ATOM     12  C   UNL     1      32.360  -5.271 -23.714  0.00  0.00    +0.172 C 
ATOM     13  C   UNL     1      32.947  -6.883 -25.455  0.00  0.00    +0.045 C 
ATOM     14  C   UNL     1      32.467  -4.229 -24.635  0.00  0.00    +0.140 C 
ATOM     15  C   UNL     1      33.027  -5.778 -26.291  0.00  0.00    +0.110 C 
ATOM     16  C   UNL     1      32.229  -2.800 -24.281  0.00  0.00    +0.069 C 
ATOM     17  C   UNL     1      33.391  -5.994 -27.724  0.00  0.00    +0.066 C 
BRANCH  11  18
ATOM     18  C   UNL     1      31.811  -7.001 -20.631  0.00  0.00    +0.075 C 
ATOM     19  C   UNL     1      33.092  -7.289 -19.840  0.00  0.00    +0.009 C 
ENDBRANCH  11  18
ENDBRANCH   1   7
BRANCH   2  20
ATOM     20  C   UNL     1      32.952 -12.974 -22.741  0.00  0.00    +0.048 C 
BRANCH  20  21
ATOM     21  C   UNL     1      34.280 -13.434 -22.127  0.00  0.00    +0.096 C 
BRANCH  21  23
ATOM     22  O   UNL     1      35.759 -15.639 -23.223  0.00  0.00    -0.251 OA
ATOM     23  N   UNL     1      34.236 -14.804 -21.695  0.00  0.00    -0.287 N 
ATOM     24  N   UNL     1      34.768 -17.089 -21.682  0.00  0.00    -0.169 N 
ATOM     25  C   UNL     1      34.987 -15.809 -22.283  0.00  0.00    +0.319 C 
ATOM     26  H   UNL     1      33.643 -15.041 -20.945  0.00  0.00    +0.151 HD
ATOM     27  H   UNL     1      34.127 -17.134 -20.935  0.00  0.00    +0.178 HD
BRANCH  24  28
ATOM     28  S   UNL     1      35.526 -18.547 -22.154  0.00  0.00    +0.077 S 
ATOM     29  O   UNL     1      35.027 -18.947 -23.456  0.00  0.00    -0.150 OA
ATOM     30  O   UNL     1      36.952 -18.445 -21.912  0.00  0.00    -0.150 OA
BRANCH  28  31
ATOM     31  C   UNL     1      34.882 -19.668 -20.949  0.00  0.00    +0.125 C 
ATOM     32  C   UNL     1      33.511 -19.776 -20.789  0.00  0.00    +0.020 C 
ATOM     33  C   UNL     1      35.761 -20.419 -20.188  0.00  0.00    +0.020 C 
ATOM     34  C   UNL     1      33.875 -21.426 -19.062  0.00  0.00    -0.022 C 
ATOM     35  C   UNL     1      33.004 -20.662 -19.838  0.00  0.00    -0.003 C 
ATOM     36  C   UNL     1      35.254 -21.305 -19.237  0.00  0.00    -0.003 C 
ATOM     37  C   UNL     1      33.332 -22.373 -18.047  0.00  0.00    +0.031 C 
ENDBRANCH  28  31
ENDBRANCH  24  28
ENDBRANCH  21  23
ENDBRANCH  20  21
ENDBRANCH   2  20
TORSDOF 7
ENDMDL
MODEL 3
REMARK VINA RESULT:     -12.0      1.906      3.799
REMARK  Name = 11677589
REMARK  7 active torsions:
REMARK  status: ('A' for Active; 'I' for Inactive)
REMARK    1  A    between atoms: C_1  and  N_7
REMARK    2  A    between atoms: C_2  and  C_20
REMARK    3  A    between atoms: C_11  and  C_18
REMARK    4  A    between atoms: C_20  and  C_21
REMARK    5  A    between atoms: C_21  and  N_23
REMARK    6  A    between atoms: N_24  and  S_28
REMARK    7  A    between atoms: S_28  and  C_31
REMARK                            x       y       z     vdW  Elec       q    Type
REMARK                         _______ _______ _______ _____ _____    ______ ____
ROOT
ATOM      1  C   UNL     1      35.276 -22.762 -16.278  0.00  0.00    +0.058 C 
ATOM      2  C   UNL     1      35.387 -21.653 -18.821  0.00  0.00    -0.020 C 
ATOM      3  C   UNL     1      34.215 -22.951 -17.154  0.00  0.00    +0.015 C 
ATOM      4  C   UNL     1      36.392 -22.026 -16.656  0.00  0.00    +0.015 C 
ATOM      5  C   UNL     1      34.271 -22.393 -18.432  0.00  0.00    -0.003 C 
ATOM      6  C   UNL     1      36.447 -21.469 -17.934  0.00  0.00    -0.003 C 
ENDROOT
BRANCH   1   7
ATOM      7  N   UNL     1      35.221 -23.319 -14.999  0.00  0.00    -0.242 N 
ATOM      8  N   UNL     1      34.394 -23.926 -13.027  0.00  0.00    -0.387 NA
ATOM      9  N   UNL     1      37.802 -25.290 -12.532  0.00  0.00    -0.408 NA
ATOM     10  C   UNL     1      36.248 -23.954 -14.351  0.00  0.00    +0.091 C 
ATOM     11  C   UNL     1      34.135 -23.327 -14.168  0.00  0.00    +0.168 C 
ATOM     12  C   UNL     1      35.707 -24.323 -13.123  0.00  0.00    +0.172 C 
ATOM     13  C   UNL     1      37.559 -24.230 -14.716  0.00  0.00    +0.045 C 
ATOM     14  C   UNL     1      36.516 -25.003 -12.213  0.00  0.00    +0.140 C 
ATOM     15  C   UNL     1      38.279 -24.908 -13.742  0.00  0.00    +0.110 C 
ATOM     16  C   UNL     1      36.041 -25.446 -10.870  0.00  0.00    +0.069 C 
ATOM     17  C   UNL     1      39.704 -25.259 -14.025  0.00  0.00    +0.066 C 
BRANCH  11  18
ATOM     18  C   UNL     1      32.839 -22.723 -14.543  0.00  0.00    +0.075 C 
ATOM     19  C   UNL     1      31.702 -23.133 -13.602  0.00  0.00    +0.009 C 
ENDBRANCH  11  18
ENDBRANCH   1   7
BRANCH   2  20
ATOM     20  C   UNL     1      35.446 -21.057 -20.187  0.00  0.00    +0.048 C 
BRANCH  20  21
ATOM     21  C   UNL     1      36.469 -19.922 -20.317  0.00  0.00    +0.096 C 
BRANCH  21  23
ATOM     22  O   UNL     1      36.069 -18.591 -22.831  0.00  0.00    -0.251 OA
ATOM     23  N   UNL     1      35.843 -18.645 -20.529  0.00  0.00    -0.287 N 
ATOM     24  N   UNL     1      35.044 -16.798 -21.737  0.00  0.00    -0.169 N 
ATOM     25  C   UNL     1      35.691 -18.075 -21.783  0.00  0.00    +0.319 C 
ATOM     26  H   UNL     1      35.507 -18.151 -19.747  0.00  0.00    +0.151 HD
ATOM     27  H   UNL     1      34.779 -16.459 -20.852  0.00  0.00    +0.178 HD
BRANCH  24  28
ATOM     28  S   UNL     1      34.697 -15.817 -23.092  0.00  0.00    +0.077 S 
ATOM     29  O   UNL     1      35.924 -15.216 -23.578  0.00  0.00    -0.150 OA
ATOM     30  O   UNL     1      33.824 -16.541 -23.997  0.00  0.00    -0.150 OA
BRANCH  28  31
ATOM     31  C   UNL     1      33.719 -14.547 -22.347  0.00  0.00    +0.125 C 
ATOM     32  C   UNL     1      33.678 -14.446 -20.967  0.00  0.00    +0.020 C 
ATOM     33  C   UNL     1      33.011 -13.676 -23.158  0.00  0.00    +0.020 C 
ATOM     34  C   UNL     1      32.187 -12.557 -21.182  0.00  0.00    -0.022 C 
ATOM     35  C   UNL     1      32.906 -13.443 -20.380  0.00  0.00    -0.003 C 
ATOM     36  C   UNL     1      32.240 -12.673 -22.571  0.00  0.00    -0.003 C 
ATOM     37  C   UNL     1      31.364 -11.484 -20.554  0.00  0.00    +0.031 C 
ENDBRANCH  28  31
ENDBRANCH  24  28
ENDBRANCH  21  23
ENDBRANCH  20  21
ENDBRANCH   2  20
TORSDOF 7
ENDMDL
MODEL 4
REMARK VINA RESULT:     -11.9      4.868     10.840
REMARK  Name = 11677589
REMARK  7 active torsions:
REMARK  status: ('A' for Active; 'I' for Inactive)
REMARK    1  A    between atoms: C_1  and  N_7
REMARK    2  A    between atoms: C_2  and  C_20
REMARK    3  A    between atoms: C_11  and  C_18
REMARK    4  A    between atoms: C_20  and  C_21
REMARK    5  A    between atoms: C_21  and  N_23
REMARK    6  A    between atoms: N_24  and  S_28
REMARK    7  A    between atoms: S_28  and  C_31
REMARK                            x       y       z     vdW  Elec       q    Type
REMARK                         _______ _______ _______ _____ _____    ______ ____
ROOT
ATOM      1  C   UNL     1      35.470 -19.033 -21.211  0.00  0.00    +0.058 C 
ATOM      2  C   UNL     1      36.198 -20.852 -19.244  0.00  0.00    -0.020 C 
ATOM      3  C   UNL     1      36.784 -19.068 -20.763  0.00  0.00    +0.015 C 
ATOM      4  C   UNL     1      34.515 -19.895 -20.689  0.00  0.00    +0.015 C 
ATOM      5  C   UNL     1      37.149 -19.982 -19.774  0.00  0.00    -0.003 C 
ATOM      6  C   UNL     1      34.880 -20.809 -19.700  0.00  0.00    -0.003 C 
ENDROOT
BRANCH   1   7
ATOM      7  N   UNL     1      35.104 -18.118 -22.200  0.00  0.00    -0.242 N 
ATOM      8  N   UNL     1      34.581 -17.323 -24.209  0.00  0.00    -0.387 NA
ATOM      9  N   UNL     1      34.252 -14.133 -22.356  0.00  0.00    -0.408 NA
ATOM     10  C   UNL     1      34.860 -16.783 -22.013  0.00  0.00    +0.091 C 
ATOM     11  C   UNL     1      34.924 -18.393 -23.527  0.00  0.00    +0.168 C 
ATOM     12  C   UNL     1      34.537 -16.310 -23.281  0.00  0.00    +0.172 C 
ATOM     13  C   UNL     1      34.893 -15.972 -20.887  0.00  0.00    +0.045 C 
ATOM     14  C   UNL     1      34.230 -14.957 -23.433  0.00  0.00    +0.140 C 
ATOM     15  C   UNL     1      34.574 -14.646 -21.143  0.00  0.00    +0.110 C 
ATOM     16  C   UNL     1      33.870 -14.344 -24.743  0.00  0.00    +0.069 C 
ATOM     17  C   UNL     1      34.577 -13.679 -20.003  0.00  0.00    +0.066 C 
BRANCH  11  18
ATOM     18  C   UNL     1      35.104 -19.748 -24.093  0.00  0.00    +0.075 C 
ATOM     19  C   UNL     1      33.897 -20.210 -24.915  0.00  0.00    +0.009 C 
ENDBRANCH  11  18
ENDBRANCH   1   7
BRANCH   2  20
ATOM     20  C   UNL     1      36.589 -21.829 -18.186  0.00  0.00    +0.048 C 
BRANCH  20  21
ATOM     21  C   UNL     1      37.056 -21.168 -16.884  0.00  0.00    +0.096 C 
BRANCH  21  23
ATOM     22  O   UNL     1      36.425 -23.723 -15.733  0.00  0.00    -0.251 OA
ATOM     23  N   UNL     1      36.160 -21.426 -15.789  0.00  0.00    -0.287 N 
ATOM     24  N   UNL     1      34.982 -22.697 -14.208  0.00  0.00    -0.169 N 
ATOM     25  C   UNL     1      35.913 -22.697 -15.295  0.00  0.00    +0.319 C 
ATOM     26  H   UNL     1      35.700 -20.663 -15.370  0.00  0.00    +0.151 HD
ATOM     27  H   UNL     1      34.618 -21.828 -13.925  0.00  0.00    +0.178 HD
BRANCH  24  28
ATOM     28  S   UNL     1      34.450 -24.084 -13.363  0.00  0.00    +0.077 S 
ATOM     29  O   UNL     1      35.163 -25.248 -13.852  0.00  0.00    -0.150 OA
ATOM     30  O   UNL     1      34.406 -23.792 -11.942  0.00  0.00    -0.150 OA
BRANCH  28  31
ATOM     31  C   UNL     1      32.774 -24.194 -13.914  0.00  0.00    +0.125 C 
ATOM     32  C   UNL     1      32.335 -23.346 -14.916  0.00  0.00    +0.020 C 
ATOM     33  C   UNL     1      31.931 -25.125 -13.332  0.00  0.00    +0.020 C 
ATOM     34  C   UNL     1      30.150 -24.366 -14.776  0.00  0.00    -0.022 C 
ATOM     35  C   UNL     1      31.012 -23.434 -15.351  0.00  0.00    -0.003 C 
ATOM     36  C   UNL     1      30.609 -25.212 -13.767  0.00  0.00    -0.003 C 
ATOM     37  C   UNL     1      28.736 -24.459 -15.242  0.00  0.00    +0.031 C 
ENDBRANCH  28  31
ENDBRANCH  24  28
ENDBRANCH  21  23
ENDBRANCH  20  21
ENDBRANCH   2  20
TORSDOF 7
ENDMDL
MODEL 5
REMARK VINA RESULT:     -11.7      1.645      2.545
REMARK  Name = 11677589
REMARK  7 active torsions:
REMARK  status: ('A' for Active; 'I' for Inactive)
REMARK    1  A    between atoms: C_1  and  N_7
REMARK    2  A    between atoms: C_2  and  C_20
REMARK    3  A    between atoms: C_11  and  C_18
REMARK    4  A    between atoms: C_20  and  C_21
REMARK    5  A    between atoms: C_21  and  N_23
REMARK    6  A    between atoms: N_24  and  S_28
REMARK    7  A    between atoms: S_28  and  C_31
REMARK                            x       y       z     vdW  Elec       q    Type
REMARK                         _______ _______ _______ _____ _____    ______ ____
ROOT
ATOM      1  C   UNL     1      34.505 -22.771 -16.732  0.00  0.00    +0.058 C 
ATOM      2  C   UNL     1      35.798 -21.452 -18.806  0.00  0.00    -0.020 C 
ATOM      3  C   UNL     1      33.866 -22.627 -17.957  0.00  0.00    +0.015 C 
ATOM      4  C   UNL     1      35.782 -22.265 -16.531  0.00  0.00    +0.015 C 
ATOM      5  C   UNL     1      34.515 -21.964 -18.998  0.00  0.00    -0.003 C 
ATOM      6  C   UNL     1      36.432 -21.602 -17.572  0.00  0.00    -0.003 C 
ENDROOT
BRANCH   1   7
ATOM      7  N   UNL     1      33.856 -23.433 -15.690  0.00  0.00    -0.242 N 
ATOM      8  N   UNL     1      33.575 -24.678 -13.869  0.00  0.00    -0.387 NA
ATOM      9  N   UNL     1      29.998 -23.914 -14.455  0.00  0.00    -0.408 NA
ATOM     10  C   UNL     1      32.503 -23.455 -15.466  0.00  0.00    +0.091 C 
ATOM     11  C   UNL     1      34.453 -24.178 -14.710  0.00  0.00    +0.168 C 
ATOM     12  C   UNL     1      32.355 -24.238 -14.325  0.00  0.00    +0.172 C 
ATOM     13  C   UNL     1      31.433 -22.881 -16.136  0.00  0.00    +0.045 C 
ATOM     14  C   UNL     1      31.070 -24.458 -13.827  0.00  0.00    +0.140 C 
ATOM     15  C   UNL     1      30.200 -23.159 -15.563  0.00  0.00    +0.110 C 
ATOM     16  C   UNL     1      30.794 -25.279 -12.613  0.00  0.00    +0.069 C 
ATOM     17  C   UNL     1      28.973 -22.592 -16.200  0.00  0.00    +0.066 C 
BRANCH  11  18
ATOM     18  C   UNL     1      35.917 -24.374 -14.638  0.00  0.00    +0.075 C 
ATOM     19  C   UNL     1      36.315 -25.854 -14.644  0.00  0.00    +0.009 C 
ENDBRANCH  11  18
ENDBRANCH   1   7
BRANCH   2  20
ATOM     20  C   UNL     1      36.492 -20.743 -19.919  0.00  0.00    +0.048 C 
BRANCH  20  21
ATOM     21  C   UNL     1      35.574 -20.411 -21.101  0.00  0.00    +0.096 C 
BRANCH  21  23
ATOM     22  O   UNL     1      34.232 -19.155 -23.309  0.00  0.00    -0.251 OA
ATOM     23  N   UNL     1      35.720 -19.049 -21.540  0.00  0.00    -0.287 N 
ATOM     24  N   UNL     1      35.347 -17.150 -22.866  0.00  0.00    -0.169 N 
ATOM     25  C   UNL     1      35.030 -18.524 -22.621  0.00  0.00    +0.319 C 
ATOM     26  H   UNL     1      36.340 -18.462 -21.051  0.00  0.00    +0.151 HD
ATOM     27  H   UNL     1      36.002 -16.724 -22.266  0.00  0.00    +0.178 HD
BRANCH  24  28
ATOM     28  S   UNL     1      34.683 -16.189 -24.114  0.00  0.00    +0.077 S 
ATOM     29  O   UNL     1      35.758 -15.592 -24.884  0.00  0.00    -0.150 OA
ATOM     30  O   UNL     1      33.626 -16.928 -24.777  0.00  0.00    -0.150 OA
BRANCH  28  31
ATOM     31  C   UNL     1      33.902 -14.910 -23.177  0.00  0.00    +0.125 C 
ATOM     32  C   UNL     1      33.079 -14.004 -23.823  0.00  0.00    +0.020 C 
ATOM     33  C   UNL     1      34.127 -14.838 -21.813  0.00  0.00    +0.020 C 
ATOM     34  C   UNL     1      32.678 -12.907 -21.709  0.00  0.00    -0.022 C 
ATOM     35  C   UNL     1      32.463 -12.995 -23.083  0.00  0.00    -0.003 C 
ATOM     36  C   UNL     1      33.510 -13.829 -21.073  0.00  0.00    -0.003 C 
ATOM     37  C   UNL     1      32.018 -11.830 -20.918  0.00  0.00    +0.031 C 
ENDBRANCH  28  31
ENDBRANCH  24  28
ENDBRANCH  21  23
ENDBRANCH  20  21
ENDBRANCH   2  20
TORSDOF 7
ENDMDL
MODEL 6
REMARK VINA RESULT:     -11.3      5.539     11.690
REMARK  Name = 11677589
REMARK  7 active torsions:
REMARK  status: ('A' for Active; 'I' for Inactive)
REMARK    1  A    between atoms: C_1  and  N_7
REMARK    2  A    between atoms: C_2  and  C_20
REMARK    3  A    between atoms: C_11  and  C_18
REMARK    4  A    between atoms: C_20  and  C_21
REMARK    5  A    between atoms: C_21  and  N_23
REMARK    6  A    between atoms: N_24  and  S_28
REMARK    7  A    between atoms: S_28  and  C_31
REMARK                            x       y       z     vdW  Elec       q    Type
REMARK                         _______ _______ _______ _____ _____    ______ ____
ROOT
ATOM      1  C   UNL     1      35.236 -19.091 -21.208  0.00  0.00    +0.058 C 
ATOM      2  C   UNL     1      35.762 -21.001 -19.263  0.00  0.00    -0.020 C 
ATOM      3  C   UNL     1      36.537 -19.267 -20.756  0.00  0.00    +0.015 C 
ATOM      4  C   UNL     1      34.195 -19.857 -20.702  0.00  0.00    +0.015 C 
ATOM      5  C   UNL     1      36.801 -20.227 -19.778  0.00  0.00    -0.003 C 
ATOM      6  C   UNL     1      34.458 -20.816 -19.724  0.00  0.00    -0.003 C 
ENDROOT
BRANCH   1   7
ATOM      7  N   UNL     1      34.971 -18.131 -22.186  0.00  0.00    -0.242 N 
ATOM      8  N   UNL     1      34.586 -17.255 -24.193  0.00  0.00    -0.387 NA
ATOM      9  N   UNL     1      34.386 -14.095 -22.269  0.00  0.00    -0.408 NA
ATOM     10  C   UNL     1      34.807 -16.787 -21.973  0.00  0.00    +0.091 C 
ATOM     11  C   UNL     1      34.830 -18.361 -23.527  0.00  0.00    +0.168 C 
ATOM     12  C   UNL     1      34.568 -16.263 -23.241  0.00  0.00    +0.172 C 
ATOM     13  C   UNL     1      34.845 -16.008 -20.825  0.00  0.00    +0.045 C 
ATOM     14  C   UNL     1      34.356 -14.890 -23.368  0.00  0.00    +0.140 C 
ATOM     15  C   UNL     1      34.623 -14.658 -21.059  0.00  0.00    +0.110 C 
ATOM     16  C   UNL     1      34.091 -14.223 -24.675  0.00  0.00    +0.069 C 
ATOM     17  C   UNL     1      34.641 -13.721 -19.894  0.00  0.00    +0.066 C 
BRANCH  11  18
ATOM     18  C   UNL     1      34.946 -19.711 -24.120  0.00  0.00    +0.075 C 
ATOM     19  C   UNL     1      33.672 -20.145 -24.853  0.00  0.00    +0.009 C 
ENDBRANCH  11  18
ENDBRANCH   1   7
BRANCH   2  20
ATOM     20  C   UNL     1      36.045 -22.027 -18.217  0.00  0.00    +0.048 C 
BRANCH  20  21
ATOM     21  C   UNL     1      36.462 -21.428 -16.869  0.00  0.00    +0.096 C 
BRANCH  21  23
ATOM     22  O   UNL     1      36.561 -23.883 -15.380  0.00  0.00    -0.251 OA
ATOM     23  N   UNL     1      37.633 -22.064 -16.327  0.00  0.00    -0.287 N 
ATOM     24  N   UNL     1      38.881 -23.685 -15.178  0.00  0.00    -0.169 N 
ATOM     25  C   UNL     1      37.589 -23.254 -15.618  0.00  0.00    +0.319 C 
ATOM     26  H   UNL     1      38.507 -21.634 -16.466  0.00  0.00    +0.151 HD
ATOM     27  H   UNL     1      39.650 -23.116 -15.410  0.00  0.00    +0.178 HD
BRANCH  24  28
ATOM     28  S   UNL     1      39.197 -25.104 -14.280  0.00  0.00    +0.077 S 
ATOM     29  O   UNL     1      38.714 -26.256 -15.017  0.00  0.00    -0.150 OA
ATOM     30  O   UNL     1      40.561 -25.065 -13.787  0.00  0.00    -0.150 OA
BRANCH  28  31
ATOM     31  C   UNL     1      38.142 -24.863 -12.883  0.00  0.00    +0.125 C 
ATOM     32  C   UNL     1      38.161 -23.646 -12.223  0.00  0.00    +0.020 C 
ATOM     33  C   UNL     1      37.316 -25.895 -12.473  0.00  0.00    +0.020 C 
ATOM     34  C   UNL     1      36.489 -24.485 -10.694  0.00  0.00    -0.022 C 
ATOM     35  C   UNL     1      37.328 -23.456 -11.120  0.00  0.00    -0.003 C 
ATOM     36  C   UNL     1      36.483 -25.705 -11.370  0.00  0.00    -0.003 C 
ATOM     37  C   UNL     1      35.598 -24.281  -9.516  0.00  0.00    +0.031 C 
ENDBRANCH  28  31
ENDBRANCH  24  28
ENDBRANCH  21  23
ENDBRANCH  20  21
ENDBRANCH   2  20
TORSDOF 7
ENDMDL
MODEL 7
REMARK VINA RESULT:     -10.9      5.101     11.774
REMARK  Name = 11677589
REMARK  7 active torsions:
REMARK  status: ('A' for Active; 'I' for Inactive)
REMARK    1  A    between atoms: C_1  and  N_7
REMARK    2  A    between atoms: C_2  and  C_20
REMARK    3  A    between atoms: C_11  and  C_18
REMARK    4  A    between atoms: C_20  and  C_21
REMARK    5  A    between atoms: C_21  and  N_23
REMARK    6  A    between atoms: N_24  and  S_28
REMARK    7  A    between atoms: S_28  and  C_31
REMARK                            x       y       z     vdW  Elec       q    Type
REMARK                         _______ _______ _______ _____ _____    ______ ____
ROOT
ATOM      1  C   UNL     1      35.221 -18.648 -21.427  0.00  0.00    +0.058 C 
ATOM      2  C   UNL     1      35.841 -20.625 -19.578  0.00  0.00    -0.020 C 
ATOM      3  C   UNL     1      36.538 -18.818 -21.021  0.00  0.00    +0.015 C 
ATOM      4  C   UNL     1      34.209 -19.454 -20.921  0.00  0.00    +0.015 C 
ATOM      5  C   UNL     1      36.849 -19.811 -20.092  0.00  0.00    -0.003 C 
ATOM      6  C   UNL     1      34.520 -20.447 -19.991  0.00  0.00    -0.003 C 
ENDROOT
BRANCH   1   7
ATOM      7  N   UNL     1      34.909 -17.655 -22.356  0.00  0.00    -0.242 N 
ATOM      8  N   UNL     1      34.434 -16.708 -24.311  0.00  0.00    -0.387 NA
ATOM      9  N   UNL     1      34.297 -13.623 -22.264  0.00  0.00    -0.408 NA
ATOM     10  C   UNL     1      34.746 -16.321 -22.087  0.00  0.00    +0.091 C 
ATOM     11  C   UNL     1      34.712 -17.837 -23.697  0.00  0.00    +0.168 C 
ATOM     12  C   UNL     1      34.450 -15.753 -23.322  0.00  0.00    +0.172 C 
ATOM     13  C   UNL     1      34.828 -15.584 -20.913  0.00  0.00    +0.045 C 
ATOM     14  C   UNL     1      34.225 -14.378 -23.389  0.00  0.00    +0.140 C 
ATOM     15  C   UNL     1      34.588 -14.228 -21.087  0.00  0.00    +0.110 C 
ATOM     16  C   UNL     1      33.901 -13.664 -24.658  0.00  0.00    +0.069 C 
ATOM     17  C   UNL     1      34.650 -13.335 -19.890  0.00  0.00    +0.066 C 
BRANCH  11  18
ATOM     18  C   UNL     1      34.811 -19.162 -24.345  0.00  0.00    +0.075 C 
ATOM     19  C   UNL     1      33.440 -19.770 -24.658  0.00  0.00    +0.009 C 
ENDBRANCH  11  18
ENDBRANCH   1   7
BRANCH   2  20
ATOM     20  C   UNL     1      36.173 -21.686 -18.584  0.00  0.00    +0.048 C 
BRANCH  20  21
ATOM     21  C   UNL     1      34.946 -22.253 -17.859  0.00  0.00    +0.096 C 
BRANCH  21  23
ATOM     22  O   UNL     1      35.004 -24.434 -15.991  0.00  0.00    -0.251 OA
ATOM     23  N   UNL     1      35.067 -22.164 -16.429  0.00  0.00    -0.287 N 
ATOM     24  N   UNL     1      35.209 -22.928 -14.215  0.00  0.00    -0.169 N 
ATOM     25  C   UNL     1      35.087 -23.273 -15.599  0.00  0.00    +0.319 C 
ATOM     26  H   UNL     1      35.138 -21.272 -16.019  0.00  0.00    +0.151 HD
ATOM     27  H   UNL     1      35.264 -21.971 -13.992  0.00  0.00    +0.178 HD
BRANCH  24  28
ATOM     28  S   UNL     1      35.265 -24.042 -12.920  0.00  0.00    +0.077 S 
ATOM     29  O   UNL     1      35.322 -23.317 -11.665  0.00  0.00    -0.150 OA
ATOM     30  O   UNL     1      34.264 -25.071 -13.130  0.00  0.00    -0.150 OA
BRANCH  28  31
ATOM     31  C   UNL     1      36.839 -24.797 -13.191  0.00  0.00    +0.125 C 
ATOM     32  C   UNL     1      37.972 -24.211 -12.654  0.00  0.00    +0.020 C 
ATOM     33  C   UNL     1      36.911 -25.962 -13.936  0.00  0.00    +0.020 C 
ATOM     34  C   UNL     1      39.305 -25.981 -13.616  0.00  0.00    -0.022 C 
ATOM     35  C   UNL     1      39.215 -24.808 -12.868  0.00  0.00    -0.003 C 
ATOM     36  C   UNL     1      38.153 -26.559 -14.150  0.00  0.00    -0.003 C 
ATOM     37  C   UNL     1      40.633 -26.620 -13.843  0.00  0.00    +0.031 C 
ENDBRANCH  28  31
ENDBRANCH  24  28
ENDBRANCH  21  23
ENDBRANCH  20  21
ENDBRANCH   2  20
TORSDOF 7
ENDMDL
MODEL 8
REMARK VINA RESULT:     -10.8      5.167     14.205
REMARK  Name = 11677589
REMARK  7 active torsions:
REMARK  status: ('A' for Active; 'I' for Inactive)
REMARK    1  A    between atoms: C_1  and  N_7
REMARK    2  A    between atoms: C_2  and  C_20
REMARK    3  A    between atoms: C_11  and  C_18
REMARK    4  A    between atoms: C_20  and  C_21
REMARK    5  A    between atoms: C_21  and  N_23
REMARK    6  A    between atoms: N_24  and  S_28
REMARK    7  A    between atoms: S_28  and  C_31
REMARK                            x       y       z     vdW  Elec       q    Type
REMARK                         _______ _______ _______ _____ _____    ______ ____
ROOT
ATOM      1  C   UNL     1      33.010  -7.546 -22.839  0.00  0.00    +0.058 C 
ATOM      2  C   UNL     1      33.810 -10.082 -23.637  0.00  0.00    -0.020 C 
ATOM      3  C   UNL     1      32.054  -8.532 -23.047  0.00  0.00    +0.015 C 
ATOM      4  C   UNL     1      34.361  -7.812 -23.024  0.00  0.00    +0.015 C 
ATOM      5  C   UNL     1      32.457  -9.806 -23.449  0.00  0.00    -0.003 C 
ATOM      6  C   UNL     1      34.763  -9.086 -23.426  0.00  0.00    -0.003 C 
ENDROOT
BRANCH   1   7
ATOM      7  N   UNL     1      32.609  -6.271 -22.437  0.00  0.00    -0.242 N 
ATOM      8  N   UNL     1      32.102  -4.576 -21.092  0.00  0.00    -0.387 NA
ATOM      9  N   UNL     1      31.416  -2.840 -24.291  0.00  0.00    -0.408 NA
ATOM     10  C   UNL     1      32.242  -5.243 -23.266  0.00  0.00    +0.091 C 
ATOM     11  C   UNL     1      32.510  -5.824 -21.149  0.00  0.00    +0.168 C 
ATOM     12  C   UNL     1      31.930  -4.197 -22.402  0.00  0.00    +0.172 C 
ATOM     13  C   UNL     1      32.156  -5.137 -24.647  0.00  0.00    +0.045 C 
ATOM     14  C   UNL     1      31.513  -2.982 -22.946  0.00  0.00    +0.140 C 
ATOM     15  C   UNL     1      31.731  -3.891 -25.087  0.00  0.00    +0.110 C 
ATOM     16  C   UNL     1      31.155  -1.797 -22.115  0.00  0.00    +0.069 C 
ATOM     17  C   UNL     1      31.601  -3.660 -26.558  0.00  0.00    +0.066 C 
BRANCH  11  18
ATOM     18  C   UNL     1      32.830  -6.675 -19.983  0.00  0.00    +0.075 C 
ATOM     19  C   UNL     1      31.762  -7.741 -19.718  0.00  0.00    +0.009 C 
ENDBRANCH  11  18
ENDBRANCH   1   7
BRANCH   2  20
ATOM     20  C   UNL     1      34.240 -11.445 -24.067  0.00  0.00    +0.048 C 
BRANCH  20  21
ATOM     21  C   UNL     1      33.095 -12.463 -24.111  0.00  0.00    +0.096 C 
BRANCH  21  23
ATOM     22  O   UNL     1      33.540 -14.876 -25.605  0.00  0.00    -0.251 OA
ATOM     23  N   UNL     1      33.483 -13.745 -23.588  0.00  0.00    -0.287 N 
ATOM     24  N   UNL     1      34.054 -16.020 -23.633  0.00  0.00    -0.169 N 
ATOM     25  C   UNL     1      33.677 -14.862 -24.385  0.00  0.00    +0.319 C 
ATOM     26  H   UNL     1      33.617 -13.834 -22.617  0.00  0.00    +0.151 HD
ATOM     27  H   UNL     1      34.137 -15.918 -22.657  0.00  0.00    +0.178 HD
BRANCH  24  28
ATOM     28  S   UNL     1      34.372 -17.565 -24.291  0.00  0.00    +0.077 S 
ATOM     29  O   UNL     1      33.123 -18.180 -24.698  0.00  0.00    -0.150 OA
ATOM     30  O   UNL     1      35.483 -17.472 -25.219  0.00  0.00    -0.150 OA
BRANCH  28  31
ATOM     31  C   UNL     1      34.969 -18.423 -22.866  0.00  0.00    +0.125 C 
ATOM     32  C   UNL     1      34.221 -19.462 -22.339  0.00  0.00    +0.020 C 
ATOM     33  C   UNL     1      36.174 -18.040 -22.302  0.00  0.00    +0.020 C 
ATOM     34  C   UNL     1      35.905 -19.767 -20.633  0.00  0.00    -0.022 C 
ATOM     35  C   UNL     1      34.693 -20.139 -21.214  0.00  0.00    -0.003 C 
ATOM     36  C   UNL     1      36.646 -18.718 -21.177  0.00  0.00    -0.003 C 
ATOM     37  C   UNL     1      36.409 -20.492 -19.432  0.00  0.00    +0.031 C 
ENDBRANCH  28  31
ENDBRANCH  24  28
ENDBRANCH  21  23
ENDBRANCH  20  21
ENDBRANCH   2  20
TORSDOF 7
ENDMDL
MODEL 9
REMARK VINA RESULT:     -10.6      5.881     15.174
REMARK  Name = 11677589
REMARK  7 active torsions:
REMARK  status: ('A' for Active; 'I' for Inactive)
REMARK    1  A    between atoms: C_1  and  N_7
REMARK    2  A    between atoms: C_2  and  C_20
REMARK    3  A    between atoms: C_11  and  C_18
REMARK    4  A    between atoms: C_20  and  C_21
REMARK    5  A    between atoms: C_21  and  N_23
REMARK    6  A    between atoms: N_24  and  S_28
REMARK    7  A    between atoms: S_28  and  C_31
REMARK                            x       y       z     vdW  Elec       q    Type
REMARK                         _______ _______ _______ _____ _____    ______ ____
ROOT
ATOM      1  C   UNL     1      32.397  -6.266 -23.039  0.00  0.00    +0.058 C 
ATOM      2  C   UNL     1      32.038  -8.575 -21.540  0.00  0.00    -0.020 C 
ATOM      3  C   UNL     1      33.297  -6.572 -22.026  0.00  0.00    +0.015 C 
ATOM      4  C   UNL     1      31.320  -7.099 -23.313  0.00  0.00    +0.015 C 
ATOM      5  C   UNL     1      33.116  -7.732 -21.273  0.00  0.00    -0.003 C 
ATOM      6  C   UNL     1      31.139  -8.259 -22.559  0.00  0.00    -0.003 C 
ENDROOT
BRANCH   1   7
ATOM      7  N   UNL     1      32.577  -5.105 -23.793  0.00  0.00    -0.242 N 
ATOM      8  N   UNL     1      32.373  -2.985 -24.431  0.00  0.00    -0.387 NA
ATOM      9  N   UNL     1      34.651  -4.063 -27.147  0.00  0.00    -0.408 NA
ATOM     10  C   UNL     1      33.347  -4.987 -24.920  0.00  0.00    +0.091 C 
ATOM     11  C   UNL     1      32.016  -3.883 -23.541  0.00  0.00    +0.168 C 
ATOM     12  C   UNL     1      33.203  -3.655 -25.299  0.00  0.00    +0.172 C 
ATOM     13  C   UNL     1      34.130  -5.894 -25.621  0.00  0.00    +0.045 C 
ATOM     14  C   UNL     1      33.876  -3.206 -26.435  0.00  0.00    +0.140 C 
ATOM     15  C   UNL     1      34.756  -5.350 -26.733  0.00  0.00    +0.110 C 
ATOM     16  C   UNL     1      33.794  -1.802 -26.932  0.00  0.00    +0.069 C 
ATOM     17  C   UNL     1      35.626  -6.235 -27.565  0.00  0.00    +0.066 C 
BRANCH  11  18
ATOM     18  C   UNL     1      31.118  -3.640 -22.391  0.00  0.00    +0.075 C 
ATOM     19  C   UNL     1      30.514  -2.232 -22.401  0.00  0.00    +0.009 C 
ENDBRANCH  11  18
ENDBRANCH   1   7
BRANCH   2  20
ATOM     20  C   UNL     1      31.845  -9.816 -20.734  0.00  0.00    +0.048 C 
BRANCH  20  21
ATOM     21  C   UNL     1      30.734 -10.727 -21.270  0.00  0.00    +0.096 C 
BRANCH  21  23
ATOM     22  O   UNL     1      32.662 -11.280 -23.326  0.00  0.00    -0.251 OA
ATOM     23  N   UNL     1      31.230 -12.018 -21.666  0.00  0.00    -0.287 N 
ATOM     24  N   UNL     1      32.496 -13.569 -22.888  0.00  0.00    -0.169 N 
ATOM     25  C   UNL     1      32.164 -12.193 -22.674  0.00  0.00    +0.319 C 
ATOM     26  H   UNL     1      30.888 -12.815 -21.200  0.00  0.00    +0.151 HD
ATOM     27  H   UNL     1      32.045 -14.236 -22.322  0.00  0.00    +0.178 HD
BRANCH  24  28
ATOM     28  S   UNL     1      33.609 -14.148 -24.048  0.00  0.00    +0.077 S 
ATOM     29  O   UNL     1      32.884 -14.703 -25.176  0.00  0.00    -0.150 OA
ATOM     30  O   UNL     1      34.645 -13.154 -24.257  0.00  0.00    -0.150 OA
BRANCH  28  31
ATOM     31  C   UNL     1      34.355 -15.484 -23.163  0.00  0.00    +0.125 C 
ATOM     32  C   UNL     1      34.703 -16.637 -23.846  0.00  0.00    +0.020 C 
ATOM     33  C   UNL     1      34.578 -15.353 -21.804  0.00  0.00    +0.020 C 
ATOM     34  C   UNL     1      35.524 -17.576 -21.777  0.00  0.00    -0.022 C 
ATOM     35  C   UNL     1      35.292 -17.691 -23.147  0.00  0.00    -0.003 C 
ATOM     36  C   UNL     1      35.167 -16.407 -21.105  0.00  0.00    -0.003 C 
ATOM     37  C   UNL     1      36.154 -18.702 -21.030  0.00  0.00    +0.031 C 
ENDBRANCH  28  31
ENDBRANCH  24  28
ENDBRANCH  21  23
ENDBRANCH  20  21
ENDBRANCH   2  20
TORSDOF 7
ENDMDL
