MODEL 1
REMARK VINA RESULT:     -12.4      0.000      0.000
REMARK  Name = 72696796
REMARK  9 active torsions:
REMARK  status: ('A' for Active; 'I' for Inactive)
REMARK    1  A    between atoms: N_2  and  C_29
REMARK    2  A    between atoms: C_10  and  C_12
REMARK    3  A    between atoms: C_13  and  C_16
REMARK    4  A    between atoms: N_15  and  C_18
REMARK    5  A    between atoms: C_18  and  C_20
REMARK    6  A    between atoms: C_29  and  O_30
REMARK    7  A    between atoms: O_30  and  P_31
REMARK    8  A    between atoms: P_31  and  O_33
REMARK    9  A    between atoms: P_31  and  O_35
REMARK                            x       y       z     vdW  Elec       q    Type
REMARK                         _______ _______ _______ _____ _____    ______ ____
ROOT
ATOM      1  O   UNL     1      33.799 -24.193 -14.207  0.00  0.00    -0.274 OA
ATOM      2  N   UNL     1      34.979 -23.069 -15.872  0.00  0.00    -0.217 N 
ATOM      3  N   UNL     1      36.135 -21.981 -17.681  0.00  0.00    -0.229 NA
ATOM      4  C   UNL     1      32.457 -22.589 -17.111  0.00  0.00    +0.039 C 
ATOM      5  C   UNL     1      33.737 -22.195 -17.777  0.00  0.00    +0.010 C 
ATOM      6  C   UNL     1      32.672 -23.832 -16.272  0.00  0.00    +0.090 C 
ATOM      7  C   UNL     1      34.963 -22.409 -17.142  0.00  0.00    +0.135 C 
ATOM      8  C   UNL     1      33.851 -23.691 -15.332  0.00  0.00    +0.233 C 
ATOM      9  C   UNL     1      33.729 -21.523 -19.003  0.00  0.00    +0.000 C 
ATOM     10  C   UNL     1      34.922 -21.097 -19.570  0.00  0.00    +0.019 C 
ATOM     11  C   UNL     1      36.087 -21.347 -18.874  0.00  0.00    +0.100 C 
ENDROOT
BRANCH  10  12
ATOM     12  C   UNL     1      34.945 -20.424 -20.856  0.00  0.00    +0.006 C 
ATOM     13  C   UNL     1      35.020 -19.084 -21.037  0.00  0.00    +0.058 C 
BRANCH  13  16
ATOM     14  O   UNL     1      34.924 -19.258 -23.390  0.00  0.00    -0.270 OA
ATOM     15  N   UNL     1      35.053 -17.115 -22.500  0.00  0.00    -0.267 N 
ATOM     16  C   UNL     1      35.003 -18.509 -22.414  0.00  0.00    +0.250 C 
ATOM     17  C   UNL     1      35.009 -16.476 -23.809  0.00  0.00    +0.116 C 
BRANCH  15  18
ATOM     18  C   UNL     1      35.111 -16.205 -21.358  0.00  0.00    +0.158 C 
BRANCH  18  20
ATOM     19  O   UNL     1      34.816 -14.217 -22.719  0.00  0.00    -0.456 OA
ATOM     20  C   UNL     1      34.393 -14.914 -21.632  0.00  0.00    +0.139 A 
ATOM     21  C   UNL     1      33.363 -14.256 -21.002  0.00  0.00    +0.013 A 
ATOM     22  C   UNL     1      33.129 -13.071 -21.748  0.00  0.00    +0.033 A 
ATOM     23  C   UNL     1      34.049 -13.094 -22.791  0.00  0.00    +0.145 A 
ATOM     24  C   UNL     1      32.644 -14.699 -19.792  0.00  0.00    +0.034 C 
ATOM     25  C   UNL     1      32.245 -11.982 -21.655  0.00  0.00    +0.003 C 
ATOM     26  C   UNL     1      34.152 -12.100 -23.763  0.00  0.00    +0.037 C 
ATOM     27  C   UNL     1      32.325 -10.967 -22.618  0.00  0.00    +0.000 C 
ATOM     28  C   UNL     1      33.263 -11.027 -23.652  0.00  0.00    +0.003 C 
ENDBRANCH  18  20
ENDBRANCH  15  18
ENDBRANCH  13  16
ENDBRANCH  10  12
BRANCH   2  29
ATOM     29  C   UNL     1      36.238 -23.067 -15.135  0.00  0.00    +0.257 C 
BRANCH  29  30
ATOM     30  O   UNL     1      36.926 -24.275 -15.399  0.00  0.00    -0.251 OA
BRANCH  30  31
ATOM     31  P   UNL     1      37.521 -25.112 -14.148  0.00  0.00    +0.475 P 
ATOM     32  O   UNL     1      38.341 -24.319 -13.172  0.00  0.00    -0.227 OA
BRANCH  31  33
ATOM     33  O   UNL     1      38.300 -26.337 -14.859  0.00  0.00    -0.303 OA
ATOM     34  H   UNL     1      38.300 -26.207 -15.820  0.00  0.00    +0.222 HD
ENDBRANCH  31  33
BRANCH  31  35
ATOM     35  O   UNL     1      36.217 -25.828 -13.512  0.00  0.00    -0.303 OA
ATOM     36  H   UNL     1      36.497 -26.527 -12.901  0.00  0.00    +0.222 HD
ENDBRANCH  31  35
ENDBRANCH  30  31
ENDBRANCH  29  30
ENDBRANCH   2  29
TORSDOF 9
ENDMDL
MODEL 2
REMARK VINA RESULT:     -12.2      1.518      2.768
REMARK  Name = 72696796
REMARK  9 active torsions:
REMARK  status: ('A' for Active; 'I' for Inactive)
REMARK    1  A    between atoms: N_2  and  C_29
REMARK    2  A    between atoms: C_10  and  C_12
REMARK    3  A    between atoms: C_13  and  C_16
REMARK    4  A    between atoms: N_15  and  C_18
REMARK    5  A    between atoms: C_18  and  C_20
REMARK    6  A    between atoms: C_29  and  O_30
REMARK    7  A    between atoms: O_30  and  P_31
REMARK    8  A    between atoms: P_31  and  O_33
REMARK    9  A    between atoms: P_31  and  O_35
REMARK                            x       y       z     vdW  Elec       q    Type
REMARK                         _______ _______ _______ _____ _____    ______ ____
ROOT
ATOM      1  O   UNL     1      35.690 -23.723 -14.309  0.00  0.00    -0.274 OA
ATOM      2  N   UNL     1      34.620 -22.990 -16.245  0.00  0.00    -0.217 N 
ATOM      3  N   UNL     1      33.568 -22.116 -18.225  0.00  0.00    -0.229 NA
ATOM      4  C   UNL     1      37.170 -22.056 -17.110  0.00  0.00    +0.039 C 
ATOM      5  C   UNL     1      35.932 -21.781 -17.902  0.00  0.00    +0.010 C 
ATOM      6  C   UNL     1      36.836 -22.110 -15.633  0.00  0.00    +0.090 C 
ATOM      7  C   UNL     1      34.694 -22.272 -17.481  0.00  0.00    +0.135 C 
ATOM      8  C   UNL     1      35.683 -23.046 -15.340  0.00  0.00    +0.233 C 
ATOM      9  C   UNL     1      36.000 -21.107 -19.126  0.00  0.00    +0.000 C 
ATOM     10  C   UNL     1      34.853 -20.927 -19.886  0.00  0.00    +0.019 C 
ATOM     11  C   UNL     1      33.672 -21.448 -19.395  0.00  0.00    +0.100 C 
ENDROOT
BRANCH  10  12
ATOM     12  C   UNL     1      34.890 -20.205 -21.144  0.00  0.00    +0.006 C 
ATOM     13  C   UNL     1      34.927 -18.857 -21.272  0.00  0.00    +0.058 C 
BRANCH  13  16
ATOM     14  O   UNL     1      34.876 -18.942 -23.631  0.00  0.00    -0.270 OA
ATOM     15  N   UNL     1      34.965 -16.833 -22.658  0.00  0.00    -0.267 N 
ATOM     16  C   UNL     1      34.929 -18.230 -22.627  0.00  0.00    +0.250 C 
ATOM     17  C   UNL     1      34.938 -16.146 -23.943  0.00  0.00    +0.116 C 
BRANCH  15  18
ATOM     18  C   UNL     1      34.993 -15.967 -21.482  0.00  0.00    +0.158 C 
BRANCH  18  20
ATOM     19  O   UNL     1      34.666 -13.947 -22.786  0.00  0.00    -0.456 OA
ATOM     20  C   UNL     1      34.257 -14.678 -21.717  0.00  0.00    +0.139 A 
ATOM     21  C   UNL     1      33.222 -14.051 -21.065  0.00  0.00    +0.013 A 
ATOM     22  C   UNL     1      32.970 -12.848 -21.776  0.00  0.00    +0.033 A 
ATOM     23  C   UNL     1      33.884 -12.831 -22.824  0.00  0.00    +0.145 A 
ATOM     24  C   UNL     1      32.514 -14.535 -19.864  0.00  0.00    +0.034 C 
ATOM     25  C   UNL     1      32.072 -11.774 -21.650  0.00  0.00    +0.003 C 
ATOM     26  C   UNL     1      33.971 -11.810 -23.768  0.00  0.00    +0.037 C 
ATOM     27  C   UNL     1      32.135 -10.731 -22.585  0.00  0.00    +0.000 C 
ATOM     28  C   UNL     1      33.069 -10.751 -23.624  0.00  0.00    +0.003 C 
ENDBRANCH  18  20
ENDBRANCH  15  18
ENDBRANCH  13  16
ENDBRANCH  10  12
BRANCH   2  29
ATOM     29  C   UNL     1      33.371 -23.686 -15.952  0.00  0.00    +0.257 C 
BRANCH  29  30
ATOM     30  O   UNL     1      32.687 -22.988 -14.928  0.00  0.00    -0.251 OA
BRANCH  30  31
ATOM     31  P   UNL     1      32.062 -23.839 -13.701  0.00  0.00    +0.475 P 
ATOM     32  O   UNL     1      30.631 -24.259 -13.868  0.00  0.00    -0.227 OA
BRANCH  31  33
ATOM     33  O   UNL     1      32.356 -22.906 -12.414  0.00  0.00    -0.303 OA
ATOM     34  H   UNL     1      33.100 -22.313 -12.607  0.00  0.00    +0.222 HD
ENDBRANCH  31  33
BRANCH  31  35
ATOM     35  O   UNL     1      33.107 -25.061 -13.512  0.00  0.00    -0.303 OA
ATOM     36  H   UNL     1      33.549 -25.242 -14.355  0.00  0.00    +0.222 HD
ENDBRANCH  31  35
ENDBRANCH  30  31
ENDBRANCH  29  30
ENDBRANCH   2  29
TORSDOF 9
ENDMDL
MODEL 3
REMARK VINA RESULT:     -12.2      5.596     11.880
REMARK  Name = 72696796
REMARK  9 active torsions:
REMARK  status: ('A' for Active; 'I' for Inactive)
REMARK    1  A    between atoms: N_2  and  C_29
REMARK    2  A    between atoms: C_10  and  C_12
REMARK    3  A    between atoms: C_13  and  C_16
REMARK    4  A    between atoms: N_15  and  C_18
REMARK    5  A    between atoms: C_18  and  C_20
REMARK    6  A    between atoms: C_29  and  O_30
REMARK    7  A    between atoms: O_30  and  P_31
REMARK    8  A    between atoms: P_31  and  O_33
REMARK    9  A    between atoms: P_31  and  O_35
REMARK                            x       y       z     vdW  Elec       q    Type
REMARK                         _______ _______ _______ _____ _____    ______ ____
ROOT
ATOM      1  O   UNL     1      33.507  -6.552 -21.878  0.00  0.00    -0.274 OA
ATOM      2  N   UNL     1      32.705  -8.739 -21.935  0.00  0.00    -0.217 N 
ATOM      3  N   UNL     1      31.885 -10.993 -22.125  0.00  0.00    -0.229 NA
ATOM      4  C   UNL     1      34.919  -9.335 -23.630  0.00  0.00    +0.039 C 
ATOM      5  C   UNL     1      33.866 -10.357 -23.338  0.00  0.00    +0.010 C 
ATOM      6  C   UNL     1      34.306  -7.949 -23.631  0.00  0.00    +0.090 C 
ATOM      7  C   UNL     1      32.805 -10.059 -22.481  0.00  0.00    +0.135 C 
ATOM      8  C   UNL     1      33.499  -7.678 -22.379  0.00  0.00    +0.233 C 
ATOM      9  C   UNL     1      33.972 -11.657 -23.841  0.00  0.00    +0.000 C 
ATOM     10  C   UNL     1      33.027 -12.615 -23.499  0.00  0.00    +0.019 C 
ATOM     11  C   UNL     1      32.012 -12.235 -22.643  0.00  0.00    +0.100 C 
ENDROOT
BRANCH  10  12
ATOM     12  C   UNL     1      33.095 -13.963 -24.032  0.00  0.00    +0.006 C 
ATOM     13  C   UNL     1      34.063 -14.867 -23.750  0.00  0.00    +0.058 C 
BRANCH  13  16
ATOM     14  O   UNL     1      33.482 -16.369 -25.477  0.00  0.00    -0.270 OA
ATOM     15  N   UNL     1      34.700 -17.236 -23.697  0.00  0.00    -0.267 N 
ATOM     16  C   UNL     1      34.041 -16.216 -24.389  0.00  0.00    +0.250 C 
ATOM     17  C   UNL     1      34.748 -18.575 -24.272  0.00  0.00    +0.116 C 
BRANCH  15  18
ATOM     18  C   UNL     1      35.398 -17.072 -22.424  0.00  0.00    +0.158 C 
BRANCH  18  20
ATOM     19  O   UNL     1      34.046 -18.713 -21.256  0.00  0.00    -0.456 OA
ATOM     20  C   UNL     1      35.303 -18.303 -21.569  0.00  0.00    +0.139 A 
ATOM     21  C   UNL     1      36.241 -19.140 -21.012  0.00  0.00    +0.013 A 
ATOM     22  C   UNL     1      35.520 -20.137 -20.305  0.00  0.00    +0.033 A 
ATOM     23  C   UNL     1      34.175 -19.830 -20.485  0.00  0.00    +0.145 A 
ATOM     24  C   UNL     1      37.707 -19.022 -21.130  0.00  0.00    +0.034 C 
ATOM     25  C   UNL     1      35.854 -21.263 -19.533  0.00  0.00    +0.003 C 
ATOM     26  C   UNL     1      33.125 -20.571 -19.946  0.00  0.00    +0.037 C 
ATOM     27  C   UNL     1      34.819 -22.029 -18.977  0.00  0.00    +0.000 C 
ATOM     28  C   UNL     1      33.480 -21.687 -19.182  0.00  0.00    +0.003 C 
ENDBRANCH  18  20
ENDBRANCH  15  18
ENDBRANCH  13  16
ENDBRANCH  10  12
BRANCH   2  29
ATOM     29  C   UNL     1      31.731  -8.529 -20.870  0.00  0.00    +0.257 C 
BRANCH  29  30
ATOM     30  O   UNL     1      32.324  -8.873 -19.632  0.00  0.00    -0.251 OA
BRANCH  30  31
ATOM     31  P   UNL     1      31.628 -10.031 -18.740  0.00  0.00    +0.475 P 
ATOM     32  O   UNL     1      30.127 -10.044 -18.755  0.00  0.00    -0.227 OA
BRANCH  31  33
ATOM     33  O   UNL     1      32.296  -9.827 -17.282  0.00  0.00    -0.303 OA
ATOM     34  H   UNL     1      32.955 -10.522 -17.128  0.00  0.00    +0.222 HD
ENDBRANCH  31  33
BRANCH  31  35
ATOM     35  O   UNL     1      32.321 -11.393 -19.272  0.00  0.00    -0.303 OA
ATOM     36  H   UNL     1      33.075 -11.171 -19.842  0.00  0.00    +0.222 HD
ENDBRANCH  31  35
ENDBRANCH  30  31
ENDBRANCH  29  30
ENDBRANCH   2  29
TORSDOF 9
ENDMDL
MODEL 4
REMARK VINA RESULT:     -12.1      6.111     12.854
REMARK  Name = 72696796
REMARK  9 active torsions:
REMARK  status: ('A' for Active; 'I' for Inactive)
REMARK    1  A    between atoms: N_2  and  C_29
REMARK    2  A    between atoms: C_10  and  C_12
REMARK    3  A    between atoms: C_13  and  C_16
REMARK    4  A    between atoms: N_15  and  C_18
REMARK    5  A    between atoms: C_18  and  C_20
REMARK    6  A    between atoms: C_29  and  O_30
REMARK    7  A    between atoms: O_30  and  P_31
REMARK    8  A    between atoms: P_31  and  O_33
REMARK    9  A    between atoms: P_31  and  O_35
REMARK                            x       y       z     vdW  Elec       q    Type
REMARK                         _______ _______ _______ _____ _____    ______ ____
ROOT
ATOM      1  O   UNL     1      31.848  -7.346 -19.882  0.00  0.00    -0.274 OA
ATOM      2  N   UNL     1      32.550  -8.730 -21.619  0.00  0.00    -0.217 N 
ATOM      3  N   UNL     1      33.323 -10.242 -23.324  0.00  0.00    -0.229 NA
ATOM      4  C   UNL     1      31.227 -10.851 -20.249  0.00  0.00    +0.039 C 
ATOM      5  C   UNL     1      32.040 -11.108 -21.478  0.00  0.00    +0.010 C 
ATOM      6  C   UNL     1      31.817  -9.691 -19.473  0.00  0.00    +0.090 C 
ATOM      7  C   UNL     1      32.656 -10.053 -22.156  0.00  0.00    +0.135 C 
ATOM      8  C   UNL     1      32.037  -8.472 -20.346  0.00  0.00    +0.233 C 
ATOM      9  C   UNL     1      32.123 -12.392 -22.026  0.00  0.00    +0.000 C 
ATOM     10  C   UNL     1      32.818 -12.599 -23.210  0.00  0.00    +0.019 C 
ATOM     11  C   UNL     1      33.394 -11.500 -23.814  0.00  0.00    +0.100 C 
ENDROOT
BRANCH  10  12
ATOM     12  C   UNL     1      32.946 -13.925 -23.784  0.00  0.00    +0.006 C 
ATOM     13  C   UNL     1      34.008 -14.750 -23.620  0.00  0.00    +0.058 C 
BRANCH  13  16
ATOM     14  O   UNL     1      33.517 -16.220 -25.402  0.00  0.00    -0.270 OA
ATOM     15  N   UNL     1      34.695 -17.105 -23.604  0.00  0.00    -0.267 N 
ATOM     16  C   UNL     1      34.036 -16.082 -24.292  0.00  0.00    +0.250 C 
ATOM     17  C   UNL     1      34.792 -18.428 -24.208  0.00  0.00    +0.116 C 
BRANCH  15  18
ATOM     18  C   UNL     1      35.347 -16.958 -22.304  0.00  0.00    +0.158 C 
BRANCH  18  20
ATOM     19  O   UNL     1      34.061 -18.652 -21.135  0.00  0.00    -0.456 OA
ATOM     20  C   UNL     1      35.298 -18.229 -21.505  0.00  0.00    +0.139 A 
ATOM     21  C   UNL     1      36.265 -19.093 -21.047  0.00  0.00    +0.013 A 
ATOM     22  C   UNL     1      35.583 -20.122 -20.345  0.00  0.00    +0.033 A 
ATOM     23  C   UNL     1      34.231 -19.804 -20.428  0.00  0.00    +0.145 A 
ATOM     24  C   UNL     1      37.722 -18.972 -21.247  0.00  0.00    +0.034 C 
ATOM     25  C   UNL     1      35.958 -21.284 -19.649  0.00  0.00    +0.003 C 
ATOM     26  C   UNL     1      33.213 -20.568 -19.863  0.00  0.00    +0.037 C 
ATOM     27  C   UNL     1      34.956 -22.074 -19.070  0.00  0.00    +0.000 C 
ATOM     28  C   UNL     1      33.608 -21.720 -19.175  0.00  0.00    +0.003 C 
ENDBRANCH  18  20
ENDBRANCH  15  18
ENDBRANCH  13  16
ENDBRANCH  10  12
BRANCH   2  29
ATOM     29  C   UNL     1      32.999  -7.629 -22.465  0.00  0.00    +0.257 C 
BRANCH  29  30
ATOM     30  O   UNL     1      31.871  -7.031 -23.075  0.00  0.00    -0.251 OA
BRANCH  30  31
ATOM     31  P   UNL     1      31.747  -5.417 -23.049  0.00  0.00    +0.475 P 
ATOM     32  O   UNL     1      30.394  -4.866 -23.393  0.00  0.00    -0.227 OA
BRANCH  31  33
ATOM     33  O   UNL     1      32.948  -4.938 -24.019  0.00  0.00    -0.303 OA
ATOM     34  H   UNL     1      33.798  -5.067 -23.570  0.00  0.00    +0.222 HD
ENDBRANCH  31  33
BRANCH  31  35
ATOM     35  O   UNL     1      32.286  -5.016 -21.576  0.00  0.00    -0.303 OA
ATOM     36  H   UNL     1      32.965  -5.649 -21.297  0.00  0.00    +0.222 HD
ENDBRANCH  31  35
ENDBRANCH  30  31
ENDBRANCH  29  30
ENDBRANCH   2  29
TORSDOF 9
ENDMDL
MODEL 5
REMARK VINA RESULT:     -11.6      6.126     13.160
REMARK  Name = 72696796
REMARK  9 active torsions:
REMARK  status: ('A' for Active; 'I' for Inactive)
REMARK    1  A    between atoms: N_2  and  C_29
REMARK    2  A    between atoms: C_10  and  C_12
REMARK    3  A    between atoms: C_13  and  C_16
REMARK    4  A    between atoms: N_15  and  C_18
REMARK    5  A    between atoms: C_18  and  C_20
REMARK    6  A    between atoms: C_29  and  O_30
REMARK    7  A    between atoms: O_30  and  P_31
REMARK    8  A    between atoms: P_31  and  O_33
REMARK    9  A    between atoms: P_31  and  O_35
REMARK                            x       y       z     vdW  Elec       q    Type
REMARK                         _______ _______ _______ _____ _____    ______ ____
ROOT
ATOM      1  O   UNL     1      34.252  -6.337 -22.382  0.00  0.00    -0.274 OA
ATOM      2  N   UNL     1      33.195  -8.413 -22.394  0.00  0.00    -0.217 N 
ATOM      3  N   UNL     1      32.123 -10.563 -22.535  0.00  0.00    -0.229 NA
ATOM      4  C   UNL     1      35.482  -9.391 -23.785  0.00  0.00    +0.039 C 
ATOM      5  C   UNL     1      34.285 -10.258 -23.552  0.00  0.00    +0.010 C 
ATOM      6  C   UNL     1      35.051  -7.947 -23.943  0.00  0.00    +0.090 C 
ATOM      7  C   UNL     1      33.185  -9.773 -22.841  0.00  0.00    +0.135 C 
ATOM      8  C   UNL     1      34.157  -7.490 -22.810  0.00  0.00    +0.233 C 
ATOM      9  C   UNL     1      34.280 -11.596 -23.958  0.00  0.00    +0.000 C 
ATOM     10  C   UNL     1      33.193 -12.407 -23.666  0.00  0.00    +0.019 C 
ATOM     11  C   UNL     1      32.149 -11.847 -22.957  0.00  0.00    +0.100 C 
ENDROOT
BRANCH  10  12
ATOM     12  C   UNL     1      33.148 -13.790 -24.102  0.00  0.00    +0.006 C 
ATOM     13  C   UNL     1      34.135 -14.699 -23.925  0.00  0.00    +0.058 C 
BRANCH  13  16
ATOM     14  O   UNL     1      33.404 -16.277 -25.522  0.00  0.00    -0.270 OA
ATOM     15  N   UNL     1      34.549 -17.105 -23.676  0.00  0.00    -0.267 N 
ATOM     16  C   UNL     1      33.983 -16.088 -24.450  0.00  0.00    +0.250 C 
ATOM     17  C   UNL     1      34.469 -18.485 -24.138  0.00  0.00    +0.116 C 
BRANCH  15  18
ATOM     18  C   UNL     1      35.270 -16.902 -22.421  0.00  0.00    +0.158 C 
BRANCH  18  20
ATOM     19  O   UNL     1      34.093 -18.625 -21.181  0.00  0.00    -0.456 OA
ATOM     20  C   UNL     1      35.301 -18.150 -21.584  0.00  0.00    +0.139 A 
ATOM     21  C   UNL     1      36.319 -18.948 -21.118  0.00  0.00    +0.013 A 
ATOM     22  C   UNL     1      35.703 -19.990 -20.375  0.00  0.00    +0.033 A 
ATOM     23  C   UNL     1      34.335 -19.745 -20.443  0.00  0.00    +0.145 A 
ATOM     24  C   UNL     1      37.763 -18.758 -21.348  0.00  0.00    +0.034 C 
ATOM     25  C   UNL     1      36.150 -21.110 -19.653  0.00  0.00    +0.003 C 
ATOM     26  C   UNL     1      33.368 -20.544 -19.838  0.00  0.00    +0.037 C 
ATOM     27  C   UNL     1      35.200 -21.933 -19.033  0.00  0.00    +0.000 C 
ATOM     28  C   UNL     1      33.834 -21.653 -19.125  0.00  0.00    +0.003 C 
ENDBRANCH  18  20
ENDBRANCH  15  18
ENDBRANCH  13  16
ENDBRANCH  10  12
BRANCH   2  29
ATOM     29  C   UNL     1      32.147  -8.010 -21.462  0.00  0.00    +0.257 C 
BRANCH  29  30
ATOM     30  O   UNL     1      31.117  -7.360 -22.183  0.00  0.00    -0.251 OA
BRANCH  30  31
ATOM     31  P   UNL     1      31.040  -5.744 -22.127  0.00  0.00    +0.475 P 
ATOM     32  O   UNL     1      31.345  -5.037 -23.416  0.00  0.00    -0.227 OA
BRANCH  31  33
ATOM     33  O   UNL     1      32.015  -5.369 -20.894  0.00  0.00    -0.303 OA
ATOM     34  H   UNL     1      31.500  -5.338 -20.072  0.00  0.00    +0.222 HD
ENDBRANCH  31  33
BRANCH  31  35
ATOM     35  O   UNL     1      29.565  -5.453 -21.528  0.00  0.00    -0.303 OA
ATOM     36  H   UNL     1      28.927  -5.389 -22.256  0.00  0.00    +0.222 HD
ENDBRANCH  31  35
ENDBRANCH  30  31
ENDBRANCH  29  30
ENDBRANCH   2  29
TORSDOF 9
ENDMDL
MODEL 6
REMARK VINA RESULT:     -10.5      3.306      5.010
REMARK  Name = 72696796
REMARK  9 active torsions:
REMARK  status: ('A' for Active; 'I' for Inactive)
REMARK    1  A    between atoms: N_2  and  C_29
REMARK    2  A    between atoms: C_10  and  C_12
REMARK    3  A    between atoms: C_13  and  C_16
REMARK    4  A    between atoms: N_15  and  C_18
REMARK    5  A    between atoms: C_18  and  C_20
REMARK    6  A    between atoms: C_29  and  O_30
REMARK    7  A    between atoms: O_30  and  P_31
REMARK    8  A    between atoms: P_31  and  O_33
REMARK    9  A    between atoms: P_31  and  O_35
REMARK                            x       y       z     vdW  Elec       q    Type
REMARK                         _______ _______ _______ _____ _____    ______ ____
ROOT
ATOM      1  O   UNL     1      31.142 -25.227 -12.751  0.00  0.00    -0.274 OA
ATOM      2  N   UNL     1      31.773 -24.280 -14.784  0.00  0.00    -0.217 N 
ATOM      3  N   UNL     1      32.476 -23.201 -16.816  0.00  0.00    -0.229 NA
ATOM      4  C   UNL     1      34.389 -24.041 -13.677  0.00  0.00    +0.039 C 
ATOM      5  C   UNL     1      34.058 -23.473 -15.021  0.00  0.00    +0.010 C 
ATOM      6  C   UNL     1      33.170 -23.982 -12.778  0.00  0.00    +0.090 C 
ATOM      7  C   UNL     1      32.780 -23.626 -15.562  0.00  0.00    +0.135 C 
ATOM      8  C   UNL     1      31.947 -24.589 -13.432  0.00  0.00    +0.233 C 
ATOM      9  C   UNL     1      35.044 -22.860 -15.801  0.00  0.00    +0.000 C 
ATOM     10  C   UNL     1      34.739 -22.407 -17.077  0.00  0.00    +0.019 C 
ATOM     11  C   UNL     1      33.451 -22.601 -17.534  0.00  0.00    +0.100 C 
ENDROOT
BRANCH  10  12
ATOM     12  C   UNL     1      35.734 -21.740 -17.896  0.00  0.00    +0.006 C 
ATOM     13  C   UNL     1      35.508 -21.196 -19.115  0.00  0.00    +0.058 C 
BRANCH  13  16
ATOM     14  O   UNL     1      37.789 -20.889 -19.638  0.00  0.00    -0.270 OA
ATOM     15  N   UNL     1      36.256 -19.638 -20.856  0.00  0.00    -0.267 N 
ATOM     16  C   UNL     1      36.625 -20.564 -19.877  0.00  0.00    +0.250 C 
ATOM     17  C   UNL     1      37.288 -19.000 -21.664  0.00  0.00    +0.116 C 
BRANCH  15  18
ATOM     18  C   UNL     1      34.881 -19.262 -21.182  0.00  0.00    +0.158 C 
BRANCH  18  20
ATOM     19  O   UNL     1      34.780 -16.915 -20.573  0.00  0.00    -0.456 OA
ATOM     20  C   UNL     1      34.775 -17.820 -21.587  0.00  0.00    +0.139 A 
ATOM     21  C   UNL     1      34.671 -17.187 -22.804  0.00  0.00    +0.013 A 
ATOM     22  C   UNL     1      34.607 -15.796 -22.528  0.00  0.00    +0.033 A 
ATOM     23  C   UNL     1      34.676 -15.682 -21.144  0.00  0.00    +0.145 A 
ATOM     24  C   UNL     1      34.635 -17.830 -24.131  0.00  0.00    +0.034 C 
ATOM     25  C   UNL     1      34.495 -14.623 -23.294  0.00  0.00    +0.003 C 
ATOM     26  C   UNL     1      34.644 -14.469 -20.457  0.00  0.00    +0.037 C 
ATOM     27  C   UNL     1      34.461 -13.388 -22.632  0.00  0.00    +0.000 C 
ATOM     28  C   UNL     1      34.534 -13.315 -21.239  0.00  0.00    +0.003 C 
ENDBRANCH  18  20
ENDBRANCH  15  18
ENDBRANCH  13  16
ENDBRANCH  10  12
BRANCH   2  29
ATOM     29  C   UNL     1      30.528 -24.630 -15.461  0.00  0.00    +0.257 C 
BRANCH  29  30
ATOM     30  O   UNL     1      29.463 -23.922 -14.855  0.00  0.00    -0.251 OA
BRANCH  30  31
ATOM     31  P   UNL     1      28.506 -23.017 -15.796  0.00  0.00    +0.475 P 
ATOM     32  O   UNL     1      27.540 -22.127 -15.071  0.00  0.00    -0.227 OA
BRANCH  31  33
ATOM     33  O   UNL     1      27.827 -24.101 -16.786  0.00  0.00    -0.303 OA
ATOM     34  H   UNL     1      27.503 -24.854 -16.267  0.00  0.00    +0.222 HD
ENDBRANCH  31  33
BRANCH  31  35
ATOM     35  O   UNL     1      29.545 -22.241 -16.764  0.00  0.00    -0.303 OA
ATOM     36  H   UNL     1      29.478 -22.597 -17.663  0.00  0.00    +0.222 HD
ENDBRANCH  31  35
ENDBRANCH  30  31
ENDBRANCH  29  30
ENDBRANCH   2  29
TORSDOF 9
ENDMDL
MODEL 7
REMARK VINA RESULT:     -10.1      1.880      3.438
REMARK  Name = 72696796
REMARK  9 active torsions:
REMARK  status: ('A' for Active; 'I' for Inactive)
REMARK    1  A    between atoms: N_2  and  C_29
REMARK    2  A    between atoms: C_10  and  C_12
REMARK    3  A    between atoms: C_13  and  C_16
REMARK    4  A    between atoms: N_15  and  C_18
REMARK    5  A    between atoms: C_18  and  C_20
REMARK    6  A    between atoms: C_29  and  O_30
REMARK    7  A    between atoms: O_30  and  P_31
REMARK    8  A    between atoms: P_31  and  O_33
REMARK    9  A    between atoms: P_31  and  O_35
REMARK                            x       y       z     vdW  Elec       q    Type
REMARK                         _______ _______ _______ _____ _____    ______ ____
ROOT
ATOM      1  O   UNL     1      36.009 -23.299 -15.852  0.00  0.00    -0.274 OA
ATOM      2  N   UNL     1      34.563 -22.433 -17.460  0.00  0.00    -0.217 N 
ATOM      3  N   UNL     1      33.134 -21.424 -19.113  0.00  0.00    -0.229 NA
ATOM      4  C   UNL     1      36.893 -21.584 -18.865  0.00  0.00    +0.039 C 
ATOM      5  C   UNL     1      35.523 -21.215 -19.339  0.00  0.00    +0.010 C 
ATOM      6  C   UNL     1      36.907 -21.686 -17.354  0.00  0.00    +0.090 C 
ATOM      7  C   UNL     1      34.391 -21.666 -18.656  0.00  0.00    +0.135 C 
ATOM      8  C   UNL     1      35.801 -22.579 -16.830  0.00  0.00    +0.233 C 
ATOM      9  C   UNL     1      35.345 -20.493 -20.523  0.00  0.00    +0.000 C 
ATOM     10  C   UNL     1      34.065 -20.225 -20.988  0.00  0.00    +0.019 C 
ATOM     11  C   UNL     1      33.002 -20.710 -20.253  0.00  0.00    +0.100 C 
ENDROOT
BRANCH  10  12
ATOM     12  C   UNL     1      33.851 -19.451 -22.197  0.00  0.00    +0.006 C 
ATOM     13  C   UNL     1      34.667 -18.471 -22.654  0.00  0.00    +0.058 C 
BRANCH  13  16
ATOM     14  O   UNL     1      33.806 -18.316 -24.847  0.00  0.00    -0.270 OA
ATOM     15  N   UNL     1      34.589 -16.351 -23.885  0.00  0.00    -0.267 N 
ATOM     16  C   UNL     1      34.321 -17.722 -23.897  0.00  0.00    +0.250 C 
ATOM     17  C   UNL     1      34.250 -15.544 -25.051  0.00  0.00    +0.116 C 
BRANCH  15  18
ATOM     18  C   UNL     1      35.166 -15.618 -22.760  0.00  0.00    +0.158 C 
BRANCH  18  20
ATOM     19  O   UNL     1      33.713 -14.638 -21.081  0.00  0.00    -0.456 OA
ATOM     20  C   UNL     1      34.278 -14.493 -22.308  0.00  0.00    +0.139 A 
ATOM     21  C   UNL     1      33.896 -13.304 -22.883  0.00  0.00    +0.013 A 
ATOM     22  C   UNL     1      33.035 -12.667 -21.951  0.00  0.00    +0.033 A 
ATOM     23  C   UNL     1      32.954 -13.528 -20.862  0.00  0.00    +0.145 A 
ATOM     24  C   UNL     1      34.303 -12.794 -24.206  0.00  0.00    +0.034 C 
ATOM     25  C   UNL     1      32.316 -11.460 -21.909  0.00  0.00    +0.003 C 
ATOM     26  C   UNL     1      32.201 -13.272 -19.718  0.00  0.00    +0.037 C 
ATOM     27  C   UNL     1      31.548 -11.174 -20.771  0.00  0.00    +0.000 C 
ATOM     28  C   UNL     1      31.493 -12.066 -19.697  0.00  0.00    +0.003 C 
ENDBRANCH  18  20
ENDBRANCH  15  18
ENDBRANCH  13  16
ENDBRANCH  10  12
BRANCH   2  29
ATOM     29  C   UNL     1      33.378 -23.080 -16.907  0.00  0.00    +0.257 C 
BRANCH  29  30
ATOM     30  O   UNL     1      33.299 -22.785 -15.525  0.00  0.00    -0.251 OA
BRANCH  30  31
ATOM     31  P   UNL     1      32.218 -23.589 -14.627  0.00  0.00    +0.475 P 
ATOM     32  O   UNL     1      30.992 -24.058 -15.356  0.00  0.00    -0.227 OA
BRANCH  31  33
ATOM     33  O   UNL     1      31.937 -22.581 -13.395  0.00  0.00    -0.303 OA
ATOM     34  H   UNL     1      32.654 -21.930 -13.339  0.00  0.00    +0.222 HD
ENDBRANCH  31  33
BRANCH  31  35
ATOM     35  O   UNL     1      33.091 -24.768 -13.943  0.00  0.00    -0.303 OA
ATOM     36  H   UNL     1      32.499 -25.470 -13.631  0.00  0.00    +0.222 HD
ENDBRANCH  31  35
ENDBRANCH  30  31
ENDBRANCH  29  30
ENDBRANCH   2  29
TORSDOF 9
ENDMDL
MODEL 8
REMARK VINA RESULT:     -10.1      7.893     15.343
REMARK  Name = 72696796
REMARK  9 active torsions:
REMARK  status: ('A' for Active; 'I' for Inactive)
REMARK    1  A    between atoms: N_2  and  C_29
REMARK    2  A    between atoms: C_10  and  C_12
REMARK    3  A    between atoms: C_13  and  C_16
REMARK    4  A    between atoms: N_15  and  C_18
REMARK    5  A    between atoms: C_18  and  C_20
REMARK    6  A    between atoms: C_29  and  O_30
REMARK    7  A    between atoms: O_30  and  P_31
REMARK    8  A    between atoms: P_31  and  O_33
REMARK    9  A    between atoms: P_31  and  O_35
REMARK                            x       y       z     vdW  Elec       q    Type
REMARK                         _______ _______ _______ _____ _____    ______ ____
ROOT
ATOM      1  O   UNL     1      34.398  -3.684 -26.220  0.00  0.00    -0.274 OA
ATOM      2  N   UNL     1      32.952  -5.051 -25.009  0.00  0.00    -0.217 N 
ATOM      3  N   UNL     1      31.518  -6.567 -23.811  0.00  0.00    -0.229 NA
ATOM      4  C   UNL     1      35.276  -6.425 -24.094  0.00  0.00    +0.039 C 
ATOM      5  C   UNL     1      33.902  -6.908 -23.751  0.00  0.00    +0.010 C 
ATOM      6  C   UNL     1      35.266  -5.765 -25.457  0.00  0.00    +0.090 C 
ATOM      7  C   UNL     1      32.774  -6.205 -24.181  0.00  0.00    +0.135 C 
ATOM      8  C   UNL     1      34.183  -4.712 -25.576  0.00  0.00    +0.233 C 
ATOM      9  C   UNL     1      33.720  -8.016 -22.918  0.00  0.00    +0.000 C 
ATOM     10  C   UNL     1      32.441  -8.405 -22.547  0.00  0.00    +0.019 C 
ATOM     11  C   UNL     1      31.382  -7.652 -23.016  0.00  0.00    +0.100 C 
ENDROOT
BRANCH  10  12
ATOM     12  C   UNL     1      32.221  -9.569 -21.709  0.00  0.00    +0.006 C 
ATOM     13  C   UNL     1      31.992 -10.825 -22.159  0.00  0.00    +0.058 C 
BRANCH  13  16
ATOM     14  O   UNL     1      30.737 -11.923 -20.487  0.00  0.00    -0.270 OA
ATOM     15  N   UNL     1      32.697 -12.962 -21.181  0.00  0.00    -0.267 N 
ATOM     16  C   UNL     1      31.747 -11.938 -21.195  0.00  0.00    +0.250 C 
ATOM     17  C   UNL     1      32.512 -14.098 -20.288  0.00  0.00    +0.116 C 
BRANCH  15  18
ATOM     18  C   UNL     1      33.883 -13.019 -22.034  0.00  0.00    +0.158 C 
BRANCH  18  20
ATOM     19  O   UNL     1      34.834 -15.175 -21.457  0.00  0.00    -0.456 OA
ATOM     20  C   UNL     1      34.230 -14.429 -22.418  0.00  0.00    +0.139 A 
ATOM     21  C   UNL     1      34.067 -15.160 -23.571  0.00  0.00    +0.013 A 
ATOM     22  C   UNL     1      34.605 -16.448 -23.309  0.00  0.00    +0.033 A 
ATOM     23  C   UNL     1      35.064 -16.405 -21.997  0.00  0.00    +0.145 A 
ATOM     24  C   UNL     1      33.451 -14.696 -24.829  0.00  0.00    +0.034 C 
ATOM     25  C   UNL     1      34.755 -17.642 -24.035  0.00  0.00    +0.003 C 
ATOM     26  C   UNL     1      35.670 -17.478 -21.346  0.00  0.00    +0.037 C 
ATOM     27  C   UNL     1      35.360 -18.739 -23.407  0.00  0.00    +0.000 C 
ATOM     28  C   UNL     1      35.809 -18.656 -22.087  0.00  0.00    +0.003 C 
ENDBRANCH  18  20
ENDBRANCH  15  18
ENDBRANCH  13  16
ENDBRANCH  10  12
BRANCH   2  29
ATOM     29  C   UNL     1      31.781  -4.212 -25.244  0.00  0.00    +0.257 C 
BRANCH  29  30
ATOM     30  O   UNL     1      31.890  -3.042 -24.456  0.00  0.00    -0.251 OA
BRANCH  30  31
ATOM     31  P   UNL     1      30.706  -2.709 -23.404  0.00  0.00    +0.475 P 
ATOM     32  O   UNL     1      31.078  -1.786 -22.281  0.00  0.00    -0.227 OA
BRANCH  31  33
ATOM     33  O   UNL     1      30.196  -4.173 -22.945  0.00  0.00    -0.303 OA
ATOM     34  H   UNL     1      29.251  -4.133 -22.727  0.00  0.00    +0.222 HD
ENDBRANCH  31  33
BRANCH  31  35
ATOM     35  O   UNL     1      29.498  -2.180 -24.343  0.00  0.00    -0.303 OA
ATOM     36  H   UNL     1      29.704  -1.288 -24.663  0.00  0.00    +0.222 HD
ENDBRANCH  31  35
ENDBRANCH  30  31
ENDBRANCH  29  30
ENDBRANCH   2  29
TORSDOF 9
ENDMDL
MODEL 9
REMARK VINA RESULT:      -9.7      8.123     15.987
REMARK  Name = 72696796
REMARK  9 active torsions:
REMARK  status: ('A' for Active; 'I' for Inactive)
REMARK    1  A    between atoms: N_2  and  C_29
REMARK    2  A    between atoms: C_10  and  C_12
REMARK    3  A    between atoms: C_13  and  C_16
REMARK    4  A    between atoms: N_15  and  C_18
REMARK    5  A    between atoms: C_18  and  C_20
REMARK    6  A    between atoms: C_29  and  O_30
REMARK    7  A    between atoms: O_30  and  P_31
REMARK    8  A    between atoms: P_31  and  O_33
REMARK    9  A    between atoms: P_31  and  O_35
REMARK                            x       y       z     vdW  Elec       q    Type
REMARK                         _______ _______ _______ _____ _____    ______ ____
ROOT
ATOM      1  O   UNL     1      34.825  -3.444 -26.476  0.00  0.00    -0.274 OA
ATOM      2  N   UNL     1      33.177  -4.763 -25.490  0.00  0.00    -0.217 N 
ATOM      3  N   UNL     1      31.539  -6.231 -24.514  0.00  0.00    -0.229 NA
ATOM      4  C   UNL     1      35.299  -6.194 -24.236  0.00  0.00    +0.039 C 
ATOM      5  C   UNL     1      33.877  -6.637 -24.100  0.00  0.00    +0.010 C 
ATOM      6  C   UNL     1      35.510  -5.543 -25.588  0.00  0.00    +0.090 C 
ATOM      7  C   UNL     1      32.846  -5.906 -24.695  0.00  0.00    +0.135 C 
ATOM      8  C   UNL     1      34.487  -4.462 -25.869  0.00  0.00    +0.233 C 
ATOM      9  C   UNL     1      33.542  -7.734 -23.300  0.00  0.00    +0.000 C 
ATOM     10  C   UNL     1      32.211  -8.085 -23.123  0.00  0.00    +0.019 C 
ATOM     11  C   UNL     1      31.255  -7.306 -23.746  0.00  0.00    +0.100 C 
ENDROOT
BRANCH  10  12
ATOM     12  C   UNL     1      31.837  -9.237 -22.324  0.00  0.00    +0.006 C 
ATOM     13  C   UNL     1      32.297 -10.498 -22.505  0.00  0.00    +0.058 C 
BRANCH  13  16
ATOM     14  O   UNL     1      30.714 -11.515 -21.079  0.00  0.00    -0.270 OA
ATOM     15  N   UNL     1      32.648 -12.723 -21.532  0.00  0.00    -0.267 N 
ATOM     16  C   UNL     1      31.810 -11.609 -21.635  0.00  0.00    +0.250 C 
ATOM     17  C   UNL     1      32.228 -13.862 -20.726  0.00  0.00    +0.116 C 
BRANCH  15  18
ATOM     18  C   UNL     1      33.935 -12.872 -22.209  0.00  0.00    +0.158 C 
BRANCH  18  20
ATOM     19  O   UNL     1      34.813 -15.027 -21.520  0.00  0.00    -0.456 OA
ATOM     20  C   UNL     1      34.240 -14.308 -22.522  0.00  0.00    +0.139 A 
ATOM     21  C   UNL     1      34.063 -15.089 -23.641  0.00  0.00    +0.013 A 
ATOM     22  C   UNL     1      34.558 -16.378 -23.313  0.00  0.00    +0.033 A 
ATOM     23  C   UNL     1      35.008 -16.287 -21.999  0.00  0.00    +0.145 A 
ATOM     24  C   UNL     1      33.473 -14.666 -24.925  0.00  0.00    +0.034 C 
ATOM     25  C   UNL     1      34.676 -17.609 -23.980  0.00  0.00    +0.003 C 
ATOM     26  C   UNL     1      35.574 -17.347 -21.293  0.00  0.00    +0.037 C 
ATOM     27  C   UNL     1      35.241 -18.694 -23.294  0.00  0.00    +0.000 C 
ATOM     28  C   UNL     1      35.682 -18.562 -21.975  0.00  0.00    +0.003 C 
ENDBRANCH  18  20
ENDBRANCH  15  18
ENDBRANCH  13  16
ENDBRANCH  10  12
BRANCH   2  29
ATOM     29  C   UNL     1      32.078  -3.894 -25.898  0.00  0.00    +0.257 C 
BRANCH  29  30
ATOM     30  O   UNL     1      31.778  -4.144 -27.259  0.00  0.00    -0.251 OA
BRANCH  30  31
ATOM     31  P   UNL     1      31.542  -2.879 -28.240  0.00  0.00    +0.475 P 
ATOM     32  O   UNL     1      31.439  -3.204 -29.702  0.00  0.00    -0.227 OA
BRANCH  31  33
ATOM     33  O   UNL     1      32.745  -1.873 -27.846  0.00  0.00    -0.303 OA
ATOM     34  H   UNL     1      33.520  -2.388 -27.573  0.00  0.00    +0.222 HD
ENDBRANCH  31  33
BRANCH  31  35
ATOM     35  O   UNL     1      30.238  -2.150 -27.617  0.00  0.00    -0.303 OA
ATOM     36  H   UNL     1      29.667  -1.837 -28.335  0.00  0.00    +0.222 HD
ENDBRANCH  31  35
ENDBRANCH  30  31
ENDBRANCH  29  30
ENDBRANCH   2  29
TORSDOF 9
ENDMDL
