MODEL 1
REMARK VINA RESULT:     -12.1      0.000      0.000
REMARK  Name = 60870
REMARK  7 active torsions:
REMARK  status: ('A' for Active; 'I' for Inactive)
REMARK    1  A    between atoms: C_2  and  C_4
REMARK    2  A    between atoms: C_2  and  C_18
REMARK    3  A    between atoms: C_3  and  C_9
REMARK    4  A    between atoms: C_9  and  C_14
REMARK    5  A    between atoms: C_18  and  C_19
REMARK    6  A    between atoms: C_19  and  C_22
REMARK    7  A    between atoms: C_24  and  C_26
REMARK                            x       y       z     vdW  Elec       q    Type
REMARK                         _______ _______ _______ _____ _____    ______ ____
ROOT
ATOM      1  O   UNL     1      33.685 -24.256 -17.964  0.00  0.00    -0.291 OA
ATOM      2  C   UNL     1      33.437 -23.042 -17.810  0.00  0.00    +0.173 C 
ENDROOT
BRANCH   2   4
ATOM      3  C   UNL     1      35.161 -20.142 -20.358  0.00  0.00    -0.021 C 
ATOM      4  C   UNL     1      34.031 -22.045 -18.688  0.00  0.00    +0.035 C 
ATOM      5  C   UNL     1      35.986 -20.985 -19.630  0.00  0.00    -0.004 C 
ATOM      6  C   UNL     1      33.781 -20.233 -20.266  0.00  0.00    -0.004 C 
ATOM      7  C   UNL     1      35.417 -21.943 -18.790  0.00  0.00    +0.003 C 
ATOM      8  C   UNL     1      33.212 -21.191 -19.426  0.00  0.00    +0.003 C 
BRANCH   3   9
ATOM      9  C   UNL     1      35.776 -19.108 -21.267  0.00  0.00    +0.047 C 
BRANCH   9  14
ATOM     10  S   UNL     1      34.630 -18.392 -23.668  0.00  0.00    -0.048 S 
ATOM     11  O   UNL     1      35.274 -16.243 -20.527  0.00  0.00    -0.274 OA
ATOM     12  O   UNL     1      34.983 -16.240 -25.136  0.00  0.00    -0.263 OA
ATOM     13  N   UNL     1      35.156 -16.038 -22.827  0.00  0.00    -0.246 N 
ATOM     14  C   UNL     1      34.730 -18.182 -21.863  0.00  0.00    +0.137 C 
ATOM     15  C   UNL     1      35.084 -16.730 -21.636  0.00  0.00    +0.239 C 
ATOM     16  C   UNL     1      34.951 -16.705 -24.007  0.00  0.00    +0.279 C 
ATOM     17  H   UNL     1      35.354 -15.074 -22.830  0.00  0.00    +0.158 HD
ENDBRANCH   9  14
ENDBRANCH   3   9
ENDBRANCH   2   4
BRANCH   2  18
ATOM     18  C   UNL     1      32.490 -22.604 -16.677  0.00  0.00    +0.076 C 
BRANCH  18  19
ATOM     19  C   UNL     1      31.890 -23.776 -15.895  0.00  0.00    +0.066 C 
BRANCH  19  22
ATOM     20  O   UNL     1      33.238 -24.643 -12.615  0.00  0.00    -0.449 OA
ATOM     21  N   UNL     1      34.000 -23.901 -14.611  0.00  0.00    -0.373 NA
ATOM     22  C   UNL     1      32.655 -24.074 -14.640  0.00  0.00    +0.130 C 
ATOM     23  C   UNL     1      32.173 -24.518 -13.455  0.00  0.00    +0.216 C 
ATOM     24  C   UNL     1      34.294 -24.254 -13.380  0.00  0.00    +0.277 C 
ATOM     25  C   UNL     1      30.855 -24.870 -12.918  0.00  0.00    +0.055 C 
BRANCH  24  26
ATOM     26  C   UNL     1      35.572 -24.292 -12.724  0.00  0.00    +0.066 C 
ATOM     27  C   UNL     1      35.789 -23.546 -11.562  0.00  0.00    +0.006 C 
ATOM     28  C   UNL     1      36.607 -25.074 -13.245  0.00  0.00    +0.006 C 
ATOM     29  C   UNL     1      37.030 -23.582 -10.926  0.00  0.00    +0.000 C 
ATOM     30  C   UNL     1      37.848 -25.110 -12.609  0.00  0.00    +0.000 C 
ATOM     31  C   UNL     1      38.059 -24.363 -11.450  0.00  0.00    +0.000 C 
ENDBRANCH  24  26
ENDBRANCH  19  22
ENDBRANCH  18  19
ENDBRANCH   2  18
TORSDOF 7
ENDMDL
MODEL 2
REMARK VINA RESULT:     -12.0      5.196     12.323
REMARK  Name = 60870
REMARK  7 active torsions:
REMARK  status: ('A' for Active; 'I' for Inactive)
REMARK    1  A    between atoms: C_2  and  C_4
REMARK    2  A    between atoms: C_2  and  C_18
REMARK    3  A    between atoms: C_3  and  C_9
REMARK    4  A    between atoms: C_9  and  C_14
REMARK    5  A    between atoms: C_18  and  C_19
REMARK    6  A    between atoms: C_19  and  C_22
REMARK    7  A    between atoms: C_24  and  C_26
REMARK                            x       y       z     vdW  Elec       q    Type
REMARK                         _______ _______ _______ _____ _____    ______ ____
ROOT
ATOM      1  O   UNL     1      34.647 -15.839 -25.099  0.00  0.00    -0.291 OA
ATOM      2  C   UNL     1      34.609 -15.844 -23.852  0.00  0.00    +0.173 C 
ENDROOT
BRANCH   2   4
ATOM      3  C   UNL     1      35.219 -19.422 -21.683  0.00  0.00    -0.021 C 
ATOM      4  C   UNL     1      34.818 -17.075 -23.105  0.00  0.00    +0.035 C 
ATOM      5  C   UNL     1      35.490 -18.204 -21.078  0.00  0.00    -0.004 C 
ATOM      6  C   UNL     1      34.750 -19.487 -22.987  0.00  0.00    -0.004 C 
ATOM      7  C   UNL     1      35.288 -17.023 -21.793  0.00  0.00    +0.003 C 
ATOM      8  C   UNL     1      34.549 -18.306 -23.702  0.00  0.00    +0.003 C 
BRANCH   3   9
ATOM      9  C   UNL     1      35.436 -20.697 -20.910  0.00  0.00    +0.047 C 
BRANCH   9  14
ATOM     10  S   UNL     1      35.515 -21.848 -18.408  0.00  0.00    -0.048 S 
ATOM     11  O   UNL     1      32.484 -20.527 -20.399  0.00  0.00    -0.274 OA
ATOM     12  O   UNL     1      33.938 -23.651 -17.324  0.00  0.00    -0.263 OA
ATOM     13  N   UNL     1      33.016 -22.153 -18.844  0.00  0.00    -0.246 N 
ATOM     14  C   UNL     1      34.745 -20.666 -19.558  0.00  0.00    +0.137 C 
ATOM     15  C   UNL     1      33.295 -21.083 -19.668  0.00  0.00    +0.239 C 
ATOM     16  C   UNL     1      34.021 -22.706 -18.095  0.00  0.00    +0.279 C 
ATOM     17  H   UNL     1      32.103 -22.516 -18.793  0.00  0.00    +0.158 HD
ENDBRANCH   9  14
ENDBRANCH   3   9
ENDBRANCH   2   4
BRANCH   2  18
ATOM     18  C   UNL     1      34.340 -14.525 -23.102  0.00  0.00    +0.076 C 
BRANCH  18  19
ATOM     19  C   UNL     1      33.042 -13.834 -23.528  0.00  0.00    +0.066 C 
BRANCH  19  22
ATOM     20  O   UNL     1      32.007 -11.616 -20.818  0.00  0.00    -0.449 OA
ATOM     21  N   UNL     1      32.575 -11.463 -23.003  0.00  0.00    -0.373 NA
ATOM     22  C   UNL     1      32.636 -12.749 -22.575  0.00  0.00    +0.130 C 
ATOM     23  C   UNL     1      32.300 -12.868 -21.269  0.00  0.00    +0.216 C 
ATOM     24  C   UNL     1      32.195 -10.832 -21.914  0.00  0.00    +0.277 C 
ATOM     25  C   UNL     1      32.190 -13.967 -20.304  0.00  0.00    +0.055 C 
BRANCH  24  26
ATOM     26  C   UNL     1      31.949  -9.431 -21.713  0.00  0.00    +0.066 C 
ATOM     27  C   UNL     1      31.426  -8.651 -22.748  0.00  0.00    +0.006 C 
ATOM     28  C   UNL     1      32.235  -8.838 -20.479  0.00  0.00    +0.006 C 
ATOM     29  C   UNL     1      31.189  -7.290 -22.552  0.00  0.00    +0.000 C 
ATOM     30  C   UNL     1      31.998  -7.477 -20.283  0.00  0.00    +0.000 C 
ATOM     31  C   UNL     1      31.475  -6.703 -21.320  0.00  0.00    +0.000 C 
ENDBRANCH  24  26
ENDBRANCH  19  22
ENDBRANCH  18  19
ENDBRANCH   2  18
TORSDOF 7
ENDMDL
MODEL 3
REMARK VINA RESULT:     -12.0      3.521     11.197
REMARK  Name = 60870
REMARK  7 active torsions:
REMARK  status: ('A' for Active; 'I' for Inactive)
REMARK    1  A    between atoms: C_2  and  C_4
REMARK    2  A    between atoms: C_2  and  C_18
REMARK    3  A    between atoms: C_3  and  C_9
REMARK    4  A    between atoms: C_9  and  C_14
REMARK    5  A    between atoms: C_18  and  C_19
REMARK    6  A    between atoms: C_19  and  C_22
REMARK    7  A    between atoms: C_24  and  C_26
REMARK                            x       y       z     vdW  Elec       q    Type
REMARK                         _______ _______ _______ _____ _____    ______ ____
ROOT
ATOM      1  O   UNL     1      37.057 -18.650 -20.907  0.00  0.00    -0.291 OA
ATOM      2  C   UNL     1      35.845 -18.922 -21.021  0.00  0.00    +0.173 C 
ENDROOT
BRANCH   2   4
ATOM      3  C   UNL     1      34.101 -22.028 -18.742  0.00  0.00    -0.021 C 
ATOM      4  C   UNL     1      35.245 -19.992 -20.238  0.00  0.00    +0.035 C 
ATOM      5  C   UNL     1      33.285 -21.184 -19.481  0.00  0.00    -0.004 C 
ATOM      6  C   UNL     1      35.479 -21.871 -18.739  0.00  0.00    -0.004 C 
ATOM      7  C   UNL     1      33.861 -20.160 -20.234  0.00  0.00    +0.003 C 
ATOM      8  C   UNL     1      36.055 -20.847 -19.491  0.00  0.00    +0.003 C 
BRANCH   3   9
ATOM      9  C   UNL     1      33.480 -23.135 -17.930  0.00  0.00    +0.047 C 
BRANCH   9  14
ATOM     10  S   UNL     1      34.048 -23.657 -15.286  0.00  0.00    -0.048 S 
ATOM     11  O   UNL     1      30.761 -22.417 -16.884  0.00  0.00    -0.274 OA
ATOM     12  O   UNL     1      32.620 -24.899 -13.461  0.00  0.00    -0.263 OA
ATOM     13  N   UNL     1      31.501 -23.687 -15.098  0.00  0.00    -0.246 N 
ATOM     14  C   UNL     1      33.136 -22.683 -16.522  0.00  0.00    +0.137 C 
ATOM     15  C   UNL     1      31.670 -22.896 -16.216  0.00  0.00    +0.239 C 
ATOM     16  C   UNL     1      32.602 -24.187 -14.454  0.00  0.00    +0.279 C 
ATOM     17  H   UNL     1      30.597 -23.889 -14.766  0.00  0.00    +0.158 HD
ENDBRANCH   9  14
ENDBRANCH   3   9
ENDBRANCH   2   4
BRANCH   2  18
ATOM     18  C   UNL     1      34.980 -18.111 -22.004  0.00  0.00    +0.076 C 
BRANCH  18  19
ATOM     19  C   UNL     1      35.628 -16.795 -22.444  0.00  0.00    +0.066 C 
BRANCH  19  22
ATOM     20  O   UNL     1      33.151 -14.275 -23.367  0.00  0.00    -0.449 OA
ATOM     21  N   UNL     1      34.304 -14.916 -21.529  0.00  0.00    -0.373 NA
ATOM     22  C   UNL     1      34.624 -15.690 -22.597  0.00  0.00    +0.130 C 
ATOM     23  C   UNL     1      33.947 -15.326 -23.711  0.00  0.00    +0.216 C 
ATOM     24  C   UNL     1      33.422 -14.090 -22.046  0.00  0.00    +0.277 C 
ATOM     25  C   UNL     1      33.885 -15.781 -25.104  0.00  0.00    +0.055 C 
BRANCH  24  26
ATOM     26  C   UNL     1      32.700 -13.018 -21.418  0.00  0.00    +0.066 C 
ATOM     27  C   UNL     1      32.727 -12.871 -20.028  0.00  0.00    +0.006 C 
ATOM     28  C   UNL     1      31.965 -12.117 -22.193  0.00  0.00    +0.006 C 
ATOM     29  C   UNL     1      32.025 -11.831 -19.418  0.00  0.00    +0.000 C 
ATOM     30  C   UNL     1      31.263 -11.077 -21.584  0.00  0.00    +0.000 C 
ATOM     31  C   UNL     1      31.293 -10.935 -20.196  0.00  0.00    +0.000 C 
ENDBRANCH  24  26
ENDBRANCH  19  22
ENDBRANCH  18  19
ENDBRANCH   2  18
TORSDOF 7
ENDMDL
MODEL 4
REMARK VINA RESULT:     -12.0      3.479     11.567
REMARK  Name = 60870
REMARK  7 active torsions:
REMARK  status: ('A' for Active; 'I' for Inactive)
REMARK    1  A    between atoms: C_2  and  C_4
REMARK    2  A    between atoms: C_2  and  C_18
REMARK    3  A    between atoms: C_3  and  C_9
REMARK    4  A    between atoms: C_9  and  C_14
REMARK    5  A    between atoms: C_18  and  C_19
REMARK    6  A    between atoms: C_19  and  C_22
REMARK    7  A    between atoms: C_24  and  C_26
REMARK                            x       y       z     vdW  Elec       q    Type
REMARK                         _______ _______ _______ _____ _____    ______ ____
ROOT
ATOM      1  O   UNL     1      35.125 -19.578 -22.520  0.00  0.00    -0.291 OA
ATOM      2  C   UNL     1      34.927 -19.283 -21.323  0.00  0.00    +0.173 C 
ENDROOT
BRANCH   2   4
ATOM      3  C   UNL     1      33.918 -22.265 -18.501  0.00  0.00    -0.021 C 
ATOM      4  C   UNL     1      34.580 -20.308 -20.351  0.00  0.00    +0.035 C 
ATOM      5  C   UNL     1      35.246 -22.085 -18.856  0.00  0.00    -0.004 C 
ATOM      6  C   UNL     1      32.915 -21.483 -19.054  0.00  0.00    -0.004 C 
ATOM      7  C   UNL     1      35.579 -21.100 -19.787  0.00  0.00    +0.003 C 
ATOM      8  C   UNL     1      33.248 -20.498 -19.985  0.00  0.00    +0.003 C 
BRANCH   3   9
ATOM      9  C   UNL     1      33.558 -23.327 -17.494  0.00  0.00    +0.047 C 
BRANCH   9  14
ATOM     10  S   UNL     1      34.098 -23.480 -14.798  0.00  0.00    -0.048 S 
ATOM     11  O   UNL     1      30.773 -22.675 -16.585  0.00  0.00    -0.274 OA
ATOM     12  O   UNL     1      32.714 -24.583 -12.854  0.00  0.00    -0.263 OA
ATOM     13  N   UNL     1      31.555 -23.662 -14.645  0.00  0.00    -0.246 N 
ATOM     14  C   UNL     1      33.152 -22.730 -16.159  0.00  0.00    +0.137 C 
ATOM     15  C   UNL     1      31.697 -23.005 -15.850  0.00  0.00    +0.239 C 
ATOM     16  C   UNL     1      32.671 -24.002 -13.928  0.00  0.00    +0.279 C 
ATOM     17  H   UNL     1      30.659 -23.884 -14.303  0.00  0.00    +0.158 HD
ENDBRANCH   9  14
ENDBRANCH   3   9
ENDBRANCH   2   4
BRANCH   2  18
ATOM     18  C   UNL     1      35.057 -17.813 -20.879  0.00  0.00    +0.076 C 
BRANCH  18  19
ATOM     19  C   UNL     1      35.855 -16.947 -21.857  0.00  0.00    +0.066 C 
BRANCH  19  22
ATOM     20  O   UNL     1      33.710 -14.934 -24.020  0.00  0.00    -0.449 OA
ATOM     21  N   UNL     1      34.726 -14.752 -22.007  0.00  0.00    -0.373 NA
ATOM     22  C   UNL     1      34.989 -15.956 -22.576  0.00  0.00    +0.130 C 
ATOM     23  C   UNL     1      34.392 -16.089 -23.783  0.00  0.00    +0.216 C 
ATOM     24  C   UNL     1      33.960 -14.184 -22.912  0.00  0.00    +0.277 C 
ATOM     25  C   UNL     1      34.322 -17.129 -24.816  0.00  0.00    +0.055 C 
BRANCH  24  26
ATOM     26  C   UNL     1      33.346 -12.886 -22.901  0.00  0.00    +0.066 C 
ATOM     27  C   UNL     1      33.872 -11.851 -23.680  0.00  0.00    +0.006 C 
ATOM     28  C   UNL     1      32.219 -12.648 -22.109  0.00  0.00    +0.006 C 
ATOM     29  C   UNL     1      33.276 -10.589 -23.667  0.00  0.00    +0.000 C 
ATOM     30  C   UNL     1      31.623 -11.387 -22.096  0.00  0.00    +0.000 C 
ATOM     31  C   UNL     1      32.152 -10.358 -22.876  0.00  0.00    +0.000 C 
ENDBRANCH  24  26
ENDBRANCH  19  22
ENDBRANCH  18  19
ENDBRANCH   2  18
TORSDOF 7
ENDMDL
MODEL 5
REMARK VINA RESULT:     -11.7      3.804     11.272
REMARK  Name = 60870
REMARK  7 active torsions:
REMARK  status: ('A' for Active; 'I' for Inactive)
REMARK    1  A    between atoms: C_2  and  C_4
REMARK    2  A    between atoms: C_2  and  C_18
REMARK    3  A    between atoms: C_3  and  C_9
REMARK    4  A    between atoms: C_9  and  C_14
REMARK    5  A    between atoms: C_18  and  C_19
REMARK    6  A    between atoms: C_19  and  C_22
REMARK    7  A    between atoms: C_24  and  C_26
REMARK                            x       y       z     vdW  Elec       q    Type
REMARK                         _______ _______ _______ _____ _____    ______ ____
ROOT
ATOM      1  O   UNL     1      34.619 -19.036 -22.944  0.00  0.00    -0.291 OA
ATOM      2  C   UNL     1      34.907 -18.732 -21.768  0.00  0.00    +0.173 C 
ENDROOT
BRANCH   2   4
ATOM      3  C   UNL     1      34.999 -21.673 -18.732  0.00  0.00    -0.021 C 
ATOM      4  C   UNL     1      34.939 -19.745 -20.724  0.00  0.00    +0.035 C 
ATOM      5  C   UNL     1      33.777 -21.248 -19.232  0.00  0.00    -0.004 C 
ATOM      6  C   UNL     1      36.191 -21.151 -19.212  0.00  0.00    -0.004 C 
ATOM      7  C   UNL     1      33.747 -20.278 -20.235  0.00  0.00    +0.003 C 
ATOM      8  C   UNL     1      36.161 -20.181 -20.214  0.00  0.00    +0.003 C 
BRANCH   3   9
ATOM      9  C   UNL     1      35.032 -22.722 -17.651  0.00  0.00    +0.047 C 
BRANCH   9  14
ATOM     10  S   UNL     1      37.240 -22.299 -16.060  0.00  0.00    -0.048 S 
ATOM     11  O   UNL     1      33.591 -23.027 -15.036  0.00  0.00    -0.274 OA
ATOM     12  O   UNL     1      38.034 -23.561 -13.895  0.00  0.00    -0.263 OA
ATOM     13  N   UNL     1      35.751 -23.383 -14.290  0.00  0.00    -0.246 N 
ATOM     14  C   UNL     1      35.445 -22.142 -16.309  0.00  0.00    +0.137 C 
ATOM     15  C   UNL     1      34.803 -22.890 -15.162  0.00  0.00    +0.239 C 
ATOM     16  C   UNL     1      37.080 -23.188 -14.560  0.00  0.00    +0.279 C 
ATOM     17  H   UNL     1      35.475 -23.871 -13.482  0.00  0.00    +0.158 HD
ENDBRANCH   9  14
ENDBRANCH   3   9
ENDBRANCH   2   4
BRANCH   2  18
ATOM     18  C   UNL     1      35.234 -17.266 -21.428  0.00  0.00    +0.076 C 
BRANCH  18  19
ATOM     19  C   UNL     1      35.421 -16.379 -22.662  0.00  0.00    +0.066 C 
BRANCH  19  22
ATOM     20  O   UNL     1      32.866 -13.876 -23.398  0.00  0.00    -0.449 OA
ATOM     21  N   UNL     1      34.121 -14.541 -21.637  0.00  0.00    -0.373 NA
ATOM     22  C   UNL     1      34.396 -15.286 -22.737  0.00  0.00    +0.130 C 
ATOM     23  C   UNL     1      33.657 -14.907 -23.806  0.00  0.00    +0.216 C 
ATOM     24  C   UNL     1      33.203 -13.717 -22.089  0.00  0.00    +0.277 C 
ATOM     25  C   UNL     1      33.530 -15.332 -25.205  0.00  0.00    +0.055 C 
BRANCH  24  26
ATOM     26  C   UNL     1      32.500 -12.670 -21.400  0.00  0.00    +0.066 C 
ATOM     27  C   UNL     1      32.567 -12.575 -20.007  0.00  0.00    +0.006 C 
ATOM     28  C   UNL     1      31.742 -11.741 -22.119  0.00  0.00    +0.006 C 
ATOM     29  C   UNL     1      31.883 -11.560 -19.338  0.00  0.00    +0.000 C 
ATOM     30  C   UNL     1      31.058 -10.725 -21.450  0.00  0.00    +0.000 C 
ATOM     31  C   UNL     1      31.129 -10.635 -20.060  0.00  0.00    +0.000 C 
ENDBRANCH  24  26
ENDBRANCH  19  22
ENDBRANCH  18  19
ENDBRANCH   2  18
TORSDOF 7
ENDMDL
MODEL 6
REMARK VINA RESULT:     -11.6      5.893     10.040
REMARK  Name = 60870
REMARK  7 active torsions:
REMARK  status: ('A' for Active; 'I' for Inactive)
REMARK    1  A    between atoms: C_2  and  C_4
REMARK    2  A    between atoms: C_2  and  C_18
REMARK    3  A    between atoms: C_3  and  C_9
REMARK    4  A    between atoms: C_9  and  C_14
REMARK    5  A    between atoms: C_18  and  C_19
REMARK    6  A    between atoms: C_19  and  C_22
REMARK    7  A    between atoms: C_24  and  C_26
REMARK                            x       y       z     vdW  Elec       q    Type
REMARK                         _______ _______ _______ _____ _____    ______ ____
ROOT
ATOM      1  O   UNL     1      33.801 -15.226 -24.322  0.00  0.00    -0.291 OA
ATOM      2  C   UNL     1      33.929 -14.637 -23.229  0.00  0.00    +0.173 C 
ENDROOT
BRANCH   2   4
ATOM      3  C   UNL     1      32.228 -10.814 -22.622  0.00  0.00    -0.021 C 
ATOM      4  C   UNL     1      33.345 -13.321 -23.020  0.00  0.00    +0.035 C 
ATOM      5  C   UNL     1      31.757 -11.893 -21.890  0.00  0.00    -0.004 C 
ATOM      6  C   UNL     1      33.248 -10.967 -23.549  0.00  0.00    -0.004 C 
ATOM      7  C   UNL     1      32.319 -13.155 -22.090  0.00  0.00    +0.003 C 
ATOM      8  C   UNL     1      33.810 -12.228 -23.749  0.00  0.00    +0.003 C 
BRANCH   3   9
ATOM      9  C   UNL     1      31.622  -9.451 -22.405  0.00  0.00    +0.047 C 
BRANCH   9  14
ATOM     10  S   UNL     1      32.680  -7.444 -20.842  0.00  0.00    -0.048 S 
ATOM     11  O   UNL     1      32.264  -7.597 -24.676  0.00  0.00    -0.274 OA
ATOM     12  O   UNL     1      32.338  -4.841 -20.972  0.00  0.00    -0.263 OA
ATOM     13  N   UNL     1      32.281  -6.058 -22.951  0.00  0.00    -0.246 N 
ATOM     14  C   UNL     1      32.673  -8.354 -22.418  0.00  0.00    +0.137 C 
ATOM     15  C   UNL     1      32.384  -7.325 -23.487  0.00  0.00    +0.239 C 
ATOM     16  C   UNL     1      32.406  -5.888 -21.597  0.00  0.00    +0.279 C 
ATOM     17  H   UNL     1      32.119  -5.283 -23.535  0.00  0.00    +0.158 HD
ENDBRANCH   9  14
ENDBRANCH   3   9
ENDBRANCH   2   4
BRANCH   2  18
ATOM     18  C   UNL     1      34.716 -15.319 -22.094  0.00  0.00    +0.076 C 
BRANCH  18  19
ATOM     19  C   UNL     1      35.672 -16.411 -22.583  0.00  0.00    +0.066 C 
BRANCH  19  22
ATOM     20  O   UNL     1      34.340 -19.792 -22.229  0.00  0.00    -0.449 OA
ATOM     21  N   UNL     1      35.406 -18.255 -20.957  0.00  0.00    -0.373 NA
ATOM     22  C   UNL     1      35.202 -17.786 -22.214  0.00  0.00    +0.130 C 
ATOM     23  C   UNL     1      34.565 -18.689 -22.996  0.00  0.00    +0.216 C 
ATOM     24  C   UNL     1      34.872 -19.454 -21.022  0.00  0.00    +0.277 C 
ATOM     25  C   UNL     1      34.099 -18.738 -24.386  0.00  0.00    +0.055 C 
BRANCH  24  26
ATOM     26  C   UNL     1      34.769 -20.462 -20.004  0.00  0.00    +0.066 C 
ATOM     27  C   UNL     1      33.520 -20.979 -19.648  0.00  0.00    +0.006 C 
ATOM     28  C   UNL     1      35.918 -20.931 -19.361  0.00  0.00    +0.006 C 
ATOM     29  C   UNL     1      33.420 -21.957 -18.658  0.00  0.00    +0.000 C 
ATOM     30  C   UNL     1      35.819 -21.909 -18.371  0.00  0.00    +0.000 C 
ATOM     31  C   UNL     1      34.569 -22.422 -18.020  0.00  0.00    +0.000 C 
ENDBRANCH  24  26
ENDBRANCH  19  22
ENDBRANCH  18  19
ENDBRANCH   2  18
TORSDOF 7
ENDMDL
MODEL 7
REMARK VINA RESULT:     -11.4      5.587     13.249
REMARK  Name = 60870
REMARK  7 active torsions:
REMARK  status: ('A' for Active; 'I' for Inactive)
REMARK    1  A    between atoms: C_2  and  C_4
REMARK    2  A    between atoms: C_2  and  C_18
REMARK    3  A    between atoms: C_3  and  C_9
REMARK    4  A    between atoms: C_9  and  C_14
REMARK    5  A    between atoms: C_18  and  C_19
REMARK    6  A    between atoms: C_19  and  C_22
REMARK    7  A    between atoms: C_24  and  C_26
REMARK                            x       y       z     vdW  Elec       q    Type
REMARK                         _______ _______ _______ _____ _____    ______ ____
ROOT
ATOM      1  O   UNL     1      33.718 -14.993 -25.755  0.00  0.00    -0.291 OA
ATOM      2  C   UNL     1      34.074 -15.000 -24.559  0.00  0.00    +0.173 C 
ENDROOT
BRANCH   2   4
ATOM      3  C   UNL     1      35.028 -18.628 -22.608  0.00  0.00    -0.021 C 
ATOM      4  C   UNL     1      34.401 -16.249 -23.887  0.00  0.00    +0.035 C 
ATOM      5  C   UNL     1      35.349 -17.424 -22.001  0.00  0.00    -0.004 C 
ATOM      6  C   UNL     1      34.399 -18.664 -23.844  0.00  0.00    -0.004 C 
ATOM      7  C   UNL     1      35.033 -16.226 -22.644  0.00  0.00    +0.003 C 
ATOM      8  C   UNL     1      34.084 -17.467 -24.487  0.00  0.00    +0.003 C 
BRANCH   3   9
ATOM      9  C   UNL     1      35.368 -19.922 -21.913  0.00  0.00    +0.047 C 
BRANCH   9  14
ATOM     10  S   UNL     1      36.296 -20.809 -19.476  0.00  0.00    -0.048 S 
ATOM     11  O   UNL     1      32.671 -20.133 -20.615  0.00  0.00    -0.274 OA
ATOM     12  O   UNL     1      35.382 -22.710 -17.907  0.00  0.00    -0.263 OA
ATOM     13  N   UNL     1      33.857 -21.511 -19.186  0.00  0.00    -0.246 N 
ATOM     14  C   UNL     1      35.065 -19.864 -20.426  0.00  0.00    +0.137 C 
ATOM     15  C   UNL     1      33.727 -20.494 -20.110  0.00  0.00    +0.239 C 
ATOM     16  C   UNL     1      35.101 -21.840 -18.718  0.00  0.00    +0.279 C 
ATOM     17  H   UNL     1      33.062 -21.996 -18.867  0.00  0.00    +0.158 HD
ENDBRANCH   9  14
ENDBRANCH   3   9
ENDBRANCH   2   4
BRANCH   2  18
ATOM     18  C   UNL     1      34.168 -13.667 -23.793  0.00  0.00    +0.076 C 
BRANCH  18  19
ATOM     19  C   UNL     1      32.860 -13.265 -23.105  0.00  0.00    +0.066 C 
BRANCH  19  22
ATOM     20  O   UNL     1      32.244  -9.791 -22.162  0.00  0.00    -0.449 OA
ATOM     21  N   UNL     1      33.515 -10.940 -23.639  0.00  0.00    -0.373 NA
ATOM     22  C   UNL     1      32.765 -11.784 -22.887  0.00  0.00    +0.130 C 
ATOM     23  C   UNL     1      31.994 -11.120 -21.993  0.00  0.00    +0.216 C 
ATOM     24  C   UNL     1      33.164  -9.766 -23.165  0.00  0.00    +0.277 C 
ATOM     25  C   UNL     1      31.022 -11.489 -20.959  0.00  0.00    +0.055 C 
BRANCH  24  26
ATOM     26  C   UNL     1      33.612  -8.456 -23.551  0.00  0.00    +0.066 C 
ATOM     27  C   UNL     1      32.738  -7.573 -24.191  0.00  0.00    +0.006 C 
ATOM     28  C   UNL     1      34.926  -8.058 -23.290  0.00  0.00    +0.006 C 
ATOM     29  C   UNL     1      33.174  -6.302 -24.567  0.00  0.00    +0.000 C 
ATOM     30  C   UNL     1      35.362  -6.787 -23.666  0.00  0.00    +0.000 C 
ATOM     31  C   UNL     1      34.486  -5.910 -24.304  0.00  0.00    +0.000 C 
ENDBRANCH  24  26
ENDBRANCH  19  22
ENDBRANCH  18  19
ENDBRANCH   2  18
TORSDOF 7
ENDMDL
MODEL 8
REMARK VINA RESULT:     -11.4      1.516      2.174
REMARK  Name = 60870
REMARK  7 active torsions:
REMARK  status: ('A' for Active; 'I' for Inactive)
REMARK    1  A    between atoms: C_2  and  C_4
REMARK    2  A    between atoms: C_2  and  C_18
REMARK    3  A    between atoms: C_3  and  C_9
REMARK    4  A    between atoms: C_9  and  C_14
REMARK    5  A    between atoms: C_18  and  C_19
REMARK    6  A    between atoms: C_19  and  C_22
REMARK    7  A    between atoms: C_24  and  C_26
REMARK                            x       y       z     vdW  Elec       q    Type
REMARK                         _______ _______ _______ _____ _____    ______ ____
ROOT
ATOM      1  O   UNL     1      36.275 -22.135 -17.619  0.00  0.00    -0.291 OA
ATOM      2  C   UNL     1      35.433 -21.973 -18.526  0.00  0.00    +0.173 C 
ENDROOT
BRANCH   2   4
ATOM      3  C   UNL     1      35.842 -18.823 -21.317  0.00  0.00    -0.021 C 
ATOM      4  C   UNL     1      35.574 -20.890 -19.487  0.00  0.00    +0.035 C 
ATOM      5  C   UNL     1      36.943 -19.222 -20.573  0.00  0.00    -0.004 C 
ATOM      6  C   UNL     1      34.610 -19.440 -21.162  0.00  0.00    -0.004 C 
ATOM      7  C   UNL     1      36.808 -20.262 -19.653  0.00  0.00    +0.003 C 
ATOM      8  C   UNL     1      34.475 -20.480 -20.241  0.00  0.00    +0.003 C 
BRANCH   3   9
ATOM      9  C   UNL     1      35.988 -17.700 -22.312  0.00  0.00    +0.047 C 
BRANCH   9  14
ATOM     10  S   UNL     1      34.263 -17.300 -24.422  0.00  0.00    -0.048 S 
ATOM     11  O   UNL     1      34.938 -15.057 -21.354  0.00  0.00    -0.274 OA
ATOM     12  O   UNL     1      33.779 -15.129 -25.824  0.00  0.00    -0.263 OA
ATOM     13  N   UNL     1      34.335 -14.889 -23.580  0.00  0.00    -0.246 N 
ATOM     14  C   UNL     1      34.650 -17.071 -22.659  0.00  0.00    +0.137 C 
ATOM     15  C   UNL     1      34.667 -15.576 -22.431  0.00  0.00    +0.239 C 
ATOM     16  C   UNL     1      34.081 -15.586 -24.732  0.00  0.00    +0.279 C 
ATOM     17  H   UNL     1      34.281 -13.907 -23.572  0.00  0.00    +0.158 HD
ENDBRANCH   9  14
ENDBRANCH   3   9
ENDBRANCH   2   4
BRANCH   2  18
ATOM     18  C   UNL     1      34.235 -22.936 -18.623  0.00  0.00    +0.076 C 
BRANCH  18  19
ATOM     19  C   UNL     1      33.157 -22.678 -17.567  0.00  0.00    +0.066 C 
BRANCH  19  22
ATOM     20  O   UNL     1      33.494 -23.944 -14.158  0.00  0.00    -0.449 OA
ATOM     21  N   UNL     1      34.691 -23.920 -16.077  0.00  0.00    -0.373 NA
ATOM     22  C   UNL     1      33.506 -23.279 -16.238  0.00  0.00    +0.130 C 
ATOM     23  C   UNL     1      32.770 -23.279 -15.102  0.00  0.00    +0.216 C 
ATOM     24  C   UNL     1      34.630 -24.295 -14.819  0.00  0.00    +0.277 C 
ATOM     25  C   UNL     1      31.460 -22.760 -14.694  0.00  0.00    +0.055 C 
BRANCH  24  26
ATOM     26  C   UNL     1      35.591 -25.025 -14.038  0.00  0.00    +0.066 C 
ATOM     27  C   UNL     1      36.308 -26.079 -14.610  0.00  0.00    +0.006 C 
ATOM     28  C   UNL     1      35.812 -24.685 -12.700  0.00  0.00    +0.006 C 
ATOM     29  C   UNL     1      37.239 -26.789 -13.851  0.00  0.00    +0.000 C 
ATOM     30  C   UNL     1      36.744 -25.395 -11.941  0.00  0.00    +0.000 C 
ATOM     31  C   UNL     1      37.457 -26.446 -12.517  0.00  0.00    +0.000 C 
ENDBRANCH  24  26
ENDBRANCH  19  22
ENDBRANCH  18  19
ENDBRANCH   2  18
TORSDOF 7
ENDMDL
MODEL 9
REMARK VINA RESULT:     -11.0      1.659      4.226
REMARK  Name = 60870
REMARK  7 active torsions:
REMARK  status: ('A' for Active; 'I' for Inactive)
REMARK    1  A    between atoms: C_2  and  C_4
REMARK    2  A    between atoms: C_2  and  C_18
REMARK    3  A    between atoms: C_3  and  C_9
REMARK    4  A    between atoms: C_9  and  C_14
REMARK    5  A    between atoms: C_18  and  C_19
REMARK    6  A    between atoms: C_19  and  C_22
REMARK    7  A    between atoms: C_24  and  C_26
REMARK                            x       y       z     vdW  Elec       q    Type
REMARK                         _______ _______ _______ _____ _____    ______ ____
ROOT
ATOM      1  O   UNL     1      34.885 -23.136 -18.828  0.00  0.00    -0.291 OA
ATOM      2  C   UNL     1      35.382 -22.048 -18.470  0.00  0.00    +0.173 C 
ENDROOT
BRANCH   2   4
ATOM      3  C   UNL     1      35.869 -18.884 -21.232  0.00  0.00    -0.021 C 
ATOM      4  C   UNL     1      35.550 -20.959 -19.420  0.00  0.00    +0.035 C 
ATOM      5  C   UNL     1      34.618 -19.461 -21.070  0.00  0.00    -0.004 C 
ATOM      6  C   UNL     1      36.963 -19.326 -20.504  0.00  0.00    -0.004 C 
ATOM      7  C   UNL     1      34.457 -20.504 -20.158  0.00  0.00    +0.003 C 
ATOM      8  C   UNL     1      36.802 -20.370 -19.592  0.00  0.00    +0.003 C 
BRANCH   3   9
ATOM      9  C   UNL     1      36.042 -17.756 -22.217  0.00  0.00    +0.047 C 
BRANCH   9  14
ATOM     10  S   UNL     1      34.384 -17.340 -24.376  0.00  0.00    -0.048 S 
ATOM     11  O   UNL     1      34.954 -15.125 -21.267  0.00  0.00    -0.274 OA
ATOM     12  O   UNL     1      33.938 -15.158 -25.772  0.00  0.00    -0.263 OA
ATOM     13  N   UNL     1      34.421 -14.937 -23.510  0.00  0.00    -0.246 N 
ATOM     14  C   UNL     1      34.714 -17.127 -22.600  0.00  0.00    +0.137 C 
ATOM     15  C   UNL     1      34.719 -15.634 -22.357  0.00  0.00    +0.239 C 
ATOM     16  C   UNL     1      34.206 -15.624 -24.676  0.00  0.00    +0.279 C 
ATOM     17  H   UNL     1      34.364 -13.955 -23.495  0.00  0.00    +0.158 HD
ENDBRANCH   9  14
ENDBRANCH   3   9
ENDBRANCH   2   4
BRANCH   2  18
ATOM     18  C   UNL     1      35.819 -21.865 -17.005  0.00  0.00    +0.076 C 
BRANCH  18  19
ATOM     19  C   UNL     1      35.860 -23.174 -16.211  0.00  0.00    +0.066 C 
BRANCH  19  22
ATOM     20  O   UNL     1      33.108 -23.854 -13.908  0.00  0.00    -0.449 OA
ATOM     21  N   UNL     1      33.395 -23.342 -16.093  0.00  0.00    -0.373 NA
ATOM     22  C   UNL     1      34.589 -23.419 -15.453  0.00  0.00    +0.130 C 
ATOM     23  C   UNL     1      34.444 -23.725 -14.142  0.00  0.00    +0.216 C 
ATOM     24  C   UNL     1      32.548 -23.611 -15.124  0.00  0.00    +0.277 C 
ATOM     25  C   UNL     1      35.344 -23.931 -13.002  0.00  0.00    +0.055 C 
BRANCH  24  26
ATOM     26  C   UNL     1      31.114 -23.683 -15.162  0.00  0.00    +0.066 C 
ATOM     27  C   UNL     1      30.383 -22.775 -15.933  0.00  0.00    +0.006 C 
ATOM     28  C   UNL     1      30.440 -24.663 -14.426  0.00  0.00    +0.006 C 
ATOM     29  C   UNL     1      28.990 -22.846 -15.969  0.00  0.00    +0.000 C 
ATOM     30  C   UNL     1      29.047 -24.733 -14.461  0.00  0.00    +0.000 C 
ATOM     31  C   UNL     1      28.322 -23.824 -15.233  0.00  0.00    +0.000 C 
ENDBRANCH  24  26
ENDBRANCH  19  22
ENDBRANCH  18  19
ENDBRANCH   2  18
TORSDOF 7
ENDMDL
