MODEL 1
REMARK VINA RESULT:     -10.2      0.000      0.000
REMARK  Name = 25138203
REMARK  4 active torsions:
REMARK  status: ('A' for Active; 'I' for Inactive)
REMARK    1  A    between atoms: N_1  and  C_11
REMARK    2  A    between atoms: C_5  and  C_22
REMARK    3  A    between atoms: C_9  and  N_16
REMARK    4  A    between atoms: N_16  and  S_18
REMARK                            x       y       z     vdW  Elec       q    Type
REMARK                         _______ _______ _______ _____ _____    ______ ____
ROOT
ATOM      1  N   UNL     1      33.008 -12.296 -23.583  0.00  0.00    -0.301 N 
ATOM      2  N   UNL     1      33.062 -13.842 -25.393  0.00  0.00    -0.234 NA
ATOM      3  N   UNL     1      33.931 -16.064 -25.048  0.00  0.00    -0.248 NA
ATOM      4  C   UNL     1      33.318 -13.580 -24.095  0.00  0.00    +0.112 C 
ATOM      5  C   UNL     1      34.160 -15.732 -23.760  0.00  0.00    +0.063 C 
ATOM      6  C   UNL     1      33.872 -14.495 -23.223  0.00  0.00    +0.106 C 
ATOM      7  C   UNL     1      33.388 -15.085 -25.797  0.00  0.00    +0.251 C 
ATOM      8  H   UNL     1      33.069 -11.576 -24.253  0.00  0.00    +0.153 HD
ENDROOT
BRANCH   1  11
ATOM      9  C   UNL     1      31.887 -10.078 -20.843  0.00  0.00    +0.062 C 
ATOM     10  C   UNL     1      31.880 -10.968 -19.769  0.00  0.00    -0.007 C 
ATOM     11  C   UNL     1      32.630 -11.851 -22.306  0.00  0.00    +0.050 C 
ATOM     12  C   UNL     1      32.262 -10.520 -22.112  0.00  0.00    +0.030 C 
ATOM     13  C   UNL     1      32.246 -12.300 -19.964  0.00  0.00    -0.002 C 
ATOM     14  C   UNL     1      32.622 -12.741 -21.232  0.00  0.00    +0.014 C 
ATOM     15  C   UNL     1      31.480 -10.522 -18.400  0.00  0.00    +0.032 C 
BRANCH   9  16
ATOM     16  N   UNL     1      31.515  -8.709 -20.663  0.00  0.00    -0.219 N 
ATOM     17  H   UNL     1      30.570  -8.449 -20.575  0.00  0.00    +0.173 HD
BRANCH  16  18
ATOM     18  S   UNL     1      32.767  -7.529 -20.603  0.00  0.00    +0.056 S 
ATOM     19  O   UNL     1      33.250  -7.444 -19.237  0.00  0.00    -0.154 OA
ATOM     20  O   UNL     1      33.694  -7.699 -21.704  0.00  0.00    -0.154 OA
ATOM     21  C   UNL     1      31.822  -6.052 -20.909  0.00  0.00    +0.200 C 
ENDBRANCH  16  18
ENDBRANCH   9  16
ENDBRANCH   1  11
BRANCH   5  22
ATOM     22  C   UNL     1      34.744 -16.781 -22.952  0.00  0.00    +0.014 C 
ATOM     23  C   UNL     1      34.808 -18.085 -23.442  0.00  0.00    +0.001 C 
ATOM     24  C   UNL     1      35.244 -16.489 -21.682  0.00  0.00    +0.001 C 
ATOM     25  C   UNL     1      35.370 -19.098 -22.664  0.00  0.00    +0.000 C 
ATOM     26  C   UNL     1      35.806 -17.501 -20.904  0.00  0.00    +0.000 C 
ATOM     27  C   UNL     1      35.870 -18.805 -21.395  0.00  0.00    +0.000 C 
ENDBRANCH   5  22
TORSDOF 4
ENDMDL
MODEL 2
REMARK VINA RESULT:     -10.0      1.681      2.445
REMARK  Name = 25138203
REMARK  4 active torsions:
REMARK  status: ('A' for Active; 'I' for Inactive)
REMARK    1  A    between atoms: N_1  and  C_11
REMARK    2  A    between atoms: C_5  and  C_22
REMARK    3  A    between atoms: C_9  and  N_16
REMARK    4  A    between atoms: N_16  and  S_18
REMARK                            x       y       z     vdW  Elec       q    Type
REMARK                         _______ _______ _______ _____ _____    ______ ____
ROOT
ATOM      1  N   UNL     1      33.902 -14.587 -23.599  0.00  0.00    -0.301 N 
ATOM      2  N   UNL     1      34.081 -16.540 -24.949  0.00  0.00    -0.234 NA
ATOM      3  N   UNL     1      34.837 -18.609 -23.972  0.00  0.00    -0.248 NA
ATOM      4  C   UNL     1      34.218 -15.961 -23.739  0.00  0.00    +0.112 C 
ATOM      5  C   UNL     1      34.950 -17.966 -22.791  0.00  0.00    +0.063 C 
ATOM      6  C   UNL     1      34.652 -16.630 -22.613  0.00  0.00    +0.106 C 
ATOM      7  C   UNL     1      34.403 -17.847 -24.993  0.00  0.00    +0.251 C 
ATOM      8  H   UNL     1      34.052 -14.060 -24.417  0.00  0.00    +0.153 HD
ENDROOT
BRANCH   1  11
ATOM      9  C   UNL     1      32.203 -11.918 -21.683  0.00  0.00    +0.062 C 
ATOM     10  C   UNL     1      32.452 -12.331 -20.374  0.00  0.00    -0.007 C 
ATOM     11  C   UNL     1      33.416 -13.832 -22.519  0.00  0.00    +0.050 C 
ATOM     12  C   UNL     1      32.685 -12.668 -22.756  0.00  0.00    +0.030 C 
ATOM     13  C   UNL     1      33.182 -13.497 -20.138  0.00  0.00    -0.002 C 
ATOM     14  C   UNL     1      33.665 -14.246 -21.211  0.00  0.00    +0.014 C 
ATOM     15  C   UNL     1      31.945 -11.547 -19.208  0.00  0.00    +0.032 C 
BRANCH   9  16
ATOM     16  N   UNL     1      31.455 -10.726 -21.945  0.00  0.00    -0.219 N 
ATOM     17  H   UNL     1      30.471 -10.740 -21.965  0.00  0.00    +0.173 HD
BRANCH  16  18
ATOM     18  S   UNL     1      32.326  -9.267 -22.223  0.00  0.00    +0.056 S 
ATOM     19  O   UNL     1      32.523  -8.603 -20.949  0.00  0.00    -0.154 OA
ATOM     20  O   UNL     1      33.443  -9.493 -23.119  0.00  0.00    -0.154 OA
ATOM     21  C   UNL     1      31.097  -8.332 -23.108  0.00  0.00    +0.200 C 
ENDBRANCH  16  18
ENDBRANCH   9  16
ENDBRANCH   1  11
BRANCH   5  22
ATOM     22  C   UNL     1      35.417 -18.781 -21.691  0.00  0.00    +0.014 C 
ATOM     23  C   UNL     1      34.569 -19.729 -21.117  0.00  0.00    +0.001 C 
ATOM     24  C   UNL     1      36.715 -18.623 -21.203  0.00  0.00    +0.001 C 
ATOM     25  C   UNL     1      35.017 -20.517 -20.056  0.00  0.00    +0.000 C 
ATOM     26  C   UNL     1      37.163 -19.410 -20.143  0.00  0.00    +0.000 C 
ATOM     27  C   UNL     1      36.315 -20.357 -19.570  0.00  0.00    +0.000 C 
ENDBRANCH   5  22
TORSDOF 4
ENDMDL
MODEL 3
REMARK VINA RESULT:      -9.8      8.245     11.296
REMARK  Name = 25138203
REMARK  4 active torsions:
REMARK  status: ('A' for Active; 'I' for Inactive)
REMARK    1  A    between atoms: N_1  and  C_11
REMARK    2  A    between atoms: C_5  and  C_22
REMARK    3  A    between atoms: C_9  and  N_16
REMARK    4  A    between atoms: N_16  and  S_18
REMARK                            x       y       z     vdW  Elec       q    Type
REMARK                         _______ _______ _______ _____ _____    ______ ____
ROOT
ATOM      1  N   UNL     1      32.900 -22.233 -18.609  0.00  0.00    -0.301 N 
ATOM      2  N   UNL     1      31.328 -22.850 -16.931  0.00  0.00    -0.234 NA
ATOM      3  N   UNL     1      32.102 -23.760 -14.838  0.00  0.00    -0.248 NA
ATOM      4  C   UNL     1      32.615 -22.753 -17.323  0.00  0.00    +0.112 C 
ATOM      5  C   UNL     1      33.366 -23.633 -15.294  0.00  0.00    +0.063 C 
ATOM      6  C   UNL     1      33.686 -23.132 -16.539  0.00  0.00    +0.106 C 
ATOM      7  C   UNL     1      31.146 -23.355 -15.695  0.00  0.00    +0.251 C 
ATOM      8  H   UNL     1      32.195 -22.409 -19.274  0.00  0.00    +0.153 HD
ENDROOT
BRANCH   1  11
ATOM      9  C   UNL     1      34.868 -19.748 -20.515  0.00  0.00    +0.062 C 
ATOM     10  C   UNL     1      36.166 -20.090 -20.135  0.00  0.00    -0.007 C 
ATOM     11  C   UNL     1      33.993 -21.515 -19.120  0.00  0.00    +0.050 C 
ATOM     12  C   UNL     1      33.782 -20.460 -20.008  0.00  0.00    +0.030 C 
ATOM     13  C   UNL     1      36.377 -21.144 -19.246  0.00  0.00    -0.002 C 
ATOM     14  C   UNL     1      35.291 -21.857 -18.739  0.00  0.00    +0.014 C 
ATOM     15  C   UNL     1      37.347 -19.342 -20.662  0.00  0.00    +0.032 C 
BRANCH   9  16
ATOM     16  N   UNL     1      34.632 -18.670 -21.425  0.00  0.00    -0.219 N 
ATOM     17  H   UNL     1      34.535 -17.746 -21.101  0.00  0.00    +0.173 HD
BRANCH  16  18
ATOM     18  S   UNL     1      34.522 -19.035 -23.104  0.00  0.00    +0.056 S 
ATOM     19  O   UNL     1      35.611 -19.928 -23.450  0.00  0.00    -0.154 OA
ATOM     20  O   UNL     1      33.158 -19.355 -23.477  0.00  0.00    -0.154 OA
ATOM     21  C   UNL     1      34.918 -17.444 -23.798  0.00  0.00    +0.200 C 
ENDBRANCH  16  18
ENDBRANCH   9  16
ENDBRANCH   1  11
BRANCH   5  22
ATOM     22  C   UNL     1      34.395 -24.067 -14.375  0.00  0.00    +0.014 C 
ATOM     23  C   UNL     1      34.157 -24.046 -13.001  0.00  0.00    +0.001 C 
ATOM     24  C   UNL     1      35.626 -24.509 -14.862  0.00  0.00    +0.001 C 
ATOM     25  C   UNL     1      35.149 -24.464 -12.113  0.00  0.00    +0.000 C 
ATOM     26  C   UNL     1      36.618 -24.927 -13.975  0.00  0.00    +0.000 C 
ATOM     27  C   UNL     1      36.380 -24.906 -12.601  0.00  0.00    +0.000 C 
ENDBRANCH   5  22
TORSDOF 4
ENDMDL
MODEL 4
REMARK VINA RESULT:      -9.5     11.463     14.580
REMARK  Name = 25138203
REMARK  4 active torsions:
REMARK  status: ('A' for Active; 'I' for Inactive)
REMARK    1  A    between atoms: N_1  and  C_11
REMARK    2  A    between atoms: C_5  and  C_22
REMARK    3  A    between atoms: C_9  and  N_16
REMARK    4  A    between atoms: N_16  and  S_18
REMARK                            x       y       z     vdW  Elec       q    Type
REMARK                         _______ _______ _______ _____ _____    ______ ____
ROOT
ATOM      1  N   UNL     1      33.208 -23.649 -13.295  0.00  0.00    -0.301 N 
ATOM      2  N   UNL     1      31.360 -23.950 -14.766  0.00  0.00    -0.234 NA
ATOM      3  N   UNL     1      31.508 -23.193 -17.049  0.00  0.00    -0.248 NA
ATOM      4  C   UNL     1      32.616 -23.499 -14.574  0.00  0.00    +0.112 C 
ATOM      5  C   UNL     1      32.761 -22.765 -16.786  0.00  0.00    +0.063 C 
ATOM      6  C   UNL     1      33.373 -22.892 -15.556  0.00  0.00    +0.106 C 
ATOM      7  C   UNL     1      30.875 -23.768 -16.010  0.00  0.00    +0.251 C 
ATOM      8  H   UNL     1      32.559 -23.633 -12.554  0.00  0.00    +0.153 HD
ENDROOT
BRANCH   1  11
ATOM      9  C   UNL     1      36.819 -24.447 -13.367  0.00  0.00    +0.062 C 
ATOM     10  C   UNL     1      37.183 -24.146 -12.054  0.00  0.00    -0.007 C 
ATOM     11  C   UNL     1      34.539 -23.815 -12.880  0.00  0.00    +0.050 C 
ATOM     12  C   UNL     1      35.497 -24.281 -13.780  0.00  0.00    +0.030 C 
ATOM     13  C   UNL     1      36.224 -23.678 -11.155  0.00  0.00    -0.002 C 
ATOM     14  C   UNL     1      34.902 -23.514 -11.567  0.00  0.00    +0.014 C 
ATOM     15  C   UNL     1      38.592 -24.313 -11.587  0.00  0.00    +0.032 C 
BRANCH   9  16
ATOM     16  N   UNL     1      37.787 -24.927 -14.304  0.00  0.00    -0.219 N 
ATOM     17  H   UNL     1      38.337 -24.302 -14.828  0.00  0.00    +0.173 HD
BRANCH  16  18
ATOM     18  S   UNL     1      37.963 -26.630 -14.488  0.00  0.00    +0.056 S 
ATOM     19  O   UNL     1      37.168 -27.050 -15.626  0.00  0.00    -0.154 OA
ATOM     20  O   UNL     1      39.354 -27.023 -14.374  0.00  0.00    -0.154 OA
ATOM     21  C   UNL     1      37.115 -27.193 -13.029  0.00  0.00    +0.200 C 
ENDBRANCH  16  18
ENDBRANCH   9  16
ENDBRANCH   1  11
BRANCH   5  22
ATOM     22  C   UNL     1      33.444 -22.146 -17.901  0.00  0.00    +0.014 C 
ATOM     23  C   UNL     1      34.817 -22.333 -18.068  0.00  0.00    +0.001 C 
ATOM     24  C   UNL     1      32.732 -21.364 -18.811  0.00  0.00    +0.001 C 
ATOM     25  C   UNL     1      35.477 -21.737 -19.143  0.00  0.00    +0.000 C 
ATOM     26  C   UNL     1      33.392 -20.768 -19.885  0.00  0.00    +0.000 C 
ATOM     27  C   UNL     1      34.764 -20.955 -20.052  0.00  0.00    +0.000 C 
ENDBRANCH   5  22
TORSDOF 4
ENDMDL
MODEL 5
REMARK VINA RESULT:      -9.4     10.882     14.211
REMARK  Name = 25138203
REMARK  4 active torsions:
REMARK  status: ('A' for Active; 'I' for Inactive)
REMARK    1  A    between atoms: N_1  and  C_11
REMARK    2  A    between atoms: C_5  and  C_22
REMARK    3  A    between atoms: C_9  and  N_16
REMARK    4  A    between atoms: N_16  and  S_18
REMARK                            x       y       z     vdW  Elec       q    Type
REMARK                         _______ _______ _______ _____ _____    ______ ____
ROOT
ATOM      1  N   UNL     1      33.427 -24.235 -14.098  0.00  0.00    -0.301 N 
ATOM      2  N   UNL     1      31.403 -23.671 -15.219  0.00  0.00    -0.234 NA
ATOM      3  N   UNL     1      31.483 -22.483 -17.314  0.00  0.00    -0.248 NA
ATOM      4  C   UNL     1      32.751 -23.640 -15.192  0.00  0.00    +0.112 C 
ATOM      5  C   UNL     1      32.830 -22.489 -17.222  0.00  0.00    +0.063 C 
ATOM      6  C   UNL     1      33.525 -23.058 -16.175  0.00  0.00    +0.106 C 
ATOM      7  C   UNL     1      30.843 -23.083 -16.293  0.00  0.00    +0.251 C 
ATOM      8  H   UNL     1      32.916 -24.212 -13.256  0.00  0.00    +0.153 HD
ENDROOT
BRANCH   1  11
ATOM      9  C   UNL     1      36.699 -25.273 -12.719  0.00  0.00    +0.062 C 
ATOM     10  C   UNL     1      37.178 -26.077 -13.753  0.00  0.00    -0.007 C 
ATOM     11  C   UNL     1      34.683 -24.852 -13.982  0.00  0.00    +0.050 C 
ATOM     12  C   UNL     1      35.451 -24.660 -12.834  0.00  0.00    +0.030 C 
ATOM     13  C   UNL     1      36.409 -26.270 -14.901  0.00  0.00    -0.002 C 
ATOM     14  C   UNL     1      35.162 -25.657 -15.015  0.00  0.00    +0.014 C 
ATOM     15  C   UNL     1      38.510 -26.747 -13.655  0.00  0.00    +0.032 C 
BRANCH   9  16
ATOM     16  N   UNL     1      37.473 -25.063 -11.535  0.00  0.00    -0.219 N 
ATOM     17  H   UNL     1      37.760 -25.822 -10.977  0.00  0.00    +0.173 HD
BRANCH  16  18
ATOM     18  S   UNL     1      37.888 -23.447 -11.112  0.00  0.00    +0.056 S 
ATOM     19  O   UNL     1      37.000 -23.009 -10.052  0.00  0.00    -0.154 OA
ATOM     20  O   UNL     1      39.324 -23.297 -10.980  0.00  0.00    -0.154 OA
ATOM     21  C   UNL     1      37.385 -22.596 -12.592  0.00  0.00    +0.200 C 
ENDBRANCH  16  18
ENDBRANCH   9  16
ENDBRANCH   1  11
BRANCH   5  22
ATOM     22  C   UNL     1      33.522 -21.845 -18.317  0.00  0.00    +0.014 C 
ATOM     23  C   UNL     1      32.827 -20.994 -19.177  0.00  0.00    +0.001 C 
ATOM     24  C   UNL     1      34.884 -22.074 -18.515  0.00  0.00    +0.001 C 
ATOM     25  C   UNL     1      33.493 -20.372 -20.233  0.00  0.00    +0.000 C 
ATOM     26  C   UNL     1      35.550 -21.452 -19.571  0.00  0.00    +0.000 C 
ATOM     27  C   UNL     1      34.855 -20.601 -20.430  0.00  0.00    +0.000 C 
ENDBRANCH   5  22
TORSDOF 4
ENDMDL
MODEL 6
REMARK VINA RESULT:      -9.3      2.782      4.811
REMARK  Name = 25138203
REMARK  4 active torsions:
REMARK  status: ('A' for Active; 'I' for Inactive)
REMARK    1  A    between atoms: N_1  and  C_11
REMARK    2  A    between atoms: C_5  and  C_22
REMARK    3  A    between atoms: C_9  and  N_16
REMARK    4  A    between atoms: N_16  and  S_18
REMARK                            x       y       z     vdW  Elec       q    Type
REMARK                         _______ _______ _______ _____ _____    ______ ____
ROOT
ATOM      1  N   UNL     1      31.370  -9.830 -21.407  0.00  0.00    -0.301 N 
ATOM      2  N   UNL     1      31.836 -11.513 -19.789  0.00  0.00    -0.234 NA
ATOM      3  N   UNL     1      32.853 -13.587 -20.474  0.00  0.00    -0.248 NA
ATOM      4  C   UNL     1      31.874 -11.111 -21.076  0.00  0.00    +0.112 C 
ATOM      5  C   UNL     1      32.860 -13.121 -21.741  0.00  0.00    +0.063 C 
ATOM      6  C   UNL     1      32.380 -11.880 -22.104  0.00  0.00    +0.106 C 
ATOM      7  C   UNL     1      32.335 -12.744 -19.562  0.00  0.00    +0.251 C 
ATOM      8  H   UNL     1      30.643  -9.525 -20.816  0.00  0.00    +0.153 HD
ENDROOT
BRANCH   1  11
ATOM      9  C   UNL     1      32.139  -6.638 -23.112  0.00  0.00    +0.062 C 
ATOM     10  C   UNL     1      32.374  -7.083 -24.413  0.00  0.00    -0.007 C 
ATOM     11  C   UNL     1      31.706  -8.910 -22.413  0.00  0.00    +0.050 C 
ATOM     12  C   UNL     1      31.805  -7.552 -22.112  0.00  0.00    +0.030 C 
ATOM     13  C   UNL     1      32.276  -8.443 -24.713  0.00  0.00    -0.002 C 
ATOM     14  C   UNL     1      31.941  -9.355 -23.714  0.00  0.00    +0.014 C 
ATOM     15  C   UNL     1      32.735  -6.127 -25.502  0.00  0.00    +0.032 C 
BRANCH   9  16
ATOM     16  N   UNL     1      32.235  -5.249 -22.784  0.00  0.00    -0.219 N 
ATOM     17  H   UNL     1      33.108  -4.830 -22.608  0.00  0.00    +0.173 HD
BRANCH  16  18
ATOM     18  S   UNL     1      30.781  -4.331 -22.708  0.00  0.00    +0.056 S 
ATOM     19  O   UNL     1      30.236  -4.226 -24.048  0.00  0.00    -0.154 OA
ATOM     20  O   UNL     1      29.948  -4.769 -21.605  0.00  0.00    -0.154 OA
ATOM     21  C   UNL     1      31.440  -2.732 -22.292  0.00  0.00    +0.200 C 
ENDBRANCH  16  18
ENDBRANCH   9  16
ENDBRANCH   1  11
BRANCH   5  22
ATOM     22  C   UNL     1      33.416 -14.025 -22.724  0.00  0.00    +0.014 C 
ATOM     23  C   UNL     1      34.428 -14.914 -22.360  0.00  0.00    +0.001 C 
ATOM     24  C   UNL     1      32.941 -14.010 -24.036  0.00  0.00    +0.001 C 
ATOM     25  C   UNL     1      34.965 -15.787 -23.307  0.00  0.00    +0.000 C 
ATOM     26  C   UNL     1      33.478 -14.883 -24.983  0.00  0.00    +0.000 C 
ATOM     27  C   UNL     1      34.489 -15.771 -24.619  0.00  0.00    +0.000 C 
ENDBRANCH   5  22
TORSDOF 4
ENDMDL
MODEL 7
REMARK VINA RESULT:      -9.3      3.327      5.246
REMARK  Name = 25138203
REMARK  4 active torsions:
REMARK  status: ('A' for Active; 'I' for Inactive)
REMARK    1  A    between atoms: N_1  and  C_11
REMARK    2  A    between atoms: C_5  and  C_22
REMARK    3  A    between atoms: C_9  and  N_16
REMARK    4  A    between atoms: N_16  and  S_18
REMARK                            x       y       z     vdW  Elec       q    Type
REMARK                         _______ _______ _______ _____ _____    ______ ____
ROOT
ATOM      1  N   UNL     1      31.867  -9.136 -22.014  0.00  0.00    -0.301 N 
ATOM      2  N   UNL     1      31.491 -10.865 -20.421  0.00  0.00    -0.234 NA
ATOM      3  N   UNL     1      32.202 -13.116 -20.902  0.00  0.00    -0.248 NA
ATOM      4  C   UNL     1      31.976 -10.493 -21.623  0.00  0.00    +0.112 C 
ATOM      5  C   UNL     1      32.666 -12.675 -22.090  0.00  0.00    +0.063 C 
ATOM      6  C   UNL     1      32.580 -11.363 -22.508  0.00  0.00    +0.106 C 
ATOM      7  C   UNL     1      31.635 -12.172 -20.128  0.00  0.00    +0.251 C 
ATOM      8  H   UNL     1      31.083  -8.676 -21.635  0.00  0.00    +0.153 HD
ENDROOT
BRANCH   1  11
ATOM      9  C   UNL     1      32.848  -6.605 -24.527  0.00  0.00    +0.062 C 
ATOM     10  C   UNL     1      34.238  -6.702 -24.471  0.00  0.00    -0.007 C 
ATOM     11  C   UNL     1      32.661  -8.321 -22.837  0.00  0.00    +0.050 C 
ATOM     12  C   UNL     1      32.059  -7.414 -23.709  0.00  0.00    +0.030 C 
ATOM     13  C   UNL     1      34.840  -7.608 -23.597  0.00  0.00    -0.002 C 
ATOM     14  C   UNL     1      34.051  -8.418 -22.781  0.00  0.00    +0.014 C 
ATOM     15  C   UNL     1      35.106  -5.845 -25.334  0.00  0.00    +0.032 C 
BRANCH   9  16
ATOM     16  N   UNL     1      32.213  -5.682 -25.416  0.00  0.00    -0.219 N 
ATOM     17  H   UNL     1      32.133  -5.878 -26.377  0.00  0.00    +0.173 HD
BRANCH  16  18
ATOM     18  S   UNL     1      31.591  -4.217 -24.757  0.00  0.00    +0.056 S 
ATOM     19  O   UNL     1      30.186  -4.413 -24.455  0.00  0.00    -0.154 OA
ATOM     20  O   UNL     1      32.492  -3.673 -23.760  0.00  0.00    -0.154 OA
ATOM     21  C   UNL     1      31.669  -3.169 -26.193  0.00  0.00    +0.200 C 
ENDBRANCH  16  18
ENDBRANCH   9  16
ENDBRANCH   1  11
BRANCH   5  22
ATOM     22  C   UNL     1      33.276 -13.688 -22.924  0.00  0.00    +0.014 C 
ATOM     23  C   UNL     1      34.271 -14.514 -22.402  0.00  0.00    +0.001 C 
ATOM     24  C   UNL     1      32.869 -13.839 -24.251  0.00  0.00    +0.001 C 
ATOM     25  C   UNL     1      34.860 -15.492 -23.206  0.00  0.00    +0.000 C 
ATOM     26  C   UNL     1      33.458 -14.816 -25.054  0.00  0.00    +0.000 C 
ATOM     27  C   UNL     1      34.452 -15.642 -24.532  0.00  0.00    +0.000 C 
ENDBRANCH   5  22
TORSDOF 4
ENDMDL
MODEL 8
REMARK VINA RESULT:      -9.3     11.868     14.977
REMARK  Name = 25138203
REMARK  4 active torsions:
REMARK  status: ('A' for Active; 'I' for Inactive)
REMARK    1  A    between atoms: N_1  and  C_11
REMARK    2  A    between atoms: C_5  and  C_22
REMARK    3  A    between atoms: C_9  and  N_16
REMARK    4  A    between atoms: N_16  and  S_18
REMARK                            x       y       z     vdW  Elec       q    Type
REMARK                         _______ _______ _______ _____ _____    ______ ____
ROOT
ATOM      1  N   UNL     1      35.868 -23.376 -16.302  0.00  0.00    -0.301 N 
ATOM      2  N   UNL     1      34.398 -22.245 -17.795  0.00  0.00    -0.234 NA
ATOM      3  N   UNL     1      32.014 -22.397 -17.476  0.00  0.00    -0.248 NA
ATOM      4  C   UNL     1      34.556 -23.034 -16.713  0.00  0.00    +0.112 C 
ATOM      5  C   UNL     1      32.246 -23.182 -16.403  0.00  0.00    +0.063 C 
ATOM      6  C   UNL     1      33.507 -23.537 -15.970  0.00  0.00    +0.106 C 
ATOM      7  C   UNL     1      33.118 -21.970 -18.116  0.00  0.00    +0.251 C 
ATOM      8  H   UNL     1      36.517 -23.418 -17.042  0.00  0.00    +0.153 HD
ENDROOT
BRANCH   1  11
ATOM      9  C   UNL     1      37.895 -24.992 -13.664  0.00  0.00    +0.062 C 
ATOM     10  C   UNL     1      37.521 -24.244 -12.547  0.00  0.00    -0.007 C 
ATOM     11  C   UNL     1      36.422 -23.667 -15.045  0.00  0.00    +0.050 C 
ATOM     12  C   UNL     1      37.345 -24.704 -14.913  0.00  0.00    +0.030 C 
ATOM     13  C   UNL     1      36.598 -23.206 -12.681  0.00  0.00    -0.002 C 
ATOM     14  C   UNL     1      36.048 -22.919 -13.929  0.00  0.00    +0.014 C 
ATOM     15  C   UNL     1      38.096 -24.531 -11.198  0.00  0.00    +0.032 C 
BRANCH   9  16
ATOM     16  N   UNL     1      38.840 -26.060 -13.547  0.00  0.00    -0.219 N 
ATOM     17  H   UNL     1      38.592 -26.910 -13.116  0.00  0.00    +0.173 HD
BRANCH  16  18
ATOM     18  S   UNL     1      40.421 -25.816 -14.180  0.00  0.00    +0.056 S 
ATOM     19  O   UNL     1      40.383 -26.059 -15.610  0.00  0.00    -0.154 OA
ATOM     20  O   UNL     1      41.010 -24.601 -13.654  0.00  0.00    -0.154 OA
ATOM     21  C   UNL     1      41.270 -27.197 -13.445  0.00  0.00    +0.200 C 
ENDBRANCH  16  18
ENDBRANCH   9  16
ENDBRANCH   1  11
BRANCH   5  22
ATOM     22  C   UNL     1      31.060 -23.643 -15.713  0.00  0.00    +0.014 C 
ATOM     23  C   UNL     1      31.172 -24.582 -14.688  0.00  0.00    +0.001 C 
ATOM     24  C   UNL     1      29.806 -23.148 -16.071  0.00  0.00    +0.001 C 
ATOM     25  C   UNL     1      30.029 -25.028 -14.022  0.00  0.00    +0.000 C 
ATOM     26  C   UNL     1      28.664 -23.593 -15.405  0.00  0.00    +0.000 C 
ATOM     27  C   UNL     1      28.775 -24.532 -14.380  0.00  0.00    +0.000 C 
ENDBRANCH   5  22
TORSDOF 4
ENDMDL
MODEL 9
REMARK VINA RESULT:      -8.9     11.569     14.487
REMARK  Name = 25138203
REMARK  4 active torsions:
REMARK  status: ('A' for Active; 'I' for Inactive)
REMARK    1  A    between atoms: N_1  and  C_11
REMARK    2  A    between atoms: C_5  and  C_22
REMARK    3  A    between atoms: C_9  and  N_16
REMARK    4  A    between atoms: N_16  and  S_18
REMARK                            x       y       z     vdW  Elec       q    Type
REMARK                         _______ _______ _______ _____ _____    ______ ____
ROOT
ATOM      1  N   UNL     1      33.551 -24.231 -13.441  0.00  0.00    -0.301 N 
ATOM      2  N   UNL     1      34.715 -24.450 -11.375  0.00  0.00    -0.234 NA
ATOM      3  N   UNL     1      37.075 -24.935 -11.373  0.00  0.00    -0.248 NA
ATOM      4  C   UNL     1      34.749 -24.470 -12.723  0.00  0.00    +0.112 C 
ATOM      5  C   UNL     1      37.037 -24.941 -12.722  0.00  0.00    +0.063 C 
ATOM      6  C   UNL     1      35.892 -24.712 -13.458  0.00  0.00    +0.106 C 
ATOM      7  C   UNL     1      35.896 -24.687 -10.773  0.00  0.00    +0.251 C 
ATOM      8  H   UNL     1      32.739 -24.519 -12.964  0.00  0.00    +0.153 HD
ENDROOT
BRANCH   1  11
ATOM      9  C   UNL     1      31.738 -22.810 -16.335  0.00  0.00    +0.062 C 
ATOM     10  C   UNL     1      32.796 -22.537 -17.202  0.00  0.00    -0.007 C 
ATOM     11  C   UNL     1      33.298 -23.664 -14.700  0.00  0.00    +0.050 C 
ATOM     12  C   UNL     1      31.989 -23.374 -15.084  0.00  0.00    +0.030 C 
ATOM     13  C   UNL     1      34.106 -22.827 -16.817  0.00  0.00    -0.002 C 
ATOM     14  C   UNL     1      34.356 -23.391 -15.567  0.00  0.00    +0.014 C 
ATOM     15  C   UNL     1      32.555 -21.932 -18.547  0.00  0.00    +0.032 C 
BRANCH   9  16
ATOM     16  N   UNL     1      30.389 -22.520 -16.712  0.00  0.00    -0.219 N 
ATOM     17  H   UNL     1      30.188 -22.052 -17.554  0.00  0.00    +0.173 HD
BRANCH  16  18
ATOM     18  S   UNL     1      29.126 -23.014 -15.651  0.00  0.00    +0.056 S 
ATOM     19  O   UNL     1      29.259 -24.439 -15.415  0.00  0.00    -0.154 OA
ATOM     20  O   UNL     1      28.991 -22.092 -14.540  0.00  0.00    -0.154 OA
ATOM     21  C   UNL     1      27.718 -22.796 -16.716  0.00  0.00    +0.200 C 
ENDBRANCH  16  18
ENDBRANCH   9  16
ENDBRANCH   1  11
BRANCH   5  22
ATOM     22  C   UNL     1      38.302 -25.208 -13.371  0.00  0.00    +0.014 C 
ATOM     23  C   UNL     1      38.662 -24.497 -14.516  0.00  0.00    +0.001 C 
ATOM     24  C   UNL     1      39.164 -26.175 -12.851  0.00  0.00    +0.001 C 
ATOM     25  C   UNL     1      39.883 -24.753 -15.142  0.00  0.00    +0.000 C 
ATOM     26  C   UNL     1      40.383 -26.431 -13.477  0.00  0.00    +0.000 C 
ATOM     27  C   UNL     1      40.744 -25.721 -14.622  0.00  0.00    +0.000 C 
ENDBRANCH   5  22
TORSDOF 4
ENDMDL
