MODEL 1
REMARK VINA RESULT:     -12.3      0.000      0.000
REMARK  Name = 24779676
REMARK  4 active torsions:
REMARK  status: ('A' for Active; 'I' for Inactive)
REMARK    1  A    between atoms: N_2  and  C_22
REMARK    2  A    between atoms: N_3  and  C_14
REMARK    3  A    between atoms: C_10  and  C_21
REMARK    4  A    between atoms: C_22  and  C_24
REMARK                            x       y       z     vdW  Elec       q    Type
REMARK                         _______ _______ _______ _____ _____    ______ ____
ROOT
ATOM      1  N   UNL     1      32.192 -24.476 -13.946  0.00  0.00    -0.123 N 
ATOM      2  N   UNL     1      34.084 -22.860 -17.082  0.00  0.00    -0.254 N 
ATOM      3  N   UNL     1      34.192 -24.649 -12.704  0.00  0.00    -0.274 N 
ATOM      4  N   UNL     1      34.144 -23.753 -14.896  0.00  0.00    -0.295 NA
ATOM      5  N   UNL     1      32.101 -23.593 -16.125  0.00  0.00    -0.314 NA
ATOM      6  N   UNL     1      31.455 -25.009 -12.956  0.00  0.00    -0.170 NA
ATOM      7  C   UNL     1      33.561 -24.279 -13.859  0.00  0.00    +0.279 C 
ATOM      8  C   UNL     1      31.475 -24.139 -15.059  0.00  0.00    +0.219 C 
ATOM      9  C   UNL     1      33.400 -23.414 -16.025  0.00  0.00    +0.203 C 
ATOM     10  C   UNL     1      30.173 -24.480 -14.774  0.00  0.00    +0.203 C 
ATOM     11  C   UNL     1      30.220 -25.009 -13.468  0.00  0.00    +0.116 C 
ATOM     12  H   UNL     1      35.057 -22.728 -17.004  0.00  0.00    +0.161 HD
ATOM     13  H   UNL     1      33.625 -25.036 -11.997  0.00  0.00    +0.156 HD
ENDROOT
BRANCH   3  14
ATOM     14  C   UNL     1      35.554 -24.538 -12.418  0.00  0.00    +0.051 C 
ATOM     15  C   UNL     1      36.014 -23.502 -11.606  0.00  0.00    +0.015 C 
ATOM     16  C   UNL     1      36.454 -25.463 -12.947  0.00  0.00    +0.015 C 
ATOM     17  C   UNL     1      37.375 -23.392 -11.321  0.00  0.00    +0.001 C 
ATOM     18  C   UNL     1      37.816 -25.353 -12.661  0.00  0.00    +0.001 C 
ATOM     19  C   UNL     1      38.276 -24.317 -11.849  0.00  0.00    +0.000 C 
ENDBRANCH   3  14
BRANCH  10  21
ATOM     20  N   UNL     1      28.127 -24.191 -16.321  0.00  0.00    -0.195 NA
ATOM     21  C   UNL     1      29.047 -24.321 -15.625  0.00  0.00    +0.087 C 
ENDBRANCH  10  21
BRANCH   2  22
ATOM     22  C   UNL     1      33.429 -22.473 -18.291  0.00  0.00    +0.125 C 
BRANCH  22  24
ATOM     23 CL   UNL     1      36.850 -18.630 -21.406  0.00  0.00    -0.082 Cl
ATOM     24  C   UNL     1      34.284 -21.512 -19.069  0.00  0.00    -0.002 C 
ATOM     25  C   UNL     1      35.671 -21.525 -18.911  0.00  0.00    -0.002 C 
ATOM     26  C   UNL     1      33.692 -20.607 -19.951  0.00  0.00    -0.002 C 
ATOM     27  C   UNL     1      36.463 -20.633 -19.634  0.00  0.00    +0.011 C 
ATOM     28  C   UNL     1      34.485 -19.716 -20.673  0.00  0.00    +0.011 C 
ATOM     29  C   UNL     1      35.871 -19.730 -20.515  0.00  0.00    +0.058 C 
ENDBRANCH  22  24
ENDBRANCH   2  22
TORSDOF 4
ENDMDL
MODEL 2
REMARK VINA RESULT:     -11.5      1.467      5.445
REMARK  Name = 24779676
REMARK  4 active torsions:
REMARK  status: ('A' for Active; 'I' for Inactive)
REMARK    1  A    between atoms: N_2  and  C_22
REMARK    2  A    between atoms: N_3  and  C_14
REMARK    3  A    between atoms: C_10  and  C_21
REMARK    4  A    between atoms: C_22  and  C_24
REMARK                            x       y       z     vdW  Elec       q    Type
REMARK                         _______ _______ _______ _____ _____    ______ ____
ROOT
ATOM      1  N   UNL     1      33.903 -24.003 -13.985  0.00  0.00    -0.123 N 
ATOM      2  N   UNL     1      34.397 -22.470 -17.649  0.00  0.00    -0.254 N 
ATOM      3  N   UNL     1      31.551 -23.963 -14.178  0.00  0.00    -0.274 N 
ATOM      4  N   UNL     1      32.971 -23.213 -15.920  0.00  0.00    -0.295 NA
ATOM      5  N   UNL     1      35.348 -23.267 -15.689  0.00  0.00    -0.314 NA
ATOM      6  N   UNL     1      33.857 -24.520 -12.744  0.00  0.00    -0.170 NA
ATOM      7  C   UNL     1      32.775 -23.711 -14.734  0.00  0.00    +0.279 C 
ATOM      8  C   UNL     1      35.167 -23.784 -14.454  0.00  0.00    +0.219 C 
ATOM      9  C   UNL     1      34.267 -22.996 -16.386  0.00  0.00    +0.203 C 
ATOM     10  C   UNL     1      36.009 -24.189 -13.443  0.00  0.00    +0.203 C 
ATOM     11  C   UNL     1      35.148 -24.632 -12.418  0.00  0.00    +0.116 C 
ATOM     12  H   UNL     1      33.585 -22.268 -18.168  0.00  0.00    +0.161 HD
ATOM     13  H   UNL     1      31.549 -24.342 -13.270  0.00  0.00    +0.156 HD
ENDROOT
BRANCH   3  14
ATOM     14  C   UNL     1      30.302 -23.740 -14.762  0.00  0.00    +0.051 C 
ATOM     15  C   UNL     1      29.656 -22.518 -14.580  0.00  0.00    +0.015 C 
ATOM     16  C   UNL     1      29.701 -24.741 -15.526  0.00  0.00    +0.015 C 
ATOM     17  C   UNL     1      28.408 -22.295 -15.164  0.00  0.00    +0.001 C 
ATOM     18  C   UNL     1      28.454 -24.518 -16.110  0.00  0.00    +0.001 C 
ATOM     19  C   UNL     1      27.807 -23.295 -15.928  0.00  0.00    +0.000 C 
ENDBRANCH   3  14
BRANCH  10  21
ATOM     20  N   UNL     1      38.589 -24.131 -13.465  0.00  0.00    -0.195 NA
ATOM     21  C   UNL     1      37.429 -24.157 -13.455  0.00  0.00    +0.087 C 
ENDBRANCH  10  21
BRANCH   2  22
ATOM     22  C   UNL     1      35.674 -22.204 -18.233  0.00  0.00    +0.125 C 
BRANCH  22  24
ATOM     23 CL   UNL     1      35.254 -17.796 -22.304  0.00  0.00    -0.082 Cl
ATOM     24  C   UNL     1      35.568 -21.103 -19.251  0.00  0.00    -0.002 C 
ATOM     25  C   UNL     1      34.333 -20.796 -19.824  0.00  0.00    -0.002 C 
ATOM     26  C   UNL     1      36.706 -20.385 -19.623  0.00  0.00    -0.002 C 
ATOM     27  C   UNL     1      34.237 -19.774 -20.768  0.00  0.00    +0.011 C 
ATOM     28  C   UNL     1      36.609 -19.363 -20.567  0.00  0.00    +0.011 C 
ATOM     29  C   UNL     1      35.374 -19.058 -21.139  0.00  0.00    +0.058 C 
ENDBRANCH  22  24
ENDBRANCH   2  22
TORSDOF 4
ENDMDL
MODEL 3
REMARK VINA RESULT:     -11.5      1.467      5.460
REMARK  Name = 24779676
REMARK  4 active torsions:
REMARK  status: ('A' for Active; 'I' for Inactive)
REMARK    1  A    between atoms: N_2  and  C_22
REMARK    2  A    between atoms: N_3  and  C_14
REMARK    3  A    between atoms: C_10  and  C_21
REMARK    4  A    between atoms: C_22  and  C_24
REMARK                            x       y       z     vdW  Elec       q    Type
REMARK                         _______ _______ _______ _____ _____    ______ ____
ROOT
ATOM      1  N   UNL     1      33.903 -23.994 -13.975  0.00  0.00    -0.123 N 
ATOM      2  N   UNL     1      34.393 -22.472 -17.644  0.00  0.00    -0.254 N 
ATOM      3  N   UNL     1      31.550 -23.950 -14.165  0.00  0.00    -0.274 N 
ATOM      4  N   UNL     1      32.969 -23.208 -15.911  0.00  0.00    -0.295 NA
ATOM      5  N   UNL     1      35.346 -23.266 -15.683  0.00  0.00    -0.314 NA
ATOM      6  N   UNL     1      33.857 -24.508 -12.733  0.00  0.00    -0.170 NA
ATOM      7  C   UNL     1      32.774 -23.702 -14.723  0.00  0.00    +0.279 C 
ATOM      8  C   UNL     1      35.166 -23.779 -14.446  0.00  0.00    +0.219 C 
ATOM      9  C   UNL     1      34.264 -22.994 -16.379  0.00  0.00    +0.203 C 
ATOM     10  C   UNL     1      36.009 -24.182 -13.436  0.00  0.00    +0.203 C 
ATOM     11  C   UNL     1      35.149 -24.621 -12.408  0.00  0.00    +0.116 C 
ATOM     12  H   UNL     1      33.581 -22.270 -18.162  0.00  0.00    +0.161 HD
ATOM     13  H   UNL     1      31.549 -24.327 -13.254  0.00  0.00    +0.156 HD
ENDROOT
BRANCH   3  14
ATOM     14  C   UNL     1      30.301 -23.726 -14.747  0.00  0.00    +0.051 C 
ATOM     15  C   UNL     1      29.700 -24.724 -15.514  0.00  0.00    +0.015 C 
ATOM     16  C   UNL     1      29.654 -22.504 -14.560  0.00  0.00    +0.015 C 
ATOM     17  C   UNL     1      28.451 -24.499 -16.095  0.00  0.00    +0.001 C 
ATOM     18  C   UNL     1      28.405 -22.280 -15.141  0.00  0.00    +0.001 C 
ATOM     19  C   UNL     1      27.805 -23.278 -15.908  0.00  0.00    +0.000 C 
ENDBRANCH   3  14
BRANCH  10  21
ATOM     20  N   UNL     1      38.589 -24.131 -13.462  0.00  0.00    -0.195 NA
ATOM     21  C   UNL     1      37.429 -24.154 -13.450  0.00  0.00    +0.087 C 
ENDBRANCH  10  21
BRANCH   2  22
ATOM     22  C   UNL     1      35.670 -22.210 -18.231  0.00  0.00    +0.125 C 
BRANCH  22  24
ATOM     23 CL   UNL     1      35.253 -17.805 -22.305  0.00  0.00    -0.082 Cl
ATOM     24  C   UNL     1      35.566 -21.109 -19.249  0.00  0.00    -0.002 C 
ATOM     25  C   UNL     1      36.704 -20.393 -19.622  0.00  0.00    -0.002 C 
ATOM     26  C   UNL     1      34.330 -20.803 -19.822  0.00  0.00    -0.002 C 
ATOM     27  C   UNL     1      36.606 -19.372 -20.567  0.00  0.00    +0.011 C 
ATOM     28  C   UNL     1      34.234 -19.781 -20.766  0.00  0.00    +0.011 C 
ATOM     29  C   UNL     1      35.372 -19.066 -21.139  0.00  0.00    +0.058 C 
ENDBRANCH  22  24
ENDBRANCH   2  22
TORSDOF 4
ENDMDL
MODEL 4
REMARK VINA RESULT:     -11.0      2.039      5.459
REMARK  Name = 24779676
REMARK  4 active torsions:
REMARK  status: ('A' for Active; 'I' for Inactive)
REMARK    1  A    between atoms: N_2  and  C_22
REMARK    2  A    between atoms: N_3  and  C_14
REMARK    3  A    between atoms: C_10  and  C_21
REMARK    4  A    between atoms: C_22  and  C_24
REMARK                            x       y       z     vdW  Elec       q    Type
REMARK                         _______ _______ _______ _____ _____    ______ ____
ROOT
ATOM      1  N   UNL     1      35.977 -24.759 -13.830  0.00  0.00    -0.123 N 
ATOM      2  N   UNL     1      35.681 -22.273 -16.953  0.00  0.00    -0.254 N 
ATOM      3  N   UNL     1      33.642 -24.749 -13.476  0.00  0.00    -0.274 N 
ATOM      4  N   UNL     1      34.658 -23.506 -15.219  0.00  0.00    -0.295 NA
ATOM      5  N   UNL     1      37.024 -23.540 -15.547  0.00  0.00    -0.314 NA
ATOM      6  N   UNL     1      36.194 -25.595 -12.800  0.00  0.00    -0.170 NA
ATOM      7  C   UNL     1      34.718 -24.314 -14.201  0.00  0.00    +0.279 C 
ATOM      8  C   UNL     1      37.109 -24.379 -14.492  0.00  0.00    +0.219 C 
ATOM      9  C   UNL     1      35.822 -23.127 -15.885  0.00  0.00    +0.203 C 
ATOM     10  C   UNL     1      38.144 -25.013 -13.843  0.00  0.00    +0.203 C 
ATOM     11  C   UNL     1      37.522 -25.747 -12.813  0.00  0.00    +0.116 C 
ATOM     12  H   UNL     1      34.779 -21.966 -17.203  0.00  0.00    +0.161 HD
ATOM     13  H   UNL     1      33.834 -25.361 -12.728  0.00  0.00    +0.156 HD
ENDROOT
BRANCH   3  14
ATOM     14  C   UNL     1      32.302 -24.419 -13.683  0.00  0.00    +0.051 C 
ATOM     15  C   UNL     1      31.337 -25.425 -13.739  0.00  0.00    +0.015 C 
ATOM     16  C   UNL     1      31.928 -23.084 -13.834  0.00  0.00    +0.015 C 
ATOM     17  C   UNL     1      29.997 -25.094 -13.945  0.00  0.00    +0.001 C 
ATOM     18  C   UNL     1      30.588 -22.753 -14.040  0.00  0.00    +0.001 C 
ATOM     19  C   UNL     1      29.623 -23.759 -14.096  0.00  0.00    +0.000 C 
ENDBRANCH   3  14
BRANCH  10  21
ATOM     20  N   UNL     1      40.654 -24.863 -14.424  0.00  0.00    -0.195 NA
ATOM     21  C   UNL     1      39.525 -24.931 -14.163  0.00  0.00    +0.087 C 
ENDBRANCH  10  21
BRANCH   2  22
ATOM     22  C   UNL     1      36.801 -21.815 -17.713  0.00  0.00    +0.125 C 
BRANCH  22  24
ATOM     23 CL   UNL     1      34.969 -18.485 -22.374  0.00  0.00    -0.082 Cl
ATOM     24  C   UNL     1      36.343 -20.982 -18.877  0.00  0.00    -0.002 C 
ATOM     25  C   UNL     1      37.225 -20.089 -19.487  0.00  0.00    -0.002 C 
ATOM     26  C   UNL     1      35.036 -21.103 -19.350  0.00  0.00    -0.002 C 
ATOM     27  C   UNL     1      36.800 -19.317 -20.568  0.00  0.00    +0.011 C 
ATOM     28  C   UNL     1      34.611 -20.331 -20.431  0.00  0.00    +0.011 C 
ATOM     29  C   UNL     1      35.493 -19.438 -21.040  0.00  0.00    +0.058 C 
ENDBRANCH  22  24
ENDBRANCH   2  22
TORSDOF 4
ENDMDL
MODEL 5
REMARK VINA RESULT:     -10.4      2.641      6.801
REMARK  Name = 24779676
REMARK  4 active torsions:
REMARK  status: ('A' for Active; 'I' for Inactive)
REMARK    1  A    between atoms: N_2  and  C_22
REMARK    2  A    between atoms: N_3  and  C_14
REMARK    3  A    between atoms: C_10  and  C_21
REMARK    4  A    between atoms: C_22  and  C_24
REMARK                            x       y       z     vdW  Elec       q    Type
REMARK                         _______ _______ _______ _____ _____    ______ ____
ROOT
ATOM      1  N   UNL     1      31.875 -23.023 -16.184  0.00  0.00    -0.123 N 
ATOM      2  N   UNL     1      35.582 -22.991 -14.676  0.00  0.00    -0.254 N 
ATOM      3  N   UNL     1      32.574 -21.983 -18.185  0.00  0.00    -0.274 N 
ATOM      4  N   UNL     1      34.086 -22.485 -16.431  0.00  0.00    -0.295 NA
ATOM      5  N   UNL     1      33.342 -23.537 -14.419  0.00  0.00    -0.314 NA
ATOM      6  N   UNL     1      30.594 -23.087 -16.590  0.00  0.00    -0.170 NA
ATOM      7  C   UNL     1      32.893 -22.480 -16.951  0.00  0.00    +0.279 C 
ATOM      8  C   UNL     1      32.095 -23.542 -14.941  0.00  0.00    +0.219 C 
ATOM      9  C   UNL     1      34.296 -23.018 -15.160  0.00  0.00    +0.203 C 
ATOM     10  C   UNL     1      30.866 -23.976 -14.501  0.00  0.00    +0.203 C 
ATOM     11  C   UNL     1      29.982 -23.671 -15.555  0.00  0.00    +0.116 C 
ATOM     12  H   UNL     1      36.294 -22.602 -15.234  0.00  0.00    +0.161 HD
ATOM     13  H   UNL     1      31.629 -22.044 -18.454  0.00  0.00    +0.156 HD
ENDROOT
BRANCH   3  14
ATOM     14  C   UNL     1      33.446 -21.397 -19.105  0.00  0.00    +0.051 C 
ATOM     15  C   UNL     1      32.968 -20.455 -20.016  0.00  0.00    +0.015 C 
ATOM     16  C   UNL     1      34.794 -21.754 -19.113  0.00  0.00    +0.015 C 
ATOM     17  C   UNL     1      33.840 -19.869 -20.934  0.00  0.00    +0.001 C 
ATOM     18  C   UNL     1      35.666 -21.168 -20.031  0.00  0.00    +0.001 C 
ATOM     19  C   UNL     1      35.188 -20.226 -20.941  0.00  0.00    +0.000 C 
ENDBRANCH   3  14
BRANCH  10  21
ATOM     20  N   UNL     1      30.343 -25.099 -12.236  0.00  0.00    -0.195 NA
ATOM     21  C   UNL     1      30.578 -24.594 -13.254  0.00  0.00    +0.087 C 
ENDBRANCH  10  21
BRANCH   2  22
ATOM     22  C   UNL     1      35.920 -23.509 -13.388  0.00  0.00    +0.125 C 
BRANCH  22  24
ATOM     23 CL   UNL     1      41.021 -26.683 -13.664  0.00  0.00    -0.082 Cl
ATOM     24  C   UNL     1      37.195 -24.302 -13.456  0.00  0.00    -0.002 C 
ATOM     25  C   UNL     1      37.529 -25.178 -12.423  0.00  0.00    -0.002 C 
ATOM     26  C   UNL     1      38.045 -24.163 -14.554  0.00  0.00    -0.002 C 
ATOM     27  C   UNL     1      38.712 -25.914 -12.488  0.00  0.00    +0.011 C 
ATOM     28  C   UNL     1      39.228 -24.899 -14.618  0.00  0.00    +0.011 C 
ATOM     29  C   UNL     1      39.561 -25.775 -13.585  0.00  0.00    +0.058 C 
ENDBRANCH  22  24
ENDBRANCH   2  22
TORSDOF 4
ENDMDL
