MODEL 1
REMARK VINA RESULT:     -12.1      0.000      0.000
REMARK  Name = 25151352
REMARK  5 active torsions:
REMARK  status: ('A' for Active; 'I' for Inactive)
REMARK    1  A    between atoms: N_1  and  C_21
REMARK    2  A    between atoms: C_3  and  C_9
REMARK    3  A    between atoms: C_9  and  C_13
REMARK    4  A    between atoms: C_21  and  C_23
REMARK    5  A    between atoms: C_27  and  C_31
REMARK                            x       y       z     vdW  Elec       q    Type
REMARK                         _______ _______ _______ _____ _____    ______ ____
ROOT
ATOM      1  N   UNL     1      35.533 -17.568 -20.732  0.00  0.00    -0.314 N 
ATOM      2  N   UNL     1      34.926 -15.268 -20.890  0.00  0.00    -0.230 NA
ATOM      3  C   UNL     1      34.313 -14.346 -23.039  0.00  0.00    +0.002 C 
ATOM      4  C   UNL     1      34.519 -15.584 -23.637  0.00  0.00    +0.000 C 
ATOM      5  C   UNL     1      34.528 -14.241 -21.674  0.00  0.00    +0.096 C 
ATOM      6  C   UNL     1      35.117 -16.456 -21.507  0.00  0.00    +0.129 C 
ATOM      7  C   UNL     1      34.929 -16.664 -22.864  0.00  0.00    +0.034 C 
ATOM      8  H   UNL     1      35.673 -17.443 -19.767  0.00  0.00    +0.149 HD
ENDROOT
BRANCH   3   9
ATOM      9  C   UNL     1      33.863 -13.145 -23.858  0.00  0.00    +0.056 C 
BRANCH   9  13
ATOM     10 CL   UNL     1      34.857  -7.303 -23.455  0.00  0.00    -0.081 Cl
ATOM     11  N   UNL     1      31.174 -11.501 -22.002  0.00  0.00    -0.297 N 
ATOM     12  N   UNL     1      31.670  -9.146 -21.896  0.00  0.00    -0.228 NA
ATOM     13  C   UNL     1      32.925 -12.244 -23.156  0.00  0.00    -0.000 C 
ATOM     14  C   UNL     1      33.061 -10.840 -22.998  0.00  0.00    +0.030 C 
ATOM     15  C   UNL     1      31.953 -10.407 -22.275  0.00  0.00    +0.132 C 
ATOM     16  C   UNL     1      31.756 -12.623 -22.533  0.00  0.00    +0.059 C 
ATOM     17  C   UNL     1      33.999  -9.869 -23.385  0.00  0.00    +0.015 C 
ATOM     18  C   UNL     1      33.755  -8.547 -23.019  0.00  0.00    +0.077 C 
ATOM     19  C   UNL     1      32.607  -8.255 -22.294  0.00  0.00    +0.112 C 
ATOM     20  H   UNL     1      30.327 -11.484 -21.503  0.00  0.00    +0.154 HD
ENDBRANCH   9  13
ENDBRANCH   3   9
BRANCH   1  21
ATOM     21  C   UNL     1      35.758 -18.857 -21.297  0.00  0.00    +0.117 C 
BRANCH  21  23
ATOM     22  N   UNL     1      35.560 -21.716 -18.826  0.00  0.00    -0.240 NA
ATOM     23  C   UNL     1      35.186 -19.928 -20.410  0.00  0.00    +0.017 C 
ATOM     24  C   UNL     1      33.813 -20.137 -20.333  0.00  0.00    +0.000 C 
ATOM     25  C   UNL     1      36.008 -20.737 -19.643  0.00  0.00    +0.096 C 
ATOM     26  C   UNL     1      33.313 -21.136 -19.504  0.00  0.00    +0.023 C 
ATOM     27  C   UNL     1      34.220 -21.890 -18.777  0.00  0.00    +0.153 C 
BRANCH  27  31
ATOM     28  F   UNL     1      33.692 -24.202 -18.464  0.00  0.00    -0.164 F 
ATOM     29  F   UNL     1      34.464 -23.128 -16.745  0.00  0.00    -0.164 F 
ATOM     30  F   UNL     1      32.443 -22.742 -17.446  0.00  0.00    -0.164 F 
ATOM     31  C   UNL     1      33.718 -22.969 -17.877  0.00  0.00    +0.435 C 
ENDBRANCH  27  31
ENDBRANCH  21  23
ENDBRANCH   1  21
TORSDOF 5
ENDMDL
MODEL 2
REMARK VINA RESULT:     -12.0      5.914     11.049
REMARK  Name = 25151352
REMARK  5 active torsions:
REMARK  status: ('A' for Active; 'I' for Inactive)
REMARK    1  A    between atoms: N_1  and  C_21
REMARK    2  A    between atoms: C_3  and  C_9
REMARK    3  A    between atoms: C_9  and  C_13
REMARK    4  A    between atoms: C_21  and  C_23
REMARK    5  A    between atoms: C_27  and  C_31
REMARK                            x       y       z     vdW  Elec       q    Type
REMARK                         _______ _______ _______ _____ _____    ______ ____
ROOT
ATOM      1  N   UNL     1      35.968 -17.506 -22.470  0.00  0.00    -0.314 N 
ATOM      2  N   UNL     1      36.990 -18.689 -20.671  0.00  0.00    -0.230 NA
ATOM      3  C   UNL     1      35.907 -20.654 -19.772  0.00  0.00    +0.002 C 
ATOM      4  C   UNL     1      34.867 -20.506 -20.684  0.00  0.00    +0.000 C 
ATOM      5  C   UNL     1      36.936 -19.727 -19.807  0.00  0.00    +0.096 C 
ATOM      6  C   UNL     1      35.961 -18.577 -21.541  0.00  0.00    +0.129 C 
ATOM      7  C   UNL     1      34.887 -19.450 -21.587  0.00  0.00    +0.034 C 
ATOM      8  H   UNL     1      36.721 -16.873 -22.455  0.00  0.00    +0.149 HD
ENDROOT
BRANCH   3   9
ATOM      9  C   UNL     1      35.914 -21.800 -18.771  0.00  0.00    +0.056 C 
BRANCH   9  13
ATOM     10 CL   UNL     1      35.310 -24.281 -13.409  0.00  0.00    -0.081 Cl
ATOM     11  N   UNL     1      32.385 -22.367 -18.000  0.00  0.00    -0.297 N 
ATOM     12  N   UNL     1      32.249 -23.371 -15.814  0.00  0.00    -0.228 NA
ATOM     13  C   UNL     1      34.587 -22.134 -18.215  0.00  0.00    -0.000 C 
ATOM     14  C   UNL     1      34.323 -22.726 -16.952  0.00  0.00    +0.030 C 
ATOM     15  C   UNL     1      32.942 -22.857 -16.848  0.00  0.00    +0.132 C 
ATOM     16  C   UNL     1      33.375 -21.924 -18.838  0.00  0.00    +0.059 C 
ATOM     17  C   UNL     1      35.098 -23.173 -15.869  0.00  0.00    +0.015 C 
ATOM     18  C   UNL     1      34.431 -23.714 -14.772  0.00  0.00    +0.077 C 
ATOM     19  C   UNL     1      33.045 -23.786 -14.801  0.00  0.00    +0.112 C 
ATOM     20  H   UNL     1      31.421 -22.336 -18.195  0.00  0.00    +0.154 HD
ENDBRANCH   9  13
ENDBRANCH   3   9
BRANCH   1  21
ATOM     21  C   UNL     1      34.926 -17.310 -23.424  0.00  0.00    +0.117 C 
BRANCH  21  23
ATOM     22  N   UNL     1      34.526 -13.675 -22.450  0.00  0.00    -0.240 NA
ATOM     23  C   UNL     1      34.538 -15.858 -23.489  0.00  0.00    +0.017 C 
ATOM     24  C   UNL     1      33.860 -15.346 -24.590  0.00  0.00    +0.000 C 
ATOM     25  C   UNL     1      34.845 -14.989 -22.455  0.00  0.00    +0.096 C 
ATOM     26  C   UNL     1      33.514 -13.999 -24.621  0.00  0.00    +0.023 C 
ATOM     27  C   UNL     1      33.868 -13.213 -23.536  0.00  0.00    +0.153 C 
BRANCH  27  31
ATOM     28  F   UNL     1      34.598 -10.935 -23.511  0.00  0.00    -0.164 F 
ATOM     29  F   UNL     1      32.795 -11.377 -24.633  0.00  0.00    -0.164 F 
ATOM     30  F   UNL     1      32.755 -11.409 -22.459  0.00  0.00    -0.164 F 
ATOM     31  C   UNL     1      33.513 -11.764 -23.537  0.00  0.00    +0.435 C 
ENDBRANCH  27  31
ENDBRANCH  21  23
ENDBRANCH   1  21
TORSDOF 5
ENDMDL
MODEL 3
REMARK VINA RESULT:     -12.0      3.586      5.535
REMARK  Name = 25151352
REMARK  5 active torsions:
REMARK  status: ('A' for Active; 'I' for Inactive)
REMARK    1  A    between atoms: N_1  and  C_21
REMARK    2  A    between atoms: C_3  and  C_9
REMARK    3  A    between atoms: C_9  and  C_13
REMARK    4  A    between atoms: C_21  and  C_23
REMARK    5  A    between atoms: C_27  and  C_31
REMARK                            x       y       z     vdW  Elec       q    Type
REMARK                         _______ _______ _______ _____ _____    ______ ____
ROOT
ATOM      1  N   UNL     1      35.099 -22.219 -18.728  0.00  0.00    -0.314 N 
ATOM      2  N   UNL     1      36.573 -20.524 -19.526  0.00  0.00    -0.230 NA
ATOM      3  C   UNL     1      35.704 -18.755 -20.925  0.00  0.00    +0.002 C 
ATOM      4  C   UNL     1      34.431 -19.310 -20.848  0.00  0.00    +0.000 C 
ATOM      5  C   UNL     1      36.732 -19.395 -20.251  0.00  0.00    +0.096 C 
ATOM      6  C   UNL     1      35.323 -21.035 -19.476  0.00  0.00    +0.129 C 
ATOM      7  C   UNL     1      34.229 -20.472 -20.112  0.00  0.00    +0.034 C 
ATOM      8  H   UNL     1      35.861 -22.637 -18.267  0.00  0.00    +0.149 HD
ENDROOT
BRANCH   3   9
ATOM      9  C   UNL     1      35.958 -17.484 -21.721  0.00  0.00    +0.056 C 
BRANCH   9  13
ATOM     10 CL   UNL     1      33.835 -12.267 -23.608  0.00  0.00    -0.081 Cl
ATOM     11  N   UNL     1      34.087 -17.900 -24.836  0.00  0.00    -0.297 N 
ATOM     12  N   UNL     1      33.272 -15.737 -25.514  0.00  0.00    -0.228 NA
ATOM     13  C   UNL     1      35.163 -17.371 -22.962  0.00  0.00    -0.000 C 
ATOM     14  C   UNL     1      34.608 -16.184 -23.506  0.00  0.00    +0.030 C 
ATOM     15  C   UNL     1      33.944 -16.547 -24.674  0.00  0.00    +0.132 C 
ATOM     16  C   UNL     1      34.826 -18.412 -23.801  0.00  0.00    +0.059 C 
ATOM     17  C   UNL     1      34.587 -14.826 -23.146  0.00  0.00    +0.015 C 
ATOM     18  C   UNL     1      33.905 -13.943 -23.981  0.00  0.00    +0.077 C 
ATOM     19  C   UNL     1      33.284 -14.442 -25.118  0.00  0.00    +0.112 C 
ATOM     20  H   UNL     1      33.717 -18.424 -25.581  0.00  0.00    +0.154 HD
ENDBRANCH   9  13
ENDBRANCH   3   9
BRANCH   1  21
ATOM     21  C   UNL     1      33.815 -22.828 -18.618  0.00  0.00    +0.117 C 
BRANCH  21  23
ATOM     22  N   UNL     1      34.215 -23.730 -14.966  0.00  0.00    -0.240 NA
ATOM     23  C   UNL     1      33.477 -23.088 -17.176  0.00  0.00    +0.017 C 
ATOM     24  C   UNL     1      32.175 -22.943 -16.707  0.00  0.00    +0.000 C 
ATOM     25  C   UNL     1      34.451 -23.480 -16.273  0.00  0.00    +0.096 C 
ATOM     26  C   UNL     1      31.893 -23.192 -15.368  0.00  0.00    +0.023 C 
ATOM     27  C   UNL     1      32.939 -23.579 -14.546  0.00  0.00    +0.153 C 
BRANCH  27  31
ATOM     28  F   UNL     1      33.785 -23.774 -12.317  0.00  0.00    -0.164 F 
ATOM     29  F   UNL     1      31.775 -22.991 -12.540  0.00  0.00    -0.164 F 
ATOM     30  F   UNL     1      32.163 -25.102 -12.893  0.00  0.00    -0.164 F 
ATOM     31  C   UNL     1      32.672 -23.853 -13.104  0.00  0.00    +0.435 C 
ENDBRANCH  27  31
ENDBRANCH  21  23
ENDBRANCH   1  21
TORSDOF 5
ENDMDL
MODEL 4
REMARK VINA RESULT:     -11.9      3.897      6.070
REMARK  Name = 25151352
REMARK  5 active torsions:
REMARK  status: ('A' for Active; 'I' for Inactive)
REMARK    1  A    between atoms: N_1  and  C_21
REMARK    2  A    between atoms: C_3  and  C_9
REMARK    3  A    between atoms: C_9  and  C_13
REMARK    4  A    between atoms: C_21  and  C_23
REMARK    5  A    between atoms: C_27  and  C_31
REMARK                            x       y       z     vdW  Elec       q    Type
REMARK                         _______ _______ _______ _____ _____    ______ ____
ROOT
ATOM      1  N   UNL     1      33.206 -22.178 -18.545  0.00  0.00    -0.314 N 
ATOM      2  N   UNL     1      33.106 -20.456 -20.190  0.00  0.00    -0.230 NA
ATOM      3  C   UNL     1      35.152 -19.412 -20.944  0.00  0.00    +0.002 C 
ATOM      4  C   UNL     1      35.889 -20.223 -20.089  0.00  0.00    +0.000 C 
ATOM      5  C   UNL     1      33.775 -19.566 -20.957  0.00  0.00    +0.096 C 
ATOM      6  C   UNL     1      33.856 -21.226 -19.371  0.00  0.00    +0.129 C 
ATOM      7  C   UNL     1      35.237 -21.150 -19.284  0.00  0.00    +0.034 C 
ATOM      8  H   UNL     1      32.226 -22.249 -18.590  0.00  0.00    +0.149 HD
ENDROOT
BRANCH   3   9
ATOM      9  C   UNL     1      35.837 -18.389 -21.838  0.00  0.00    +0.056 C 
BRANCH   9  13
ATOM     10 CL   UNL     1      34.252 -12.783 -22.994  0.00  0.00    -0.081 Cl
ATOM     11  N   UNL     1      33.981 -18.193 -24.983  0.00  0.00    -0.297 N 
ATOM     12  N   UNL     1      33.387 -15.889 -25.358  0.00  0.00    -0.228 NA
ATOM     13  C   UNL     1      35.075 -18.032 -23.052  0.00  0.00    -0.000 C 
ATOM     14  C   UNL     1      34.644 -16.733 -23.429  0.00  0.00    +0.030 C 
ATOM     15  C   UNL     1      33.966 -16.867 -24.637  0.00  0.00    +0.132 C 
ATOM     16  C   UNL     1      34.652 -18.910 -24.027  0.00  0.00    +0.059 C 
ATOM     17  C   UNL     1      34.748 -15.441 -22.886  0.00  0.00    +0.015 C 
ATOM     18  C   UNL     1      34.167 -14.390 -23.593  0.00  0.00    +0.077 C 
ATOM     19  C   UNL     1      33.517 -14.668 -24.789  0.00  0.00    +0.112 C 
ATOM     20  H   UNL     1      33.573 -18.572 -25.794  0.00  0.00    +0.154 HD
ENDBRANCH   9  13
ENDBRANCH   3   9
BRANCH   1  21
ATOM     21  C   UNL     1      33.916 -23.033 -17.652  0.00  0.00    +0.117 C 
BRANCH  21  23
ATOM     22  N   UNL     1      32.883 -24.336 -14.252  0.00  0.00    -0.240 NA
ATOM     23  C   UNL     1      33.056 -23.390 -16.471  0.00  0.00    +0.017 C 
ATOM     24  C   UNL     1      31.689 -23.131 -16.474  0.00  0.00    +0.000 C 
ATOM     25  C   UNL     1      33.599 -23.989 -15.346  0.00  0.00    +0.096 C 
ATOM     26  C   UNL     1      30.920 -23.474 -15.368  0.00  0.00    +0.023 C 
ATOM     27  C   UNL     1      31.559 -24.068 -14.292  0.00  0.00    +0.153 C 
BRANCH  27  31
ATOM     28  F   UNL     1      29.480 -24.816 -13.374  0.00  0.00    -0.164 F 
ATOM     29  F   UNL     1      31.290 -25.500 -12.394  0.00  0.00    -0.164 F 
ATOM     30  F   UNL     1      30.659 -23.430 -12.185  0.00  0.00    -0.164 F 
ATOM     31  C   UNL     1      30.763 -24.448 -13.088  0.00  0.00    +0.435 C 
ENDBRANCH  27  31
ENDBRANCH  21  23
ENDBRANCH   1  21
TORSDOF 5
ENDMDL
MODEL 5
REMARK VINA RESULT:     -11.4      5.646     10.724
REMARK  Name = 25151352
REMARK  5 active torsions:
REMARK  status: ('A' for Active; 'I' for Inactive)
REMARK    1  A    between atoms: N_1  and  C_21
REMARK    2  A    between atoms: C_3  and  C_9
REMARK    3  A    between atoms: C_9  and  C_13
REMARK    4  A    between atoms: C_21  and  C_23
REMARK    5  A    between atoms: C_27  and  C_31
REMARK                            x       y       z     vdW  Elec       q    Type
REMARK                         _______ _______ _______ _____ _____    ______ ____
ROOT
ATOM      1  N   UNL     1      36.024 -16.930 -22.175  0.00  0.00    -0.314 N 
ATOM      2  N   UNL     1      36.966 -18.404 -20.556  0.00  0.00    -0.230 NA
ATOM      3  C   UNL     1      35.914 -20.540 -20.139  0.00  0.00    +0.002 C 
ATOM      4  C   UNL     1      34.938 -20.252 -21.087  0.00  0.00    +0.000 C 
ATOM      5  C   UNL     1      36.898 -19.591 -19.913  0.00  0.00    +0.096 C 
ATOM      6  C   UNL     1      36.000 -18.160 -21.470  0.00  0.00    +0.129 C 
ATOM      7  C   UNL     1      34.974 -19.042 -21.769  0.00  0.00    +0.034 C 
ATOM      8  H   UNL     1      36.743 -16.288 -21.978  0.00  0.00    +0.149 HD
ENDROOT
BRANCH   3   9
ATOM      9  C   UNL     1      35.902 -21.857 -19.377  0.00  0.00    +0.056 C 
BRANCH   9  13
ATOM     10 CL   UNL     1      35.897 -23.456 -13.658  0.00  0.00    -0.081 Cl
ATOM     11  N   UNL     1      32.484 -22.379 -18.184  0.00  0.00    -0.297 N 
ATOM     12  N   UNL     1      32.592 -23.021 -15.865  0.00  0.00    -0.228 NA
ATOM     13  C   UNL     1      34.646 -22.129 -18.648  0.00  0.00    -0.000 C 
ATOM     14  C   UNL     1      34.525 -22.517 -17.288  0.00  0.00    +0.030 C 
ATOM     15  C   UNL     1      33.165 -22.664 -17.030  0.00  0.00    +0.132 C 
ATOM     16  C   UNL     1      33.374 -22.053 -19.175  0.00  0.00    +0.059 C 
ATOM     17  C   UNL     1      35.414 -22.764 -16.229  0.00  0.00    +0.015 C 
ATOM     18  C   UNL     1      34.873 -23.137 -15.000  0.00  0.00    +0.077 C 
ATOM     19  C   UNL     1      33.494 -23.247 -14.882  0.00  0.00    +0.112 C 
ATOM     20  H   UNL     1      31.506 -22.404 -18.287  0.00  0.00    +0.154 HD
ENDBRANCH   9  13
ENDBRANCH   3   9
BRANCH   1  21
ATOM     21  C   UNL     1      35.048 -16.586 -23.155  0.00  0.00    +0.117 C 
BRANCH  21  23
ATOM     22  N   UNL     1      32.945 -13.452 -23.416  0.00  0.00    -0.240 NA
ATOM     23  C   UNL     1      34.334 -15.321 -22.768  0.00  0.00    +0.017 C 
ATOM     24  C   UNL     1      34.383 -14.841 -21.463  0.00  0.00    +0.000 C 
ATOM     25  C   UNL     1      33.608 -14.596 -23.698  0.00  0.00    +0.096 C 
ATOM     26  C   UNL     1      33.714 -13.668 -21.134  0.00  0.00    +0.023 C 
ATOM     27  C   UNL     1      33.015 -13.017 -22.138  0.00  0.00    +0.153 C 
BRANCH  27  31
ATOM     28  F   UNL     1      30.978 -11.765 -22.216  0.00  0.00    -0.164 F 
ATOM     29  F   UNL     1      32.251 -11.464 -20.486  0.00  0.00    -0.164 F 
ATOM     30  F   UNL     1      32.840 -10.662 -22.419  0.00  0.00    -0.164 F 
ATOM     31  C   UNL     1      32.284 -11.755 -21.820  0.00  0.00    +0.435 C 
ENDBRANCH  27  31
ENDBRANCH  21  23
ENDBRANCH   1  21
TORSDOF 5
ENDMDL
MODEL 6
REMARK VINA RESULT:     -11.4      6.171     11.046
REMARK  Name = 25151352
REMARK  5 active torsions:
REMARK  status: ('A' for Active; 'I' for Inactive)
REMARK    1  A    between atoms: N_1  and  C_21
REMARK    2  A    between atoms: C_3  and  C_9
REMARK    3  A    between atoms: C_9  and  C_13
REMARK    4  A    between atoms: C_21  and  C_23
REMARK    5  A    between atoms: C_27  and  C_31
REMARK                            x       y       z     vdW  Elec       q    Type
REMARK                         _______ _______ _______ _____ _____    ______ ____
ROOT
ATOM      1  N   UNL     1      34.268 -13.626 -22.091  0.00  0.00    -0.314 N 
ATOM      2  N   UNL     1      34.765 -15.503 -20.711  0.00  0.00    -0.230 NA
ATOM      3  C   UNL     1      35.321 -17.620 -21.737  0.00  0.00    +0.002 C 
ATOM      4  C   UNL     1      35.171 -17.055 -22.999  0.00  0.00    +0.000 C 
ATOM      5  C   UNL     1      35.109 -16.809 -20.634  0.00  0.00    +0.096 C 
ATOM      6  C   UNL     1      34.627 -14.990 -21.954  0.00  0.00    +0.129 C 
ATOM      7  C   UNL     1      34.817 -15.716 -23.118  0.00  0.00    +0.034 C 
ATOM      8  H   UNL     1      34.128 -13.090 -21.278  0.00  0.00    +0.149 HD
ENDROOT
BRANCH   3   9
ATOM      9  C   UNL     1      35.709 -19.082 -21.575  0.00  0.00    +0.056 C 
BRANCH   9  13
ATOM     10 CL   UNL     1      37.272 -22.315 -16.844  0.00  0.00    -0.081 Cl
ATOM     11  N   UNL     1      32.816 -20.851 -20.205  0.00  0.00    -0.297 N 
ATOM     12  N   UNL     1      33.553 -22.127 -18.299  0.00  0.00    -0.228 NA
ATOM     13  C   UNL     1      34.725 -19.896 -20.830  0.00  0.00    -0.000 C 
ATOM     14  C   UNL     1      34.984 -20.704 -19.692  0.00  0.00    +0.030 C 
ATOM     15  C   UNL     1      33.774 -21.285 -19.327  0.00  0.00    +0.132 C 
ATOM     16  C   UNL     1      33.383 -20.006 -21.123  0.00  0.00    +0.059 C 
ATOM     17  C   UNL     1      36.112 -21.017 -18.917  0.00  0.00    +0.015 C 
ATOM     18  C   UNL     1      35.940 -21.885 -17.839  0.00  0.00    +0.077 C 
ATOM     19  C   UNL     1      34.673 -22.394 -17.588  0.00  0.00    +0.112 C 
ATOM     20  H   UNL     1      31.866 -21.106 -20.180  0.00  0.00    +0.154 HD
ENDBRANCH   9  13
ENDBRANCH   3   9
BRANCH   1  21
ATOM     21  C   UNL     1      34.101 -12.999 -23.362  0.00  0.00    +0.117 C 
BRANCH  21  23
ATOM     22  N   UNL     1      31.559 -10.366 -22.400  0.00  0.00    -0.240 NA
ATOM     23  C   UNL     1      33.437 -11.659 -23.205  0.00  0.00    +0.017 C 
ATOM     24  C   UNL     1      34.036 -10.501 -23.689  0.00  0.00    +0.000 C 
ATOM     25  C   UNL     1      32.210 -11.539 -22.574  0.00  0.00    +0.096 C 
ATOM     26  C   UNL     1      33.398  -9.276 -23.529  0.00  0.00    +0.023 C 
ATOM     27  C   UNL     1      32.172  -9.262 -22.883  0.00  0.00    +0.153 C 
BRANCH  27  31
ATOM     28  F   UNL     1      32.158  -6.886 -23.154  0.00  0.00    -0.164 F 
ATOM     29  F   UNL     1      30.252  -7.907 -23.331  0.00  0.00    -0.164 F 
ATOM     30  F   UNL     1      31.195  -7.698 -21.382  0.00  0.00    -0.164 F 
ATOM     31  C   UNL     1      31.459  -7.965 -22.694  0.00  0.00    +0.435 C 
ENDBRANCH  27  31
ENDBRANCH  21  23
ENDBRANCH   1  21
TORSDOF 5
ENDMDL
MODEL 7
REMARK VINA RESULT:     -11.2      3.389      5.715
REMARK  Name = 25151352
REMARK  5 active torsions:
REMARK  status: ('A' for Active; 'I' for Inactive)
REMARK    1  A    between atoms: N_1  and  C_21
REMARK    2  A    between atoms: C_3  and  C_9
REMARK    3  A    between atoms: C_9  and  C_13
REMARK    4  A    between atoms: C_21  and  C_23
REMARK    5  A    between atoms: C_27  and  C_31
REMARK                            x       y       z     vdW  Elec       q    Type
REMARK                         _______ _______ _______ _____ _____    ______ ____
ROOT
ATOM      1  N   UNL     1      33.113 -22.158 -18.617  0.00  0.00    -0.314 N 
ATOM      2  N   UNL     1      32.878 -20.534 -20.345  0.00  0.00    -0.230 NA
ATOM      3  C   UNL     1      34.834 -19.364 -21.151  0.00  0.00    +0.002 C 
ATOM      4  C   UNL     1      35.633 -20.070 -20.258  0.00  0.00    +0.000 C 
ATOM      5  C   UNL     1      33.475 -19.631 -21.155  0.00  0.00    +0.096 C 
ATOM      6  C   UNL     1      33.687 -21.199 -19.489  0.00  0.00    +0.129 C 
ATOM      7  C   UNL     1      35.056 -21.007 -19.408  0.00  0.00    +0.034 C 
ATOM      8  H   UNL     1      32.143 -22.312 -18.657  0.00  0.00    +0.149 HD
ENDROOT
BRANCH   3   9
ATOM      9  C   UNL     1      35.437 -18.334 -22.095  0.00  0.00    +0.056 C 
BRANCH   9  13
ATOM     10 CL   UNL     1      33.261 -14.600 -26.168  0.00  0.00    -0.081 Cl
ATOM     11  N   UNL     1      34.829 -15.038 -20.633  0.00  0.00    -0.297 N 
ATOM     12  N   UNL     1      33.952 -13.604 -22.358  0.00  0.00    -0.228 NA
ATOM     13  C   UNL     1      35.102 -16.934 -21.764  0.00  0.00    -0.000 C 
ATOM     14  C   UNL     1      34.580 -15.957 -22.652  0.00  0.00    +0.030 C 
ATOM     15  C   UNL     1      34.420 -14.787 -21.916  0.00  0.00    +0.132 C 
ATOM     16  C   UNL     1      35.245 -16.340 -20.529  0.00  0.00    +0.059 C 
ATOM     17  C   UNL     1      34.217 -15.921 -24.009  0.00  0.00    +0.015 C 
ATOM     18  C   UNL     1      33.725 -14.721 -24.519  0.00  0.00    +0.077 C 
ATOM     19  C   UNL     1      33.619 -13.628 -23.670  0.00  0.00    +0.112 C 
ATOM     20  H   UNL     1      34.824 -14.384 -19.897  0.00  0.00    +0.154 HD
ENDBRANCH   9  13
ENDBRANCH   3   9
BRANCH   1  21
ATOM     21  C   UNL     1      33.888 -22.908 -17.683  0.00  0.00    +0.117 C 
BRANCH  21  23
ATOM     22  N   UNL     1      32.908 -24.341 -14.321  0.00  0.00    -0.240 NA
ATOM     23  C   UNL     1      33.048 -23.304 -16.500  0.00  0.00    +0.017 C 
ATOM     24  C   UNL     1      31.686 -23.024 -16.462  0.00  0.00    +0.000 C 
ATOM     25  C   UNL     1      33.606 -23.958 -15.414  0.00  0.00    +0.096 C 
ATOM     26  C   UNL     1      30.935 -23.403 -15.355  0.00  0.00    +0.023 C 
ATOM     27  C   UNL     1      31.588 -24.052 -14.320  0.00  0.00    +0.153 C 
BRANCH  27  31
ATOM     28  F   UNL     1      29.544 -24.891 -13.401  0.00  0.00    -0.164 F 
ATOM     29  F   UNL     1      31.384 -25.506 -12.430  0.00  0.00    -0.164 F 
ATOM     30  F   UNL     1      30.669 -23.465 -12.206  0.00  0.00    -0.164 F 
ATOM     31  C   UNL     1      30.812 -24.472 -13.116  0.00  0.00    +0.435 C 
ENDBRANCH  27  31
ENDBRANCH  21  23
ENDBRANCH   1  21
TORSDOF 5
ENDMDL
MODEL 8
REMARK VINA RESULT:     -11.1      5.616     10.873
REMARK  Name = 25151352
REMARK  5 active torsions:
REMARK  status: ('A' for Active; 'I' for Inactive)
REMARK    1  A    between atoms: N_1  and  C_21
REMARK    2  A    between atoms: C_3  and  C_9
REMARK    3  A    between atoms: C_9  and  C_13
REMARK    4  A    between atoms: C_21  and  C_23
REMARK    5  A    between atoms: C_27  and  C_31
REMARK                            x       y       z     vdW  Elec       q    Type
REMARK                         _______ _______ _______ _____ _____    ______ ____
ROOT
ATOM      1  N   UNL     1      36.478 -17.554 -21.700  0.00  0.00    -0.314 N 
ATOM      2  N   UNL     1      36.913 -19.246 -20.079  0.00  0.00    -0.230 NA
ATOM      3  C   UNL     1      35.317 -21.036 -19.772  0.00  0.00    +0.002 C 
ATOM      4  C   UNL     1      34.504 -20.489 -20.758  0.00  0.00    +0.000 C 
ATOM      5  C   UNL     1      36.501 -20.382 -19.472  0.00  0.00    +0.096 C 
ATOM      6  C   UNL     1      36.095 -18.744 -21.031  0.00  0.00    +0.129 C 
ATOM      7  C   UNL     1      34.892 -19.321 -21.404  0.00  0.00    +0.034 C 
ATOM      8  H   UNL     1      37.328 -17.126 -21.451  0.00  0.00    +0.149 HD
ENDROOT
BRANCH   3   9
ATOM      9  C   UNL     1      34.920 -22.314 -19.048  0.00  0.00    +0.056 C 
BRANCH   9  13
ATOM     10 CL   UNL     1      31.344 -24.292 -14.739  0.00  0.00    -0.081 Cl
ATOM     11  N   UNL     1      36.622 -22.222 -15.812  0.00  0.00    -0.297 N 
ATOM     12  N   UNL     1      35.093 -23.040 -14.140  0.00  0.00    -0.228 NA
ATOM     13  C   UNL     1      35.364 -22.381 -17.640  0.00  0.00    -0.000 C 
ATOM     14  C   UNL     1      34.599 -22.833 -16.533  0.00  0.00    +0.030 C 
ATOM     15  C   UNL     1      35.412 -22.722 -15.409  0.00  0.00    +0.132 C 
ATOM     16  C   UNL     1      36.604 -22.011 -17.166  0.00  0.00    +0.059 C 
ATOM     17  C   UNL     1      33.299 -23.331 -16.344  0.00  0.00    +0.015 C 
ATOM     18  C   UNL     1      32.917 -23.676 -15.049  0.00  0.00    +0.077 C 
ATOM     19  C   UNL     1      33.831 -23.513 -14.017  0.00  0.00    +0.112 C 
ATOM     20  H   UNL     1      37.387 -22.042 -15.220  0.00  0.00    +0.154 HD
ENDBRANCH   9  13
ENDBRANCH   3   9
BRANCH   1  21
ATOM     21  C   UNL     1      35.680 -16.953 -22.718  0.00  0.00    +0.117 C 
BRANCH  21  23
ATOM     22  N   UNL     1      33.421 -13.923 -22.523  0.00  0.00    -0.240 NA
ATOM     23  C   UNL     1      34.852 -15.836 -22.146  0.00  0.00    +0.017 C 
ATOM     24  C   UNL     1      34.734 -15.661 -20.771  0.00  0.00    +0.000 C 
ATOM     25  C   UNL     1      34.181 -14.948 -22.971  0.00  0.00    +0.096 C 
ATOM     26  C   UNL     1      33.962 -14.618 -20.271  0.00  0.00    +0.023 C 
ATOM     27  C   UNL     1      33.331 -13.785 -21.181  0.00  0.00    +0.153 C 
BRANCH  27  31
ATOM     28  F   UNL     1      32.771 -12.300 -19.391  0.00  0.00    -0.164 F 
ATOM     29  F   UNL     1      32.632 -11.508 -21.406  0.00  0.00    -0.164 F 
ATOM     30  F   UNL     1      31.159 -12.944 -20.701  0.00  0.00    -0.164 F 
ATOM     31  C   UNL     1      32.493 -12.656 -20.680  0.00  0.00    +0.435 C 
ENDBRANCH  27  31
ENDBRANCH  21  23
ENDBRANCH   1  21
TORSDOF 5
ENDMDL
MODEL 9
REMARK VINA RESULT:     -11.0      5.763     11.174
REMARK  Name = 25151352
REMARK  5 active torsions:
REMARK  status: ('A' for Active; 'I' for Inactive)
REMARK    1  A    between atoms: N_1  and  C_21
REMARK    2  A    between atoms: C_3  and  C_9
REMARK    3  A    between atoms: C_9  and  C_13
REMARK    4  A    between atoms: C_21  and  C_23
REMARK    5  A    between atoms: C_27  and  C_31
REMARK                            x       y       z     vdW  Elec       q    Type
REMARK                         _______ _______ _______ _____ _____    ______ ____
ROOT
ATOM      1  N   UNL     1      34.366 -19.133 -21.113  0.00  0.00    -0.314 N 
ATOM      2  N   UNL     1      33.285 -20.965 -20.038  0.00  0.00    -0.230 NA
ATOM      3  C   UNL     1      34.544 -22.365 -18.522  0.00  0.00    +0.002 C 
ATOM      4  C   UNL     1      35.681 -21.596 -18.745  0.00  0.00    +0.000 C 
ATOM      5  C   UNL     1      33.381 -22.011 -19.186  0.00  0.00    +0.096 C 
ATOM      6  C   UNL     1      34.411 -20.242 -20.231  0.00  0.00    +0.129 C 
ATOM      7  C   UNL     1      35.622 -20.513 -19.614  0.00  0.00    +0.034 C 
ATOM      8  H   UNL     1      33.517 -18.922 -21.563  0.00  0.00    +0.149 HD
ENDROOT
BRANCH   3   9
ATOM      9  C   UNL     1      34.577 -23.555 -17.575  0.00  0.00    +0.056 C 
BRANCH   9  13
ATOM     10 CL   UNL     1      28.767 -23.235 -16.383  0.00  0.00    -0.081 Cl
ATOM     11  N   UNL     1      34.022 -22.814 -14.037  0.00  0.00    -0.297 N 
ATOM     12  N   UNL     1      31.645 -22.705 -13.659  0.00  0.00    -0.228 NA
ATOM     13  C   UNL     1      34.077 -23.267 -16.214  0.00  0.00    -0.000 C 
ATOM     14  C   UNL     1      32.719 -23.166 -15.815  0.00  0.00    +0.030 C 
ATOM     15  C   UNL     1      32.719 -22.884 -14.453  0.00  0.00    +0.132 C 
ATOM     16  C   UNL     1      34.857 -23.045 -15.099  0.00  0.00    +0.059 C 
ATOM     17  C   UNL     1      31.472 -23.283 -16.452  0.00  0.00    +0.015 C 
ATOM     18  C   UNL     1      30.327 -23.107 -15.676  0.00  0.00    +0.077 C 
ATOM     19  C   UNL     1      30.473 -22.828 -14.324  0.00  0.00    +0.112 C 
ATOM     20  H   UNL     1      34.314 -22.627 -13.116  0.00  0.00    +0.154 HD
ENDBRANCH   9  13
ENDBRANCH   3   9
BRANCH   1  21
ATOM     21  C   UNL     1      35.503 -18.314 -21.376  0.00  0.00    +0.117 C 
BRANCH  21  23
ATOM     22  N   UNL     1      34.503 -15.521 -23.725  0.00  0.00    -0.240 NA
ATOM     23  C   UNL     1      35.073 -16.959 -21.867  0.00  0.00    +0.017 C 
ATOM     24  C   UNL     1      34.850 -15.912 -20.979  0.00  0.00    +0.000 C 
ATOM     25  C   UNL     1      34.887 -16.714 -23.218  0.00  0.00    +0.096 C 
ATOM     26  C   UNL     1      34.454 -14.670 -21.463  0.00  0.00    +0.023 C 
ATOM     27  C   UNL     1      34.295 -14.528 -22.832  0.00  0.00    +0.153 C 
BRANCH  27  31
ATOM     28  F   UNL     1      34.684 -12.175 -23.019  0.00  0.00    -0.164 F 
ATOM     29  F   UNL     1      33.839 -13.172 -24.750  0.00  0.00    -0.164 F 
ATOM     30  F   UNL     1      32.617 -12.849 -22.981  0.00  0.00    -0.164 F 
ATOM     31  C   UNL     1      33.870 -13.209 -23.385  0.00  0.00    +0.435 C 
ENDBRANCH  27  31
ENDBRANCH  21  23
ENDBRANCH   1  21
TORSDOF 5
ENDMDL
