MODEL 1
REMARK VINA RESULT:     -12.0      0.000      0.000
REMARK  Name = 11488320
REMARK  6 active torsions:
REMARK  status: ('A' for Active; 'I' for Inactive)
REMARK    1  A    between atoms: N_2  and  C_15
REMARK    2  A    between atoms: C_4  and  O_23
REMARK    3  A    between atoms: C_6  and  O_21
REMARK    4  A    between atoms: O_23  and  C_25
REMARK    5  A    between atoms: N_24  and  C_31
REMARK    6  A    between atoms: C_31  and  C_34
REMARK                            x       y       z     vdW  Elec       q    Type
REMARK                         _______ _______ _______ _____ _____    ______ ____
ROOT
ATOM      1  N   UNL     1      38.040 -23.201 -14.123  0.00  0.00    -0.248 NA
ATOM      2  N   UNL     1      35.188 -22.756 -17.088  0.00  0.00    -0.296 N 
ATOM      3  N   UNL     1      37.429 -22.639 -16.385  0.00  0.00    -0.230 NA
ATOM      4  C   UNL     1      34.068 -24.030 -13.204  0.00  0.00    +0.168 C 
ATOM      5  C   UNL     1      34.402 -23.615 -14.485  0.00  0.00    +0.044 C 
ATOM      6  C   UNL     1      35.052 -24.167 -12.238  0.00  0.00    +0.156 C 
ATOM      7  C   UNL     1      35.743 -23.334 -14.799  0.00  0.00    +0.048 C 
ATOM      8  C   UNL     1      36.384 -23.886 -12.558  0.00  0.00    +0.112 C 
ATOM      9  C   UNL     1      36.754 -23.467 -13.833  0.00  0.00    +0.066 C 
ATOM     10  C   UNL     1      36.152 -22.913 -16.062  0.00  0.00    +0.131 C 
ATOM     11  C   UNL     1      38.308 -22.802 -15.383  0.00  0.00    +0.252 C 
ATOM     12  H   UNL     1      34.416 -23.361 -17.004  0.00  0.00    +0.154 HD
ENDROOT
BRANCH   2  15
ATOM     13 CL   UNL     1      32.297 -20.313 -20.561  0.00  0.00    -0.080 Cl
ATOM     14  F   UNL     1      32.758 -22.071 -18.231  0.00  0.00    -0.202 F 
ATOM     15  C   UNL     1      35.119 -21.903 -18.201  0.00  0.00    +0.078 C 
ATOM     16  C   UNL     1      33.883 -21.570 -18.764  0.00  0.00    +0.164 C 
ATOM     17  C   UNL     1      36.291 -21.379 -18.756  0.00  0.00    +0.017 C 
ATOM     18  C   UNL     1      33.819 -20.724 -19.869  0.00  0.00    +0.086 C 
ATOM     19  C   UNL     1      36.227 -20.532 -19.862  0.00  0.00    +0.002 C 
ATOM     20  C   UNL     1      34.991 -20.204 -20.419  0.00  0.00    +0.014 C 
ENDBRANCH   2  15
BRANCH   6  21
ATOM     21  O   UNL     1      34.740 -24.573 -10.975  0.00  0.00    -0.472 OA
ATOM     22  C   UNL     1      35.750 -24.425  -9.979  0.00  0.00    +0.252 C 
ENDBRANCH   6  21
BRANCH   4  23
ATOM     23  O   UNL     1      32.759 -24.299 -12.905  0.00  0.00    -0.477 OA
BRANCH  23  25
ATOM     24  N   UNL     1      29.245 -23.862 -15.135  0.00  0.00    +0.393 N 
ATOM     25  C   UNL     1      31.871 -24.463 -14.002  0.00  0.00    +0.162 C 
ATOM     26  C   UNL     1      31.523 -23.089 -14.568  0.00  0.00    +0.021 C 
ATOM     27  C   UNL     1      30.604 -25.181 -13.547  0.00  0.00    +0.021 C 
ATOM     28  C   UNL     1      30.445 -23.188 -15.647  0.00  0.00    -0.073 C 
ATOM     29  C   UNL     1      29.556 -25.218 -14.657  0.00  0.00    -0.073 C 
ATOM     30  H   UNL     1      28.897 -23.322 -14.341  0.00  0.00    -0.079 HD
BRANCH  24  31
ATOM     31  C   UNL     1      28.205 -23.908 -16.163  0.00  0.00    +0.010 C 
BRANCH  31  34
ATOM     32  O   UNL     1      27.204 -22.048 -14.991  0.00  0.00    -0.277 OA
ATOM     33  N   UNL     1      26.787 -22.306 -17.261  0.00  0.00    -0.304 N 
ATOM     34  C   UNL     1      27.348 -22.664 -16.044  0.00  0.00    +0.201 C 
ATOM     35  C   UNL     1      25.948 -21.141 -17.435  0.00  0.00    +0.111 C 
ATOM     36  H   UNL     1      26.968 -22.873 -18.045  0.00  0.00    +0.149 HD
ENDBRANCH  31  34
ENDBRANCH  24  31
ENDBRANCH  23  25
ENDBRANCH   4  23
TORSDOF 6
ENDMDL
MODEL 2
REMARK VINA RESULT:     -10.6      4.123      7.676
REMARK  Name = 11488320
REMARK  6 active torsions:
REMARK  status: ('A' for Active; 'I' for Inactive)
REMARK    1  A    between atoms: N_2  and  C_15
REMARK    2  A    between atoms: C_4  and  O_23
REMARK    3  A    between atoms: C_6  and  O_21
REMARK    4  A    between atoms: O_23  and  C_25
REMARK    5  A    between atoms: N_24  and  C_31
REMARK    6  A    between atoms: C_31  and  C_34
REMARK                            x       y       z     vdW  Elec       q    Type
REMARK                         _______ _______ _______ _____ _____    ______ ____
ROOT
ATOM      1  N   UNL     1      31.779 -23.790 -12.744  0.00  0.00    -0.248 NA
ATOM      2  N   UNL     1      35.500 -24.639 -14.343  0.00  0.00    -0.296 N 
ATOM      3  N   UNL     1      34.042 -24.582 -12.499  0.00  0.00    -0.230 NA
ATOM      4  C   UNL     1      32.414 -23.079 -16.793  0.00  0.00    +0.168 C 
ATOM      5  C   UNL     1      33.445 -23.590 -16.018  0.00  0.00    +0.044 C 
ATOM      6  C   UNL     1      31.182 -22.807 -16.221  0.00  0.00    +0.156 C 
ATOM      7  C   UNL     1      33.234 -23.831 -14.649  0.00  0.00    +0.048 C 
ATOM      8  C   UNL     1      30.979 -23.050 -14.859  0.00  0.00    +0.112 C 
ATOM      9  C   UNL     1      31.992 -23.562 -14.052  0.00  0.00    +0.066 C 
ATOM     10  C   UNL     1      34.221 -24.343 -13.811  0.00  0.00    +0.131 C 
ATOM     11  C   UNL     1      32.815 -24.288 -12.038  0.00  0.00    +0.252 C 
ATOM     12  H   UNL     1      35.485 -24.902 -15.292  0.00  0.00    +0.154 HD
ENDROOT
BRANCH   2  15
ATOM     13 CL   UNL     1      40.305 -26.455 -14.367  0.00  0.00    -0.080 Cl
ATOM     14  F   UNL     1      37.520 -26.256 -15.335  0.00  0.00    -0.202 F 
ATOM     15  C   UNL     1      36.786 -24.629 -13.780  0.00  0.00    +0.078 C 
ATOM     16  C   UNL     1      37.791 -25.453 -14.294  0.00  0.00    +0.164 C 
ATOM     17  C   UNL     1      37.070 -23.792 -12.696  0.00  0.00    +0.017 C 
ATOM     18  C   UNL     1      39.066 -25.441 -13.732  0.00  0.00    +0.086 C 
ATOM     19  C   UNL     1      38.346 -23.779 -12.134  0.00  0.00    +0.002 C 
ATOM     20  C   UNL     1      39.345 -24.604 -12.651  0.00  0.00    +0.014 C 
ENDBRANCH   2  15
BRANCH   6  21
ATOM     21  O   UNL     1      30.159 -22.304 -16.968  0.00  0.00    -0.472 OA
ATOM     22  C   UNL     1      28.836 -22.675 -16.589  0.00  0.00    +0.252 C 
ENDBRANCH   6  21
BRANCH   4  23
ATOM     23  O   UNL     1      32.628 -22.844 -18.125  0.00  0.00    -0.477 OA
BRANCH  23  25
ATOM     24  N   UNL     1      35.022 -20.388 -20.523  0.00  0.00    +0.393 N 
ATOM     25  C   UNL     1      33.461 -21.741 -18.457  0.00  0.00    +0.162 C 
ATOM     26  C   UNL     1      32.806 -20.944 -19.581  0.00  0.00    +0.021 C 
ATOM     27  C   UNL     1      34.836 -22.237 -18.893  0.00  0.00    +0.021 C 
ATOM     28  C   UNL     1      33.730 -19.839 -20.091  0.00  0.00    -0.073 C 
ATOM     29  C   UNL     1      35.697 -21.092 -19.423  0.00  0.00    -0.073 C 
ATOM     30  H   UNL     1      34.843 -21.064 -21.266  0.00  0.00    -0.079 HD
BRANCH  24  31
ATOM     31  C   UNL     1      35.878 -19.326 -21.052  0.00  0.00    +0.010 C 
BRANCH  31  34
ATOM     32  O   UNL     1      34.948 -19.736 -23.243  0.00  0.00    -0.277 OA
ATOM     33  N   UNL     1      35.405 -17.550 -22.604  0.00  0.00    -0.304 N 
ATOM     34  C   UNL     1      35.367 -18.925 -22.420  0.00  0.00    +0.201 C 
ATOM     35  C   UNL     1      34.948 -16.899 -23.811  0.00  0.00    +0.111 C 
ATOM     36  H   UNL     1      35.762 -16.991 -21.877  0.00  0.00    +0.149 HD
ENDBRANCH  31  34
ENDBRANCH  24  31
ENDBRANCH  23  25
ENDBRANCH   4  23
TORSDOF 6
ENDMDL
MODEL 3
REMARK VINA RESULT:     -10.2      8.026     11.659
REMARK  Name = 11488320
REMARK  6 active torsions:
REMARK  status: ('A' for Active; 'I' for Inactive)
REMARK    1  A    between atoms: N_2  and  C_15
REMARK    2  A    between atoms: C_4  and  O_23
REMARK    3  A    between atoms: C_6  and  O_21
REMARK    4  A    between atoms: O_23  and  C_25
REMARK    5  A    between atoms: N_24  and  C_31
REMARK    6  A    between atoms: C_31  and  C_34
REMARK                            x       y       z     vdW  Elec       q    Type
REMARK                         _______ _______ _______ _____ _____    ______ ____
ROOT
ATOM      1  N   UNL     1      34.287 -18.923 -24.978  0.00  0.00    -0.248 NA
ATOM      2  N   UNL     1      35.671 -19.083 -21.081  0.00  0.00    -0.296 N 
ATOM      3  N   UNL     1      35.104 -20.173 -23.086  0.00  0.00    -0.230 NA
ATOM      4  C   UNL     1      34.600 -15.374 -22.830  0.00  0.00    +0.168 C 
ATOM      5  C   UNL     1      34.959 -16.572 -22.229  0.00  0.00    +0.044 C 
ATOM      6  C   UNL     1      34.141 -15.361 -24.137  0.00  0.00    +0.156 C 
ATOM      7  C   UNL     1      34.854 -17.773 -22.951  0.00  0.00    +0.048 C 
ATOM      8  C   UNL     1      34.040 -16.560 -24.850  0.00  0.00    +0.112 C 
ATOM      9  C   UNL     1      34.391 -17.780 -24.277  0.00  0.00    +0.066 C 
ATOM     10  C   UNL     1      35.196 -19.011 -22.414  0.00  0.00    +0.131 C 
ATOM     11  C   UNL     1      34.650 -20.057 -24.345  0.00  0.00    +0.252 C 
ATOM     12  H   UNL     1      36.153 -18.276 -20.787  0.00  0.00    +0.154 HD
ENDROOT
BRANCH   2  15
ATOM     13 CL   UNL     1      32.734 -22.214 -18.260  0.00  0.00    -0.080 Cl
ATOM     14  F   UNL     1      33.228 -20.123 -20.290  0.00  0.00    -0.202 F 
ATOM     15  C   UNL     1      35.587 -20.081 -20.097  0.00  0.00    +0.078 C 
ATOM     16  C   UNL     1      34.344 -20.592 -19.712  0.00  0.00    +0.164 C 
ATOM     17  C   UNL     1      36.750 -20.572 -19.496  0.00  0.00    +0.017 C 
ATOM     18  C   UNL     1      34.264 -21.583 -18.735  0.00  0.00    +0.086 C 
ATOM     19  C   UNL     1      36.670 -21.564 -18.518  0.00  0.00    +0.002 C 
ATOM     20  C   UNL     1      35.427 -22.069 -18.137  0.00  0.00    +0.014 C 
ENDBRANCH   2  15
BRANCH   6  21
ATOM     21  O   UNL     1      33.785 -14.193 -24.742  0.00  0.00    -0.472 OA
ATOM     22  C   UNL     1      32.888 -14.283 -25.847  0.00  0.00    +0.252 C 
ENDBRANCH   6  21
BRANCH   4  23
ATOM     23  O   UNL     1      34.703 -14.208 -22.119  0.00  0.00    -0.477 OA
BRANCH  23  25
ATOM     24  N   UNL     1      32.219 -11.254 -20.500  0.00  0.00    +0.393 N 
ATOM     25  C   UNL     1      33.486 -13.560 -21.771  0.00  0.00    +0.162 C 
ATOM     26  C   UNL     1      33.451 -12.184 -22.430  0.00  0.00    +0.021 C 
ATOM     27  C   UNL     1      33.382 -13.421 -20.255  0.00  0.00    +0.021 C 
ATOM     28  C   UNL     1      32.241 -11.375 -21.963  0.00  0.00    -0.073 C 
ATOM     29  C   UNL     1      32.175 -12.576 -19.856  0.00  0.00    -0.073 C 
ATOM     30  H   UNL     1      33.081 -10.793 -20.209  0.00  0.00    -0.079 HD
BRANCH  24  31
ATOM     31  C   UNL     1      31.083 -10.438 -20.070  0.00  0.00    +0.010 C 
BRANCH  31  34
ATOM     32  O   UNL     1      31.826  -8.868 -18.392  0.00  0.00    -0.277 OA
ATOM     33  N   UNL     1      31.813  -8.214 -20.621  0.00  0.00    -0.304 N 
ATOM     34  C   UNL     1      31.602  -9.104 -19.577  0.00  0.00    +0.201 C 
ATOM     35  C   UNL     1      32.333  -6.878 -20.431  0.00  0.00    +0.111 C 
ATOM     36  H   UNL     1      31.598  -8.506 -21.536  0.00  0.00    +0.149 HD
ENDBRANCH  31  34
ENDBRANCH  24  31
ENDBRANCH  23  25
ENDBRANCH   4  23
TORSDOF 6
ENDMDL
MODEL 4
REMARK VINA RESULT:      -9.7     14.032     17.571
REMARK  Name = 11488320
REMARK  6 active torsions:
REMARK  status: ('A' for Active; 'I' for Inactive)
REMARK    1  A    between atoms: N_2  and  C_15
REMARK    2  A    between atoms: C_4  and  O_23
REMARK    3  A    between atoms: C_6  and  O_21
REMARK    4  A    between atoms: O_23  and  C_25
REMARK    5  A    between atoms: N_24  and  C_31
REMARK    6  A    between atoms: C_31  and  C_34
REMARK                            x       y       z     vdW  Elec       q    Type
REMARK                         _______ _______ _______ _____ _____    ______ ____
ROOT
ATOM      1  N   UNL     1      30.927 -10.294 -20.293  0.00  0.00    -0.248 NA
ATOM      2  N   UNL     1      32.986 -11.894 -23.507  0.00  0.00    -0.296 N 
ATOM      3  N   UNL     1      31.412 -12.131 -21.776  0.00  0.00    -0.230 NA
ATOM      4  C   UNL     1      33.657  -7.886 -22.305  0.00  0.00    +0.168 C 
ATOM      5  C   UNL     1      33.460  -9.193 -22.724  0.00  0.00    +0.044 C 
ATOM      6  C   UNL     1      32.949  -7.386 -21.224  0.00  0.00    +0.156 C 
ATOM      7  C   UNL     1      32.539 -10.011 -22.046  0.00  0.00    +0.048 C 
ATOM      8  C   UNL     1      32.033  -8.205 -20.555  0.00  0.00    +0.112 C 
ATOM      9  C   UNL     1      31.812  -9.522 -20.948  0.00  0.00    +0.066 C 
ATOM     10  C   UNL     1      32.289 -11.331 -22.409  0.00  0.00    +0.131 C 
ATOM     11  C   UNL     1      30.775 -11.557 -20.743  0.00  0.00    +0.252 C 
ATOM     12  H   UNL     1      33.232 -11.238 -24.199  0.00  0.00    +0.154 HD
ENDROOT
BRANCH   2  15
ATOM     13 CL   UNL     1      35.457 -16.144 -22.021  0.00  0.00    -0.080 Cl
ATOM     14  F   UNL     1      34.461 -13.381 -21.693  0.00  0.00    -0.202 F 
ATOM     15  C   UNL     1      33.394 -13.205 -23.800  0.00  0.00    +0.078 C 
ATOM     16  C   UNL     1      34.138 -13.938 -22.871  0.00  0.00    +0.164 C 
ATOM     17  C   UNL     1      33.057 -13.787 -25.026  0.00  0.00    +0.017 C 
ATOM     18  C   UNL     1      34.542 -15.239 -23.164  0.00  0.00    +0.086 C 
ATOM     19  C   UNL     1      33.460 -15.089 -25.320  0.00  0.00    +0.002 C 
ATOM     20  C   UNL     1      34.203 -15.816 -24.389  0.00  0.00    +0.014 C 
ENDBRANCH   2  15
BRANCH   6  21
ATOM     21  O   UNL     1      33.132  -6.104 -20.801  0.00  0.00    -0.472 OA
ATOM     22  C   UNL     1      32.095  -5.171 -21.096  0.00  0.00    +0.252 C 
ENDBRANCH   6  21
BRANCH   4  23
ATOM     23  O   UNL     1      34.559  -7.096 -22.969  0.00  0.00    -0.477 OA
BRANCH  23  25
ATOM     24  N   UNL     1      33.846  -4.812 -26.402  0.00  0.00    +0.393 N 
ATOM     25  C   UNL     1      34.294  -6.833 -24.340  0.00  0.00    +0.162 C 
ATOM     26  C   UNL     1      35.429  -5.989 -24.912  0.00  0.00    +0.021 C 
ATOM     27  C   UNL     1      32.965  -6.098 -24.484  0.00  0.00    +0.021 C 
ATOM     28  C   UNL     1      35.122  -5.538 -26.340  0.00  0.00    -0.073 C 
ATOM     29  C   UNL     1      32.733  -5.646 -25.925  0.00  0.00    -0.073 C 
ATOM     30  H   UNL     1      33.916  -4.001 -25.787  0.00  0.00    -0.079 HD
BRANCH  24  31
ATOM     31  C   UNL     1      33.588  -4.346 -27.765  0.00  0.00    +0.010 C 
BRANCH  31  34
ATOM     32  O   UNL     1      32.671  -2.257 -26.973  0.00  0.00    -0.277 OA
ATOM     33  N   UNL     1      31.527  -3.440 -28.611  0.00  0.00    -0.304 N 
ATOM     34  C   UNL     1      32.564  -3.232 -27.712  0.00  0.00    +0.201 C 
ATOM     35  C   UNL     1      30.431  -2.514 -28.786  0.00  0.00    +0.111 C 
ATOM     36  H   UNL     1      31.539  -4.259 -29.158  0.00  0.00    +0.149 HD
ENDBRANCH  31  34
ENDBRANCH  24  31
ENDBRANCH  23  25
ENDBRANCH   4  23
TORSDOF 6
ENDMDL
MODEL 5
REMARK VINA RESULT:      -9.6      3.379      6.744
REMARK  Name = 11488320
REMARK  6 active torsions:
REMARK  status: ('A' for Active; 'I' for Inactive)
REMARK    1  A    between atoms: N_2  and  C_15
REMARK    2  A    between atoms: C_4  and  O_23
REMARK    3  A    between atoms: C_6  and  O_21
REMARK    4  A    between atoms: O_23  and  C_25
REMARK    5  A    between atoms: N_24  and  C_31
REMARK    6  A    between atoms: C_31  and  C_34
REMARK                            x       y       z     vdW  Elec       q    Type
REMARK                         _______ _______ _______ _____ _____    ______ ____
ROOT
ATOM      1  N   UNL     1      35.767 -24.583 -11.904  0.00  0.00    -0.248 NA
ATOM      2  N   UNL     1      32.728 -23.466 -14.482  0.00  0.00    -0.296 N 
ATOM      3  N   UNL     1      33.425 -24.292 -12.393  0.00  0.00    -0.230 NA
ATOM      4  C   UNL     1      36.780 -23.189 -15.690  0.00  0.00    +0.168 C 
ATOM      5  C   UNL     1      35.445 -23.267 -15.325  0.00  0.00    +0.044 C 
ATOM      6  C   UNL     1      37.770 -23.573 -14.799  0.00  0.00    +0.156 C 
ATOM      7  C   UNL     1      35.098 -23.739 -14.046  0.00  0.00    +0.048 C 
ATOM      8  C   UNL     1      37.418 -24.040 -13.529  0.00  0.00    +0.112 C 
ATOM      9  C   UNL     1      36.087 -24.132 -13.130  0.00  0.00    +0.066 C 
ATOM     10  C   UNL     1      33.780 -23.844 -13.611  0.00  0.00    +0.131 C 
ATOM     11  C   UNL     1      34.454 -24.638 -11.602  0.00  0.00    +0.252 C 
ATOM     12  H   UNL     1      32.974 -22.754 -15.116  0.00  0.00    +0.154 HD
ENDROOT
BRANCH   2  15
ATOM     13 CL   UNL     1      28.201 -23.077 -16.877  0.00  0.00    -0.080 Cl
ATOM     14  F   UNL     1      31.021 -22.360 -16.364  0.00  0.00    -0.202 F 
ATOM     15  C   UNL     1      31.403 -23.909 -14.615  0.00  0.00    +0.078 C 
ATOM     16  C   UNL     1      30.557 -23.338 -15.570  0.00  0.00    +0.164 C 
ATOM     17  C   UNL     1      30.918 -24.929 -13.789  0.00  0.00    +0.017 C 
ATOM     18  C   UNL     1      29.242 -23.779 -15.699  0.00  0.00    +0.086 C 
ATOM     19  C   UNL     1      29.602 -25.372 -13.918  0.00  0.00    +0.002 C 
ATOM     20  C   UNL     1      28.763 -24.797 -14.873  0.00  0.00    +0.014 C 
ENDBRANCH   2  15
BRANCH   6  21
ATOM     21  O   UNL     1      39.086 -23.502 -15.143  0.00  0.00    -0.472 OA
ATOM     22  C   UNL     1      39.882 -24.661 -14.904  0.00  0.00    +0.252 C 
ENDBRANCH   6  21
BRANCH   4  23
ATOM     23  O   UNL     1      37.110 -22.732 -16.939  0.00  0.00    -0.477 OA
BRANCH  23  25
ATOM     24  N   UNL     1      34.743 -21.028 -19.940  0.00  0.00    +0.393 N 
ATOM     25  C   UNL     1      36.216 -21.804 -17.539  0.00  0.00    +0.162 C 
ATOM     26  C   UNL     1      34.968 -22.547 -18.004  0.00  0.00    +0.021 C 
ATOM     27  C   UNL     1      36.892 -21.117 -18.722  0.00  0.00    +0.021 C 
ATOM     28  C   UNL     1      34.039 -21.631 -18.801  0.00  0.00    -0.073 C 
ATOM     29  C   UNL     1      35.905 -20.244 -19.495  0.00  0.00    -0.073 C 
ATOM     30  H   UNL     1      35.084 -21.784 -20.535  0.00  0.00    -0.079 HD
BRANCH  24  31
ATOM     31  C   UNL     1      33.831 -20.191 -20.721  0.00  0.00    +0.010 C 
BRANCH  31  34
ATOM     32  O   UNL     1      35.023 -19.720 -22.769  0.00  0.00    -0.277 OA
ATOM     33  N   UNL     1      34.882 -18.069 -21.141  0.00  0.00    -0.304 N 
ATOM     34  C   UNL     1      34.647 -19.332 -21.665  0.00  0.00    +0.201 C 
ATOM     35  C   UNL     1      35.611 -17.041 -21.848  0.00  0.00    +0.111 C 
ATOM     36  H   UNL     1      34.534 -17.863 -20.244  0.00  0.00    +0.149 HD
ENDBRANCH  31  34
ENDBRANCH  24  31
ENDBRANCH  23  25
ENDBRANCH   4  23
TORSDOF 6
ENDMDL
MODEL 6
REMARK VINA RESULT:      -9.6     13.130     16.328
REMARK  Name = 11488320
REMARK  6 active torsions:
REMARK  status: ('A' for Active; 'I' for Inactive)
REMARK    1  A    between atoms: N_2  and  C_15
REMARK    2  A    between atoms: C_4  and  O_23
REMARK    3  A    between atoms: C_6  and  O_21
REMARK    4  A    between atoms: O_23  and  C_25
REMARK    5  A    between atoms: N_24  and  C_31
REMARK    6  A    between atoms: C_31  and  C_34
REMARK                            x       y       z     vdW  Elec       q    Type
REMARK                         _______ _______ _______ _____ _____    ______ ____
ROOT
ATOM      1  N   UNL     1      32.237  -6.145 -20.251  0.00  0.00    -0.248 NA
ATOM      2  N   UNL     1      33.171  -6.691 -24.246  0.00  0.00    -0.296 N 
ATOM      3  N   UNL     1      32.973  -5.278 -22.375  0.00  0.00    -0.230 NA
ATOM      4  C   UNL     1      31.875  -9.957 -21.877  0.00  0.00    +0.168 C 
ATOM      5  C   UNL     1      32.302  -8.909 -22.679  0.00  0.00    +0.044 C 
ATOM      6  C   UNL     1      31.571  -9.735 -20.543  0.00  0.00    +0.156 C 
ATOM      7  C   UNL     1      32.425  -7.619 -22.133  0.00  0.00    +0.048 C 
ATOM      8  C   UNL     1      31.697  -8.449 -20.007  0.00  0.00    +0.112 C 
ATOM      9  C   UNL     1      32.122  -7.375 -20.784  0.00  0.00    +0.066 C 
ATOM     10  C   UNL     1      32.848  -6.521 -22.877  0.00  0.00    +0.131 C 
ATOM     11  C   UNL     1      32.657  -5.164 -21.075  0.00  0.00    +0.252 C 
ATOM     12  H   UNL     1      33.517  -7.587 -24.463  0.00  0.00    +0.154 HD
ENDROOT
BRANCH   2  15
ATOM     13 CL   UNL     1      35.404  -4.742 -28.441  0.00  0.00    -0.080 Cl
ATOM     14  F   UNL     1      35.271  -6.458 -26.039  0.00  0.00    -0.202 F 
ATOM     15  C   UNL     1      33.094  -5.830 -25.351  0.00  0.00    +0.078 C 
ATOM     16  C   UNL     1      34.165  -5.726 -26.244  0.00  0.00    +0.164 C 
ATOM     17  C   UNL     1      31.942  -5.068 -25.567  0.00  0.00    +0.017 C 
ATOM     18  C   UNL     1      34.086  -4.869 -27.340  0.00  0.00    +0.086 C 
ATOM     19  C   UNL     1      31.862  -4.211 -26.665  0.00  0.00    +0.002 C 
ATOM     20  C   UNL     1      32.934  -4.111 -27.552  0.00  0.00    +0.014 C 
ENDBRANCH   2  15
BRANCH   6  21
ATOM     21  O   UNL     1      31.150 -10.754 -19.743  0.00  0.00    -0.472 OA
ATOM     22  C   UNL     1      31.667 -10.790 -18.414  0.00  0.00    +0.252 C 
ENDBRANCH   6  21
BRANCH   4  23
ATOM     23  O   UNL     1      31.755 -11.211 -22.416  0.00  0.00    -0.477 OA
BRANCH  23  25
ATOM     24  N   UNL     1      34.068 -14.657 -22.954  0.00  0.00    +0.393 N 
ATOM     25  C   UNL     1      32.920 -12.024 -22.415  0.00  0.00    +0.162 C 
ATOM     26  C   UNL     1      33.178 -12.525 -23.833  0.00  0.00    +0.021 C 
ATOM     27  C   UNL     1      32.734 -13.203 -21.464  0.00  0.00    +0.021 C 
ATOM     28  C   UNL     1      34.325 -13.535 -23.866  0.00  0.00    -0.073 C 
ATOM     29  C   UNL     1      33.895 -14.190 -21.570  0.00  0.00    -0.073 C 
ATOM     30  H   UNL     1      33.199 -15.105 -23.244  0.00  0.00    -0.079 HD
BRANCH  24  31
ATOM     31  C   UNL     1      35.150 -15.638 -23.031  0.00  0.00    +0.010 C 
BRANCH  31  34
ATOM     32  O   UNL     1      34.388 -16.615 -25.105  0.00  0.00    -0.277 OA
ATOM     33  N   UNL     1      34.754 -17.998 -23.276  0.00  0.00    -0.304 N 
ATOM     34  C   UNL     1      34.712 -16.775 -23.931  0.00  0.00    +0.201 C 
ATOM     35  C   UNL     1      34.414 -19.251 -23.912  0.00  0.00    +0.111 C 
ATOM     36  H   UNL     1      35.029 -18.013 -22.331  0.00  0.00    +0.149 HD
ENDBRANCH  31  34
ENDBRANCH  24  31
ENDBRANCH  23  25
ENDBRANCH   4  23
TORSDOF 6
ENDMDL
MODEL 7
REMARK VINA RESULT:      -9.5     12.216     15.529
REMARK  Name = 11488320
REMARK  6 active torsions:
REMARK  status: ('A' for Active; 'I' for Inactive)
REMARK    1  A    between atoms: N_2  and  C_15
REMARK    2  A    between atoms: C_4  and  O_23
REMARK    3  A    between atoms: C_6  and  O_21
REMARK    4  A    between atoms: O_23  and  C_25
REMARK    5  A    between atoms: N_24  and  C_31
REMARK    6  A    between atoms: C_31  and  C_34
REMARK                            x       y       z     vdW  Elec       q    Type
REMARK                         _______ _______ _______ _____ _____    ______ ____
ROOT
ATOM      1  N   UNL     1      32.566  -7.840 -19.608  0.00  0.00    -0.248 NA
ATOM      2  N   UNL     1      33.690  -7.449 -23.572  0.00  0.00    -0.296 N 
ATOM      3  N   UNL     1      33.485  -6.536 -21.414  0.00  0.00    -0.230 NA
ATOM      4  C   UNL     1      32.026 -11.082 -22.158  0.00  0.00    +0.168 C 
ATOM      5  C   UNL     1      32.574  -9.907 -22.652  0.00  0.00    +0.044 C 
ATOM      6  C   UNL     1      31.662 -11.174 -20.825  0.00  0.00    +0.156 C 
ATOM      7  C   UNL     1      32.757  -8.809 -21.793  0.00  0.00    +0.048 C 
ATOM      8  C   UNL     1      31.848 -10.078 -19.976  0.00  0.00    +0.112 C 
ATOM      9  C   UNL     1      32.395  -8.883 -20.439  0.00  0.00    +0.066 C 
ATOM     10  C   UNL     1      33.300  -7.599 -22.218  0.00  0.00    +0.131 C 
ATOM     11  C   UNL     1      33.103  -6.723 -20.141  0.00  0.00    +0.252 C 
ATOM     12  H   UNL     1      33.982  -8.288 -23.996  0.00  0.00    +0.154 HD
ENDROOT
BRANCH   2  15
ATOM     13 CL   UNL     1      31.211  -3.586 -25.877  0.00  0.00    -0.080 Cl
ATOM     14  F   UNL     1      31.420  -5.962 -24.132  0.00  0.00    -0.202 F 
ATOM     15  C   UNL     1      33.740  -6.336 -24.426  0.00  0.00    +0.078 C 
ATOM     16  C   UNL     1      32.583  -5.599 -24.696  0.00  0.00    +0.164 C 
ATOM     17  C   UNL     1      34.950  -5.957 -25.014  0.00  0.00    +0.017 C 
ATOM     18  C   UNL     1      32.635  -4.495 -25.545  0.00  0.00    +0.086 C 
ATOM     19  C   UNL     1      35.003  -4.852 -25.863  0.00  0.00    +0.002 C 
ATOM     20  C   UNL     1      33.845  -4.121 -26.129  0.00  0.00    +0.014 C 
ENDBRANCH   2  15
BRANCH   6  21
ATOM     21  O   UNL     1      31.123 -12.321 -20.324  0.00  0.00    -0.472 OA
ATOM     22  C   UNL     1      32.003 -13.199 -19.625  0.00  0.00    +0.252 C 
ENDBRANCH   6  21
BRANCH   4  23
ATOM     23  O   UNL     1      31.848 -12.147 -23.001  0.00  0.00    -0.477 OA
BRANCH  23  25
ATOM     24  N   UNL     1      34.232 -15.518 -23.684  0.00  0.00    +0.393 N 
ATOM     25  C   UNL     1      33.010 -12.884 -23.359  0.00  0.00    +0.162 C 
ATOM     26  C   UNL     1      32.677 -13.795 -24.536  0.00  0.00    +0.021 C 
ATOM     27  C   UNL     1      33.490 -13.711 -22.170  0.00  0.00    +0.021 C 
ATOM     28  C   UNL     1      33.841 -14.731 -24.861  0.00  0.00    -0.073 C 
ATOM     29  C   UNL     1      34.629 -14.647 -22.568  0.00  0.00    -0.073 C 
ATOM     30  H   UNL     1      33.421 -16.060 -23.386  0.00  0.00    -0.079 HD
BRANCH  24  31
ATOM     31  C   UNL     1      35.315 -16.442 -24.023  0.00  0.00    +0.010 C 
BRANCH  31  34
ATOM     32  O   UNL     1      34.363 -18.586 -23.449  0.00  0.00    -0.277 OA
ATOM     33  N   UNL     1      36.056 -17.713 -22.120  0.00  0.00    -0.304 N 
ATOM     34  C   UNL     1      35.166 -17.694 -23.184  0.00  0.00    +0.201 C 
ATOM     35  C   UNL     1      36.144 -18.807 -21.180  0.00  0.00    +0.111 C 
ATOM     36  H   UNL     1      36.657 -16.943 -22.000  0.00  0.00    +0.149 HD
ENDBRANCH  31  34
ENDBRANCH  24  31
ENDBRANCH  23  25
ENDBRANCH   4  23
TORSDOF 6
ENDMDL
MODEL 8
REMARK VINA RESULT:      -9.3     13.522     17.336
REMARK  Name = 11488320
REMARK  6 active torsions:
REMARK  status: ('A' for Active; 'I' for Inactive)
REMARK    1  A    between atoms: N_2  and  C_15
REMARK    2  A    between atoms: C_4  and  O_23
REMARK    3  A    between atoms: C_6  and  O_21
REMARK    4  A    between atoms: O_23  and  C_25
REMARK    5  A    between atoms: N_24  and  C_31
REMARK    6  A    between atoms: C_31  and  C_34
REMARK                            x       y       z     vdW  Elec       q    Type
REMARK                         _______ _______ _______ _____ _____    ______ ____
ROOT
ATOM      1  N   UNL     1      31.682  -9.492 -18.841  0.00  0.00    -0.248 NA
ATOM      2  N   UNL     1      32.577 -12.246 -21.799  0.00  0.00    -0.296 N 
ATOM      3  N   UNL     1      32.211 -11.740 -19.531  0.00  0.00    -0.230 NA
ATOM      4  C   UNL     1      31.883  -8.183 -22.785  0.00  0.00    +0.168 C 
ATOM      5  C   UNL     1      32.115  -9.520 -22.495  0.00  0.00    +0.044 C 
ATOM      6  C   UNL     1      31.586  -7.291 -21.767  0.00  0.00    +0.156 C 
ATOM      7  C   UNL     1      32.049  -9.966 -21.163  0.00  0.00    +0.048 C 
ATOM      8  C   UNL     1      31.521  -7.742 -20.445  0.00  0.00    +0.112 C 
ATOM      9  C   UNL     1      31.749  -9.077 -20.118  0.00  0.00    +0.066 C 
ATOM     10  C   UNL     1      32.269 -11.291 -20.798  0.00  0.00    +0.131 C 
ATOM     11  C   UNL     1      31.916 -10.802 -18.617  0.00  0.00    +0.252 C 
ATOM     12  H   UNL     1      32.178 -12.044 -22.676  0.00  0.00    +0.154 HD
ENDROOT
BRANCH   2  15
ATOM     13 CL   UNL     1      34.829 -16.042 -24.425  0.00  0.00    -0.080 Cl
ATOM     14  F   UNL     1      33.248 -13.562 -24.143  0.00  0.00    -0.202 F 
ATOM     15  C   UNL     1      33.340 -13.424 -21.781  0.00  0.00    +0.078 C 
ATOM     16  C   UNL     1      33.667 -14.073 -22.975  0.00  0.00    +0.164 C 
ATOM     17  C   UNL     1      33.779 -13.957 -20.565  0.00  0.00    +0.017 C 
ATOM     18  C   UNL     1      34.424 -15.243 -22.955  0.00  0.00    +0.086 C 
ATOM     19  C   UNL     1      34.538 -15.127 -20.544  0.00  0.00    +0.002 C 
ATOM     20  C   UNL     1      34.860 -15.771 -21.739  0.00  0.00    +0.014 C 
ENDBRANCH   2  15
BRANCH   6  21
ATOM     21  O   UNL     1      31.356  -5.975 -22.035  0.00  0.00    -0.472 OA
ATOM     22  C   UNL     1      32.054  -5.020 -21.240  0.00  0.00    +0.252 C 
ENDBRANCH   6  21
BRANCH   4  23
ATOM     23  O   UNL     1      31.952  -7.755 -24.084  0.00  0.00    -0.477 OA
BRANCH  23  25
ATOM     24  N   UNL     1      35.093  -5.752 -25.991  0.00  0.00    +0.393 N 
ATOM     25  C   UNL     1      32.857  -6.696 -24.363  0.00  0.00    +0.162 C 
ATOM     26  C   UNL     1      32.680  -6.261 -25.815  0.00  0.00    +0.021 C 
ATOM     27  C   UNL     1      34.292  -7.156 -24.122  0.00  0.00    +0.021 C 
ATOM     28  C   UNL     1      33.738  -5.234 -26.221  0.00  0.00    -0.073 C 
ATOM     29  C   UNL     1      35.298  -6.102 -24.578  0.00  0.00    -0.073 C 
ATOM     30  H   UNL     1      35.201  -6.603 -26.544  0.00  0.00    -0.079 HD
BRANCH  24  31
ATOM     31  C   UNL     1      36.094  -4.778 -26.428  0.00  0.00    +0.010 C 
BRANCH  31  34
ATOM     32  O   UNL     1      36.945  -4.285 -28.634  0.00  0.00    -0.277 OA
ATOM     33  N   UNL     1      36.408  -6.480 -28.098  0.00  0.00    -0.304 N 
ATOM     34  C   UNL     1      36.523  -5.122 -27.839  0.00  0.00    +0.201 C 
ATOM     35  C   UNL     1      36.779  -7.081 -29.360  0.00  0.00    +0.111 C 
ATOM     36  H   UNL     1      36.057  -7.064 -27.388  0.00  0.00    +0.149 HD
ENDBRANCH  31  34
ENDBRANCH  24  31
ENDBRANCH  23  25
ENDBRANCH   4  23
TORSDOF 6
ENDMDL
