MODEL 1
REMARK VINA RESULT:     -11.5      0.000      0.000
REMARK  Name = 5288679
REMARK  6 active torsions:
REMARK  status: ('A' for Active; 'I' for Inactive)
REMARK    1  A    between atoms: N_3  and  C_24
REMARK    2  A    between atoms: C_4  and  C_8
REMARK    3  A    between atoms: C_5  and  N_14
REMARK    4  A    between atoms: N_14  and  C_16
REMARK    5  A    between atoms: C_21  and  O_22
REMARK    6  A    between atoms: C_24  and  C_25
REMARK                            x       y       z     vdW  Elec       q    Type
REMARK                         _______ _______ _______ _____ _____    ______ ____
ROOT
ATOM      1  O   UNL     1      33.034 -23.602 -12.928  0.00  0.00    -0.269 OA
ATOM      2  O   UNL     1      36.056 -23.100 -16.353  0.00  0.00    -0.268 OA
ATOM      3  N   UNL     1      34.862 -23.361 -14.361  0.00  0.00    -0.217 N 
ATOM      4  C   UNL     1      32.792 -23.515 -15.313  0.00  0.00    +0.072 C 
ATOM      5  C   UNL     1      33.677 -23.370 -16.311  0.00  0.00    +0.107 C 
ATOM      6  C   UNL     1      33.543 -23.508 -14.033  0.00  0.00    +0.257 C 
ATOM      7  C   UNL     1      35.029 -23.257 -15.714  0.00  0.00    +0.269 C 
ENDROOT
BRANCH   4   8
ATOM      8  C   UNL     1      31.342 -23.679 -15.428  0.00  0.00    +0.006 C 
ATOM      9  C   UNL     1      30.564 -22.679 -16.023  0.00  0.00    +0.000 C 
ATOM     10  C   UNL     1      30.719 -24.834 -14.943  0.00  0.00    +0.000 C 
ATOM     11  C   UNL     1      29.182 -22.834 -16.133  0.00  0.00    +0.000 C 
ATOM     12  C   UNL     1      29.337 -24.988 -15.052  0.00  0.00    +0.000 C 
ATOM     13  C   UNL     1      28.568 -23.989 -15.648  0.00  0.00    +0.000 C 
ENDBRANCH   4   8
BRANCH   5  14
ATOM     14  N   UNL     1      33.534 -23.333 -17.657  0.00  0.00    -0.309 N 
ATOM     15  H   UNL     1      33.211 -24.165 -18.074  0.00  0.00    +0.152 HD
BRANCH  14  16
ATOM     16  C   UNL     1      33.787 -22.267 -18.539  0.00  0.00    +0.049 C 
ATOM     17  C   UNL     1      35.076 -22.056 -19.033  0.00  0.00    +0.018 C 
ATOM     18  C   UNL     1      32.750 -21.415 -18.925  0.00  0.00    +0.018 C 
ATOM     19  C   UNL     1      35.327 -21.000 -19.908  0.00  0.00    +0.038 C 
ATOM     20  C   UNL     1      33.001 -20.358 -19.800  0.00  0.00    +0.038 C 
ATOM     21  C   UNL     1      34.290 -20.150 -20.291  0.00  0.00    +0.139 C 
BRANCH  21  22
ATOM     22  O   UNL     1      34.534 -19.118 -21.144  0.00  0.00    -0.471 OA
ATOM     23  C   UNL     1      34.872 -19.454 -22.488  0.00  0.00    +0.252 C 
ENDBRANCH  21  22
ENDBRANCH  14  16
ENDBRANCH   5  14
BRANCH   3  24
ATOM     24  C   UNL     1      35.942 -23.295 -13.394  0.00  0.00    +0.128 C 
BRANCH  24  25
ATOM     25  C   UNL     1      36.886 -24.425 -13.623  0.00  0.00    -0.002 C 
ATOM     26  C   UNL     1      36.459 -25.741 -13.441  0.00  0.00    -0.003 C 
ATOM     27  C   UNL     1      38.200 -24.169 -14.019  0.00  0.00    -0.003 C 
ATOM     28  C   UNL     1      37.342 -26.799 -13.654  0.00  0.00    -0.000 C 
ATOM     29  C   UNL     1      39.084 -25.226 -14.232  0.00  0.00    -0.000 C 
ATOM     30  C   UNL     1      38.655 -26.541 -14.051  0.00  0.00    -0.000 C 
ENDBRANCH  24  25
ENDBRANCH   3  24
TORSDOF 6
ENDMDL
MODEL 2
REMARK VINA RESULT:     -10.8     11.842     16.383
REMARK  Name = 5288679
REMARK  6 active torsions:
REMARK  status: ('A' for Active; 'I' for Inactive)
REMARK    1  A    between atoms: N_3  and  C_24
REMARK    2  A    between atoms: C_4  and  C_8
REMARK    3  A    between atoms: C_5  and  N_14
REMARK    4  A    between atoms: N_14  and  C_16
REMARK    5  A    between atoms: C_21  and  O_22
REMARK    6  A    between atoms: C_24  and  C_25
REMARK                            x       y       z     vdW  Elec       q    Type
REMARK                         _______ _______ _______ _____ _____    ______ ____
ROOT
ATOM      1  O   UNL     1      33.468 -11.010 -24.294  0.00  0.00    -0.269 OA
ATOM      2  O   UNL     1      30.601 -10.767 -20.711  0.00  0.00    -0.268 OA
ATOM      3  N   UNL     1      31.976 -11.307 -22.522  0.00  0.00    -0.217 N 
ATOM      4  C   UNL     1      32.799  -9.204 -22.863  0.00  0.00    +0.072 C 
ATOM      5  C   UNL     1      31.962  -9.137 -21.816  0.00  0.00    +0.107 C 
ATOM      6  C   UNL     1      32.820 -10.609 -23.341  0.00  0.00    +0.257 C 
ATOM      7  C   UNL     1      31.408 -10.491 -21.584  0.00  0.00    +0.269 C 
ENDROOT
BRANCH   4   8
ATOM      8  C   UNL     1      33.586  -8.115 -23.443  0.00  0.00    +0.006 C 
ATOM      9  C   UNL     1      34.847  -7.800 -22.923  0.00  0.00    +0.000 C 
ATOM     10  C   UNL     1      33.086  -7.376 -24.522  0.00  0.00    +0.000 C 
ATOM     11  C   UNL     1      35.598  -6.762 -23.475  0.00  0.00    +0.000 C 
ATOM     12  C   UNL     1      33.837  -6.338 -25.073  0.00  0.00    +0.000 C 
ATOM     13  C   UNL     1      35.093  -6.031 -24.551  0.00  0.00    +0.000 C 
ENDBRANCH   4   8
BRANCH   5  14
ATOM     14  N   UNL     1      31.598  -8.115 -21.006  0.00  0.00    -0.309 N 
ATOM     15  H   UNL     1      31.342  -8.368 -20.089  0.00  0.00    +0.152 HD
BRANCH  14  16
ATOM     16  C   UNL     1      31.535  -6.741 -21.298  0.00  0.00    +0.049 C 
ATOM     17  C   UNL     1      32.444  -5.857 -20.714  0.00  0.00    +0.018 C 
ATOM     18  C   UNL     1      30.562  -6.254 -22.174  0.00  0.00    +0.018 C 
ATOM     19  C   UNL     1      32.382  -4.494 -21.003  0.00  0.00    +0.038 C 
ATOM     20  C   UNL     1      30.499  -4.890 -22.463  0.00  0.00    +0.038 C 
ATOM     21  C   UNL     1      31.409  -4.010 -21.877  0.00  0.00    +0.139 C 
BRANCH  21  22
ATOM     22  O   UNL     1      31.348  -2.681 -22.160  0.00  0.00    -0.471 OA
ATOM     23  C   UNL     1      30.123  -2.011 -21.867  0.00  0.00    +0.252 C 
ENDBRANCH  21  22
ENDBRANCH  14  16
ENDBRANCH   5  14
BRANCH   3  24
ATOM     24  C   UNL     1      31.700 -12.725 -22.652  0.00  0.00    +0.128 C 
BRANCH  24  25
ATOM     25  C   UNL     1      32.629 -13.497 -21.779  0.00  0.00    -0.002 C 
ATOM     26  C   UNL     1      33.894 -13.853 -22.247  0.00  0.00    -0.003 C 
ATOM     27  C   UNL     1      32.234 -13.865 -20.491  0.00  0.00    -0.003 C 
ATOM     28  C   UNL     1      34.764 -14.576 -21.431  0.00  0.00    -0.000 C 
ATOM     29  C   UNL     1      33.104 -14.588 -19.675  0.00  0.00    -0.000 C 
ATOM     30  C   UNL     1      34.369 -14.943 -20.143  0.00  0.00    -0.000 C 
ENDBRANCH  24  25
ENDBRANCH   3  24
TORSDOF 6
ENDMDL
MODEL 3
REMARK VINA RESULT:     -10.4      1.421      5.861
REMARK  Name = 5288679
REMARK  6 active torsions:
REMARK  status: ('A' for Active; 'I' for Inactive)
REMARK    1  A    between atoms: N_3  and  C_24
REMARK    2  A    between atoms: C_4  and  C_8
REMARK    3  A    between atoms: C_5  and  N_14
REMARK    4  A    between atoms: N_14  and  C_16
REMARK    5  A    between atoms: C_21  and  O_22
REMARK    6  A    between atoms: C_24  and  C_25
REMARK                            x       y       z     vdW  Elec       q    Type
REMARK                         _______ _______ _______ _____ _____    ______ ____
ROOT
ATOM      1  O   UNL     1      33.605 -23.535 -13.119  0.00  0.00    -0.269 OA
ATOM      2  O   UNL     1      31.750 -22.474 -17.187  0.00  0.00    -0.268 OA
ATOM      3  N   UNL     1      32.323 -22.882 -14.958  0.00  0.00    -0.217 N 
ATOM      4  C   UNL     1      34.472 -23.545 -15.356  0.00  0.00    +0.072 C 
ATOM      5  C   UNL     1      33.928 -23.232 -16.542  0.00  0.00    +0.107 C 
ATOM      6  C   UNL     1      33.442 -23.327 -14.310  0.00  0.00    +0.257 C 
ATOM      7  C   UNL     1      32.527 -22.809 -16.307  0.00  0.00    +0.269 C 
ENDROOT
BRANCH   4   8
ATOM      8  C   UNL     1      35.839 -23.998 -15.097  0.00  0.00    +0.006 C 
ATOM      9  C   UNL     1      36.081 -25.315 -14.688  0.00  0.00    +0.000 C 
ATOM     10  C   UNL     1      36.918 -23.121 -15.253  0.00  0.00    +0.000 C 
ATOM     11  C   UNL     1      37.383 -25.749 -14.441  0.00  0.00    +0.000 C 
ATOM     12  C   UNL     1      38.221 -23.554 -15.005  0.00  0.00    +0.000 C 
ATOM     13  C   UNL     1      38.454 -24.868 -14.600  0.00  0.00    +0.000 C 
ENDBRANCH   4   8
BRANCH   5  14
ATOM     14  N   UNL     1      34.427 -23.230 -17.801  0.00  0.00    -0.309 N 
ATOM     15  H   UNL     1      34.561 -24.116 -18.208  0.00  0.00    +0.152 HD
BRANCH  14  16
ATOM     16  C   UNL     1      34.782 -22.130 -18.603  0.00  0.00    +0.049 C 
ATOM     17  C   UNL     1      33.804 -21.451 -19.333  0.00  0.00    +0.018 C 
ATOM     18  C   UNL     1      36.113 -21.714 -18.674  0.00  0.00    +0.018 C 
ATOM     19  C   UNL     1      34.154 -20.361 -20.129  0.00  0.00    +0.038 C 
ATOM     20  C   UNL     1      36.464 -20.623 -19.471  0.00  0.00    +0.038 C 
ATOM     21  C   UNL     1      35.485 -19.947 -20.199  0.00  0.00    +0.139 C 
BRANCH  21  22
ATOM     22  O   UNL     1      35.828 -18.884 -20.975  0.00  0.00    -0.471 OA
ATOM     23  C   UNL     1      35.341 -18.875 -22.316  0.00  0.00    +0.252 C 
ENDBRANCH  21  22
ENDBRANCH  14  16
ENDBRANCH   5  14
BRANCH   3  24
ATOM     24  C   UNL     1      31.072 -22.556 -14.299  0.00  0.00    +0.128 C 
BRANCH  24  25
ATOM     25  C   UNL     1      29.941 -23.196 -15.029  0.00  0.00    -0.002 C 
ATOM     26  C   UNL     1      28.937 -22.407 -15.590  0.00  0.00    -0.003 C 
ATOM     27  C   UNL     1      29.886 -24.585 -15.153  0.00  0.00    -0.003 C 
ATOM     28  C   UNL     1      27.878 -23.004 -16.274  0.00  0.00    -0.000 C 
ATOM     29  C   UNL     1      28.827 -25.183 -15.836  0.00  0.00    -0.000 C 
ATOM     30  C   UNL     1      27.824 -24.393 -16.397  0.00  0.00    -0.000 C 
ENDBRANCH  24  25
ENDBRANCH   3  24
TORSDOF 6
ENDMDL
MODEL 4
REMARK VINA RESULT:      -9.9      2.159      7.530
REMARK  Name = 5288679
REMARK  6 active torsions:
REMARK  status: ('A' for Active; 'I' for Inactive)
REMARK    1  A    between atoms: N_3  and  C_24
REMARK    2  A    between atoms: C_4  and  C_8
REMARK    3  A    between atoms: C_5  and  N_14
REMARK    4  A    between atoms: N_14  and  C_16
REMARK    5  A    between atoms: C_21  and  O_22
REMARK    6  A    between atoms: C_24  and  C_25
REMARK                            x       y       z     vdW  Elec       q    Type
REMARK                         _______ _______ _______ _____ _____    ______ ____
ROOT
ATOM      1  O   UNL     1      31.711 -23.748 -16.895  0.00  0.00    -0.269 OA
ATOM      2  O   UNL     1      33.113 -24.358 -12.561  0.00  0.00    -0.268 OA
ATOM      3  N   UNL     1      32.051 -24.256 -14.641  0.00  0.00    -0.217 N 
ATOM      4  C   UNL     1      33.762 -23.236 -15.759  0.00  0.00    +0.072 C 
ATOM      5  C   UNL     1      34.168 -23.417 -14.493  0.00  0.00    +0.107 C 
ATOM      6  C   UNL     1      32.383 -23.773 -15.876  0.00  0.00    +0.257 C 
ATOM      7  C   UNL     1      33.068 -24.069 -13.746  0.00  0.00    +0.269 C 
ENDROOT
BRANCH   4   8
ATOM      8  C   UNL     1      34.521 -22.642 -16.860  0.00  0.00    +0.006 C 
ATOM      9  C   UNL     1      35.854 -22.259 -16.673  0.00  0.00    +0.000 C 
ATOM     10  C   UNL     1      33.923 -22.450 -18.111  0.00  0.00    +0.000 C 
ATOM     11  C   UNL     1      36.580 -21.693 -17.722  0.00  0.00    +0.000 C 
ATOM     12  C   UNL     1      34.647 -21.883 -19.160  0.00  0.00    +0.000 C 
ATOM     13  C   UNL     1      35.976 -21.506 -18.966  0.00  0.00    +0.000 C 
ENDBRANCH   4   8
BRANCH   5  14
ATOM     14  N   UNL     1      35.333 -23.135 -13.862  0.00  0.00    -0.309 N 
ATOM     15  H   UNL     1      35.406 -22.226 -13.489  0.00  0.00    +0.152 HD
BRANCH  14  16
ATOM     16  C   UNL     1      36.451 -23.965 -13.668  0.00  0.00    +0.049 C 
ATOM     17  C   UNL     1      36.715 -25.006 -14.562  0.00  0.00    +0.018 C 
ATOM     18  C   UNL     1      37.303 -23.753 -12.582  0.00  0.00    +0.018 C 
ATOM     19  C   UNL     1      37.824 -25.830 -14.371  0.00  0.00    +0.038 C 
ATOM     20  C   UNL     1      38.413 -24.578 -12.391  0.00  0.00    +0.038 C 
ATOM     21  C   UNL     1      38.672 -25.616 -13.285  0.00  0.00    +0.139 C 
BRANCH  21  22
ATOM     22  O   UNL     1      39.754 -26.419 -13.098  0.00  0.00    -0.471 OA
ATOM     23  C   UNL     1      40.826 -26.293 -14.031  0.00  0.00    +0.252 C 
ENDBRANCH  21  22
ENDBRANCH  14  16
ENDBRANCH   5  14
BRANCH   3  24
ATOM     24  C   UNL     1      30.775 -24.864 -14.317  0.00  0.00    +0.128 C 
BRANCH  24  25
ATOM     25  C   UNL     1      29.672 -24.062 -14.921  0.00  0.00    -0.002 C 
ATOM     26  C   UNL     1      29.422 -22.767 -14.469  0.00  0.00    -0.003 C 
ATOM     27  C   UNL     1      28.889 -24.608 -15.939  0.00  0.00    -0.003 C 
ATOM     28  C   UNL     1      28.391 -22.016 -15.033  0.00  0.00    -0.000 C 
ATOM     29  C   UNL     1      27.857 -23.858 -16.504  0.00  0.00    -0.000 C 
ATOM     30  C   UNL     1      27.608 -22.562 -16.052  0.00  0.00    -0.000 C 
ENDBRANCH  24  25
ENDBRANCH   3  24
TORSDOF 6
ENDMDL
MODEL 5
REMARK VINA RESULT:      -9.8      1.612      5.294
REMARK  Name = 5288679
REMARK  6 active torsions:
REMARK  status: ('A' for Active; 'I' for Inactive)
REMARK    1  A    between atoms: N_3  and  C_24
REMARK    2  A    between atoms: C_4  and  C_8
REMARK    3  A    between atoms: C_5  and  N_14
REMARK    4  A    between atoms: N_14  and  C_16
REMARK    5  A    between atoms: C_21  and  O_22
REMARK    6  A    between atoms: C_24  and  C_25
REMARK                            x       y       z     vdW  Elec       q    Type
REMARK                         _______ _______ _______ _____ _____    ______ ____
ROOT
ATOM      1  O   UNL     1      36.917 -21.506 -15.865  0.00  0.00    -0.269 OA
ATOM      2  O   UNL     1      34.145 -24.592 -13.888  0.00  0.00    -0.268 OA
ATOM      3  N   UNL     1      35.762 -23.029 -14.524  0.00  0.00    -0.217 N 
ATOM      4  C   UNL     1      34.898 -22.581 -16.590  0.00  0.00    +0.072 C 
ATOM      5  C   UNL     1      34.090 -23.482 -16.009  0.00  0.00    +0.107 C 
ATOM      6  C   UNL     1      35.997 -22.275 -15.640  0.00  0.00    +0.257 C 
ATOM      7  C   UNL     1      34.639 -23.795 -14.669  0.00  0.00    +0.269 C 
ENDROOT
BRANCH   4   8
ATOM      8  C   UNL     1      34.744 -21.970 -17.910  0.00  0.00    +0.006 C 
ATOM      9  C   UNL     1      35.871 -21.586 -18.647  0.00  0.00    +0.000 C 
ATOM     10  C   UNL     1      33.469 -21.761 -18.450  0.00  0.00    +0.000 C 
ATOM     11  C   UNL     1      35.725 -21.003 -19.906  0.00  0.00    +0.000 C 
ATOM     12  C   UNL     1      33.324 -21.177 -19.708  0.00  0.00    +0.000 C 
ATOM     13  C   UNL     1      34.451 -20.799 -20.437  0.00  0.00    +0.000 C 
ENDBRANCH   4   8
BRANCH   5  14
ATOM     14  N   UNL     1      32.945 -24.076 -16.420  0.00  0.00    -0.309 N 
ATOM     15  H   UNL     1      33.049 -24.767 -17.114  0.00  0.00    +0.152 HD
BRANCH  14  16
ATOM     16  C   UNL     1      31.627 -23.838 -15.990  0.00  0.00    +0.049 C 
ATOM     17  C   UNL     1      30.948 -22.694 -16.414  0.00  0.00    +0.018 C 
ATOM     18  C   UNL     1      30.993 -24.743 -15.137  0.00  0.00    +0.018 C 
ATOM     19  C   UNL     1      29.641 -22.456 -15.988  0.00  0.00    +0.038 C 
ATOM     20  C   UNL     1      29.686 -24.506 -14.710  0.00  0.00    +0.038 C 
ATOM     21  C   UNL     1      29.010 -23.362 -15.135  0.00  0.00    +0.139 C 
BRANCH  21  22
ATOM     22  O   UNL     1      27.736 -23.132 -14.719  0.00  0.00    -0.471 OA
ATOM     23  C   UNL     1      26.914 -22.325 -15.560  0.00  0.00    +0.252 C 
ENDBRANCH  21  22
ENDBRANCH  14  16
ENDBRANCH   5  14
BRANCH   3  24
ATOM     24  C   UNL     1      36.613 -23.035 -13.348  0.00  0.00    +0.128 C 
BRANCH  24  25
ATOM     25  C   UNL     1      37.626 -24.121 -13.470  0.00  0.00    -0.002 C 
ATOM     26  C   UNL     1      38.520 -24.125 -14.540  0.00  0.00    -0.003 C 
ATOM     27  C   UNL     1      37.681 -25.135 -12.513  0.00  0.00    -0.003 C 
ATOM     28  C   UNL     1      39.469 -25.141 -14.655  0.00  0.00    -0.000 C 
ATOM     29  C   UNL     1      38.629 -26.152 -12.627  0.00  0.00    -0.000 C 
ATOM     30  C   UNL     1      39.524 -26.155 -13.697  0.00  0.00    -0.000 C 
ENDBRANCH  24  25
ENDBRANCH   3  24
TORSDOF 6
ENDMDL
MODEL 6
REMARK VINA RESULT:      -9.6      1.884      6.862
REMARK  Name = 5288679
REMARK  6 active torsions:
REMARK  status: ('A' for Active; 'I' for Inactive)
REMARK    1  A    between atoms: N_3  and  C_24
REMARK    2  A    between atoms: C_4  and  C_8
REMARK    3  A    between atoms: C_5  and  N_14
REMARK    4  A    between atoms: N_14  and  C_16
REMARK    5  A    between atoms: C_21  and  O_22
REMARK    6  A    between atoms: C_24  and  C_25
REMARK                            x       y       z     vdW  Elec       q    Type
REMARK                         _______ _______ _______ _____ _____    ______ ____
ROOT
ATOM      1  O   UNL     1      32.678 -22.586 -18.843  0.00  0.00    -0.269 OA
ATOM      2  O   UNL     1      37.085 -22.213 -17.599  0.00  0.00    -0.268 OA
ATOM      3  N   UNL     1      34.986 -22.317 -18.622  0.00  0.00    -0.217 N 
ATOM      4  C   UNL     1      33.781 -22.667 -16.715  0.00  0.00    +0.072 C 
ATOM      5  C   UNL     1      35.069 -22.556 -16.354  0.00  0.00    +0.107 C 
ATOM      6  C   UNL     1      33.705 -22.517 -18.189  0.00  0.00    +0.257 C 
ATOM      7  C   UNL     1      35.872 -22.339 -17.581  0.00  0.00    +0.269 C 
ENDROOT
BRANCH   4   8
ATOM      8  C   UNL     1      32.628 -22.874 -15.838  0.00  0.00    +0.006 C 
ATOM      9  C   UNL     1      31.327 -22.784 -16.348  0.00  0.00    +0.000 C 
ATOM     10  C   UNL     1      32.812 -23.162 -14.480  0.00  0.00    +0.000 C 
ATOM     11  C   UNL     1      30.227 -22.980 -15.513  0.00  0.00    +0.000 C 
ATOM     12  C   UNL     1      31.712 -23.357 -13.646  0.00  0.00    +0.000 C 
ATOM     13  C   UNL     1      30.419 -23.268 -14.161  0.00  0.00    +0.000 C 
ENDBRANCH   4   8
BRANCH   5  14
ATOM     14  N   UNL     1      35.684 -22.592 -15.148  0.00  0.00    -0.309 N 
ATOM     15  H   UNL     1      35.465 -21.852 -14.537  0.00  0.00    +0.152 HD
BRANCH  14  16
ATOM     16  C   UNL     1      36.594 -23.543 -14.653  0.00  0.00    +0.049 C 
ATOM     17  C   UNL     1      37.958 -23.415 -14.924  0.00  0.00    +0.018 C 
ATOM     18  C   UNL     1      36.138 -24.619 -13.890  0.00  0.00    +0.018 C 
ATOM     19  C   UNL     1      38.861 -24.358 -14.434  0.00  0.00    +0.038 C 
ATOM     20  C   UNL     1      37.042 -25.563 -13.400  0.00  0.00    +0.038 C 
ATOM     21  C   UNL     1      38.403 -25.432 -13.672  0.00  0.00    +0.139 C 
BRANCH  21  22
ATOM     22  O   UNL     1      39.283 -26.352 -13.193  0.00  0.00    -0.471 OA
ATOM     23  C   UNL     1      40.559 -26.423 -13.828  0.00  0.00    +0.252 C 
ENDBRANCH  21  22
ENDBRANCH  14  16
ENDBRANCH   5  14
BRANCH   3  24
ATOM     24  C   UNL     1      35.360 -22.132 -20.012  0.00  0.00    +0.128 C 
BRANCH  24  25
ATOM     25  C   UNL     1      35.448 -20.676 -20.317  0.00  0.00    -0.002 C 
ATOM     26  C   UNL     1      36.687 -20.035 -20.312  0.00  0.00    -0.003 C 
ATOM     27  C   UNL     1      34.290 -19.952 -20.607  0.00  0.00    -0.003 C 
ATOM     28  C   UNL     1      36.770 -18.672 -20.597  0.00  0.00    -0.000 C 
ATOM     29  C   UNL     1      34.373 -18.589 -20.891  0.00  0.00    -0.000 C 
ATOM     30  C   UNL     1      35.612 -17.949 -20.887  0.00  0.00    -0.000 C 
ENDBRANCH  24  25
ENDBRANCH   3  24
TORSDOF 6
ENDMDL
MODEL 7
REMARK VINA RESULT:      -9.4     11.717     16.070
REMARK  Name = 5288679
REMARK  6 active torsions:
REMARK  status: ('A' for Active; 'I' for Inactive)
REMARK    1  A    between atoms: N_3  and  C_24
REMARK    2  A    between atoms: C_4  and  C_8
REMARK    3  A    between atoms: C_5  and  N_14
REMARK    4  A    between atoms: N_14  and  C_16
REMARK    5  A    between atoms: C_21  and  O_22
REMARK    6  A    between atoms: C_24  and  C_25
REMARK                            x       y       z     vdW  Elec       q    Type
REMARK                         _______ _______ _______ _____ _____    ______ ____
ROOT
ATOM      1  O   UNL     1      30.651 -10.425 -21.635  0.00  0.00    -0.269 OA
ATOM      2  O   UNL     1      34.358 -11.389 -24.175  0.00  0.00    -0.268 OA
ATOM      3  N   UNL     1      32.373 -11.308 -22.943  0.00  0.00    -0.217 N 
ATOM      4  C   UNL     1      32.439  -9.071 -22.486  0.00  0.00    +0.072 C 
ATOM      5  C   UNL     1      33.520  -9.356 -23.229  0.00  0.00    +0.107 C 
ATOM      6  C   UNL     1      31.680 -10.330 -22.285  0.00  0.00    +0.257 C 
ATOM      7  C   UNL     1      33.502 -10.807 -23.528  0.00  0.00    +0.269 C 
ENDROOT
BRANCH   4   8
ATOM      8  C   UNL     1      32.036  -7.763 -21.969  0.00  0.00    +0.006 C 
ATOM      9  C   UNL     1      30.906  -7.117 -22.486  0.00  0.00    +0.000 C 
ATOM     10  C   UNL     1      32.775  -7.143 -20.955  0.00  0.00    +0.000 C 
ATOM     11  C   UNL     1      30.520  -5.870 -21.994  0.00  0.00    +0.000 C 
ATOM     12  C   UNL     1      32.389  -5.895 -20.464  0.00  0.00    +0.000 C 
ATOM     13  C   UNL     1      31.262  -5.259 -20.983  0.00  0.00    +0.000 C 
ENDBRANCH   4   8
BRANCH   5  14
ATOM     14  N   UNL     1      34.520  -8.583 -23.716  0.00  0.00    -0.309 N 
ATOM     15  H   UNL     1      35.433  -8.908 -23.541  0.00  0.00    +0.152 HD
BRANCH  14  16
ATOM     16  C   UNL     1      34.429  -7.378 -24.435  0.00  0.00    +0.049 C 
ATOM     17  C   UNL     1      33.287  -7.094 -25.187  0.00  0.00    +0.018 C 
ATOM     18  C   UNL     1      35.480  -6.459 -24.401  0.00  0.00    +0.018 C 
ATOM     19  C   UNL     1      33.196  -5.900 -25.901  0.00  0.00    +0.038 C 
ATOM     20  C   UNL     1      35.390  -5.264 -25.115  0.00  0.00    +0.038 C 
ATOM     21  C   UNL     1      34.248  -4.985 -25.865  0.00  0.00    +0.139 C 
BRANCH  21  22
ATOM     22  O   UNL     1      34.160  -3.819 -26.561  0.00  0.00    -0.471 OA
ATOM     23  C   UNL     1      35.381  -3.249 -27.030  0.00  0.00    +0.252 C 
ENDBRANCH  21  22
ENDBRANCH  14  16
ENDBRANCH   5  14
BRANCH   3  24
ATOM     24  C   UNL     1      31.974 -12.702 -22.989  0.00  0.00    +0.128 C 
BRANCH  24  25
ATOM     25  C   UNL     1      32.715 -13.468 -21.947  0.00  0.00    -0.002 C 
ATOM     26  C   UNL     1      32.176 -13.609 -20.668  0.00  0.00    -0.003 C 
ATOM     27  C   UNL     1      33.949 -14.046 -22.250  0.00  0.00    -0.003 C 
ATOM     28  C   UNL     1      32.868 -14.325 -19.692  0.00  0.00    -0.000 C 
ATOM     29  C   UNL     1      34.642 -14.763 -21.274  0.00  0.00    -0.000 C 
ATOM     30  C   UNL     1      34.102 -14.904 -19.996  0.00  0.00    -0.000 C 
ENDBRANCH  24  25
ENDBRANCH   3  24
TORSDOF 6
ENDMDL
MODEL 8
REMARK VINA RESULT:      -9.1      1.837      6.919
REMARK  Name = 5288679
REMARK  6 active torsions:
REMARK  status: ('A' for Active; 'I' for Inactive)
REMARK    1  A    between atoms: N_3  and  C_24
REMARK    2  A    between atoms: C_4  and  C_8
REMARK    3  A    between atoms: C_5  and  N_14
REMARK    4  A    between atoms: N_14  and  C_16
REMARK    5  A    between atoms: C_21  and  O_22
REMARK    6  A    between atoms: C_24  and  C_25
REMARK                            x       y       z     vdW  Elec       q    Type
REMARK                         _______ _______ _______ _____ _____    ______ ____
ROOT
ATOM      1  O   UNL     1      33.069 -23.103 -19.127  0.00  0.00    -0.269 OA
ATOM      2  O   UNL     1      36.854 -21.747 -16.902  0.00  0.00    -0.268 OA
ATOM      3  N   UNL     1      35.152 -22.353 -18.385  0.00  0.00    -0.217 N 
ATOM      4  C   UNL     1      33.569 -22.798 -16.801  0.00  0.00    +0.072 C 
ATOM      5  C   UNL     1      34.675 -22.401 -16.154  0.00  0.00    +0.107 C 
ATOM      6  C   UNL     1      33.859 -22.778 -18.256  0.00  0.00    +0.257 C 
ATOM      7  C   UNL     1      35.721 -22.116 -17.165  0.00  0.00    +0.269 C 
ENDROOT
BRANCH   4   8
ATOM      8  C   UNL     1      32.281 -23.170 -16.213  0.00  0.00    +0.006 C 
ATOM      9  C   UNL     1      31.119 -22.471 -16.558  0.00  0.00    +0.000 C 
ATOM     10  C   UNL     1      32.198 -24.227 -15.299  0.00  0.00    +0.000 C 
ATOM     11  C   UNL     1      29.891 -22.824 -15.998  0.00  0.00    +0.000 C 
ATOM     12  C   UNL     1      30.971 -24.580 -14.738  0.00  0.00    +0.000 C 
ATOM     13  C   UNL     1      29.817 -23.879 -15.088  0.00  0.00    +0.000 C 
ENDBRANCH   4   8
BRANCH   5  14
ATOM     14  N   UNL     1      34.947 -22.220 -14.840  0.00  0.00    -0.309 N 
ATOM     15  H   UNL     1      34.810 -21.307 -14.497  0.00  0.00    +0.152 HD
BRANCH  14  16
ATOM     16  C   UNL     1      35.400 -23.162 -13.898  0.00  0.00    +0.049 C 
ATOM     17  C   UNL     1      34.511 -23.712 -12.972  0.00  0.00    +0.018 C 
ATOM     18  C   UNL     1      36.741 -23.551 -13.885  0.00  0.00    +0.018 C 
ATOM     19  C   UNL     1      34.960 -24.645 -12.039  0.00  0.00    +0.038 C 
ATOM     20  C   UNL     1      37.191 -24.485 -12.951  0.00  0.00    +0.038 C 
ATOM     21  C   UNL     1      36.300 -25.032 -12.027  0.00  0.00    +0.139 C 
BRANCH  21  22
ATOM     22  O   UNL     1      36.738 -25.942 -11.117  0.00  0.00    -0.471 OA
ATOM     23  C   UNL     1      37.907 -26.688 -11.455  0.00  0.00    +0.252 C 
ENDBRANCH  21  22
ENDBRANCH  14  16
ENDBRANCH   5  14
BRANCH   3  24
ATOM     24  C   UNL     1      35.839 -22.200 -19.654  0.00  0.00    +0.128 C 
BRANCH  24  25
ATOM     25  C   UNL     1      35.699 -20.795 -20.132  0.00  0.00    -0.002 C 
ATOM     26  C   UNL     1      34.440 -20.291 -20.461  0.00  0.00    -0.003 C 
ATOM     27  C   UNL     1      36.827 -19.982 -20.251  0.00  0.00    -0.003 C 
ATOM     28  C   UNL     1      34.308 -18.977 -20.908  0.00  0.00    -0.000 C 
ATOM     29  C   UNL     1      36.696 -18.667 -20.699  0.00  0.00    -0.000 C 
ATOM     30  C   UNL     1      35.436 -18.164 -21.027  0.00  0.00    -0.000 C 
ENDBRANCH  24  25
ENDBRANCH   3  24
TORSDOF 6
ENDMDL
MODEL 9
REMARK VINA RESULT:      -8.5      9.891     14.285
REMARK  Name = 5288679
REMARK  6 active torsions:
REMARK  status: ('A' for Active; 'I' for Inactive)
REMARK    1  A    between atoms: N_3  and  C_24
REMARK    2  A    between atoms: C_4  and  C_8
REMARK    3  A    between atoms: C_5  and  N_14
REMARK    4  A    between atoms: N_14  and  C_16
REMARK    5  A    between atoms: C_21  and  O_22
REMARK    6  A    between atoms: C_24  and  C_25
REMARK                            x       y       z     vdW  Elec       q    Type
REMARK                         _______ _______ _______ _____ _____    ______ ____
ROOT
ATOM      1  O   UNL     1      30.992 -10.764 -20.475  0.00  0.00    -0.269 OA
ATOM      2  O   UNL     1      32.582  -9.963 -24.711  0.00  0.00    -0.268 OA
ATOM      3  N   UNL     1      31.577  -9.996 -22.601  0.00  0.00    -0.217 N 
ATOM      4  C   UNL     1      32.529 -11.946 -21.887  0.00  0.00    +0.072 C 
ATOM      5  C   UNL     1      32.993 -11.708 -23.124  0.00  0.00    +0.107 C 
ATOM      6  C   UNL     1      31.603 -10.843 -21.528  0.00  0.00    +0.257 C 
ATOM      7  C   UNL     1      32.378 -10.451 -23.611  0.00  0.00    +0.269 C 
ENDROOT
BRANCH   4   8
ATOM      8  C   UNL     1      32.872 -13.066 -21.010  0.00  0.00    +0.006 C 
ATOM      9  C   UNL     1      34.208 -13.450 -20.844  0.00  0.00    +0.000 C 
ATOM     10  C   UNL     1      31.869 -13.765 -20.329  0.00  0.00    +0.000 C 
ATOM     11  C   UNL     1      34.536 -14.518 -20.008  0.00  0.00    +0.000 C 
ATOM     12  C   UNL     1      32.196 -14.833 -19.494  0.00  0.00    +0.000 C 
ATOM     13  C   UNL     1      33.530 -15.209 -19.332  0.00  0.00    +0.000 C 
ENDBRANCH   4   8
BRANCH   5  14
ATOM     14  N   UNL     1      33.870 -12.374 -23.911  0.00  0.00    -0.309 N 
ATOM     15  H   UNL     1      34.556 -11.820 -24.349  0.00  0.00    +0.152 HD
BRANCH  14  16
ATOM     16  C   UNL     1      33.931 -13.752 -24.189  0.00  0.00    +0.049 C 
ATOM     17  C   UNL     1      33.107 -14.306 -25.171  0.00  0.00    +0.018 C 
ATOM     18  C   UNL     1      34.816 -14.571 -23.484  0.00  0.00    +0.018 C 
ATOM     19  C   UNL     1      33.167 -15.672 -25.447  0.00  0.00    +0.038 C 
ATOM     20  C   UNL     1      34.876 -15.938 -23.760  0.00  0.00    +0.038 C 
ATOM     21  C   UNL     1      34.051 -16.488 -24.741  0.00  0.00    +0.139 C 
BRANCH  21  22
ATOM     22  O   UNL     1      34.110 -17.820 -25.010  0.00  0.00    -0.471 OA
ATOM     23  C   UNL     1      34.304 -18.698 -23.902  0.00  0.00    +0.252 C 
ENDBRANCH  21  22
ENDBRANCH  14  16
ENDBRANCH   5  14
BRANCH   3  24
ATOM     24  C   UNL     1      30.781  -8.785 -22.667  0.00  0.00    +0.128 C 
BRANCH  24  25
ATOM     25  C   UNL     1      31.470  -7.693 -21.922  0.00  0.00    -0.002 C 
ATOM     26  C   UNL     1      31.004  -6.381 -22.016  0.00  0.00    -0.003 C 
ATOM     27  C   UNL     1      32.582  -7.982 -21.129  0.00  0.00    -0.003 C 
ATOM     28  C   UNL     1      31.648  -5.359 -21.320  0.00  0.00    -0.000 C 
ATOM     29  C   UNL     1      33.226  -6.960 -20.432  0.00  0.00    -0.000 C 
ATOM     30  C   UNL     1      32.759  -5.648 -20.526  0.00  0.00    -0.000 C 
ENDBRANCH  24  25
ENDBRANCH   3  24
TORSDOF 6
ENDMDL
