MODEL 1
REMARK VINA RESULT:     -12.1      0.000      0.000
REMARK  Name = 59473233
REMARK  3 active torsions:
REMARK  status: ('A' for Active; 'I' for Inactive)
REMARK    1  A    between atoms: N_1  and  C_25
REMARK    2  A    between atoms: C_7  and  C_14
REMARK    3  A    between atoms: C_22  and  N_29
REMARK                            x       y       z     vdW  Elec       q    Type
REMARK                         _______ _______ _______ _____ _____    ______ ____
ROOT
ATOM      1  N   UNL     1      36.750 -22.903 -15.641  0.00  0.00    -0.286 N 
ATOM      2  N   UNL     1      35.302 -23.719 -12.334  0.00  0.00    -0.260 N 
ATOM      3  N   UNL     1      34.570 -23.431 -14.989  0.00  0.00    -0.387 NA
ATOM      4  N   UNL     1      37.435 -23.241 -12.777  0.00  0.00    -0.224 NA
ATOM      5  C   UNL     1      35.835 -23.239 -14.670  0.00  0.00    +0.216 C 
ATOM      6  C   UNL     1      36.233 -23.390 -13.284  0.00  0.00    +0.180 C 
ATOM      7  C   UNL     1      33.650 -23.773 -13.997  0.00  0.00    +0.131 C 
ATOM      8  C   UNL     1      33.984 -23.913 -12.694  0.00  0.00    +0.156 C 
ATOM      9  C   UNL     1      35.954 -23.786 -11.135  0.00  0.00    +0.088 C 
ATOM     10  C   UNL     1      37.267 -23.487 -11.434  0.00  0.00    +0.117 C 
ATOM     11  H   UNL     1      37.677 -23.201 -15.496  0.00  0.00    +0.155 HD
ENDROOT
BRANCH   7  14
ATOM     12  N   UNL     1      29.553 -22.709 -16.650  0.00  0.00    -0.236 N 
ATOM     13  N   UNL     1      28.312 -23.219 -16.718  0.00  0.00    -0.180 NA
ATOM     14  C   UNL     1      32.244 -23.962 -14.417  0.00  0.00    +0.028 C 
ATOM     15  C   UNL     1      30.370 -23.339 -15.750  0.00  0.00    +0.067 C 
ATOM     16  C   UNL     1      31.701 -23.117 -15.390  0.00  0.00    +0.018 C 
ATOM     17  C   UNL     1      29.590 -24.344 -15.188  0.00  0.00    +0.035 C 
ATOM     18  C   UNL     1      31.483 -24.978 -13.835  0.00  0.00    +0.002 C 
ATOM     19  C   UNL     1      30.149 -25.184 -14.211  0.00  0.00    +0.003 C 
ATOM     20  C   UNL     1      28.338 -24.213 -15.827  0.00  0.00    +0.119 C 
ATOM     21  H   UNL     1      29.848 -21.948 -17.199  0.00  0.00    +0.174 HD
ENDBRANCH   7  14
BRANCH   1  25
ATOM     22  C   UNL     1      36.003 -20.749 -19.147  0.00  0.00    +0.048 C 
ATOM     23  C   UNL     1      37.067 -20.388 -18.319  0.00  0.00    +0.016 C 
ATOM     24  C   UNL     1      35.189 -21.828 -18.803  0.00  0.00    +0.016 C 
ATOM     25  C   UNL     1      36.501 -22.185 -16.807  0.00  0.00    +0.050 C 
ATOM     26  C   UNL     1      37.316 -21.106 -17.149  0.00  0.00    +0.016 C 
ATOM     27  C   UNL     1      35.436 -22.546 -17.634  0.00  0.00    +0.016 C 
BRANCH  22  29
ATOM     28  O   UNL     1      35.189 -18.364 -22.512  0.00  0.00    -0.350 OA
ATOM     29  N   UNL     1      35.754 -20.029 -20.319  0.00  0.00    -0.303 N 
ATOM     30  C   UNL     1      36.631 -18.893 -20.635  0.00  0.00    +0.123 C 
ATOM     31  C   UNL     1      34.385 -19.923 -20.837  0.00  0.00    +0.123 C 
ATOM     32  C   UNL     1      36.546 -18.576 -22.123  0.00  0.00    +0.164 C 
ATOM     33  C   UNL     1      34.420 -19.549 -22.314  0.00  0.00    +0.164 C 
ENDBRANCH  22  29
ENDBRANCH   1  25
TORSDOF 3
ENDMDL
MODEL 2
REMARK VINA RESULT:     -10.8      1.399      2.079
REMARK  Name = 59473233
REMARK  3 active torsions:
REMARK  status: ('A' for Active; 'I' for Inactive)
REMARK    1  A    between atoms: N_1  and  C_25
REMARK    2  A    between atoms: C_7  and  C_14
REMARK    3  A    between atoms: C_22  and  N_29
REMARK                            x       y       z     vdW  Elec       q    Type
REMARK                         _______ _______ _______ _____ _____    ______ ____
ROOT
ATOM      1  N   UNL     1      36.812 -22.361 -17.255  0.00  0.00    -0.286 N 
ATOM      2  N   UNL     1      35.764 -23.426 -13.869  0.00  0.00    -0.260 N 
ATOM      3  N   UNL     1      34.709 -22.852 -16.364  0.00  0.00    -0.387 NA
ATOM      4  N   UNL     1      37.844 -23.003 -14.552  0.00  0.00    -0.224 NA
ATOM      5  C   UNL     1      36.014 -22.748 -16.204  0.00  0.00    +0.216 C 
ATOM      6  C   UNL     1      36.580 -23.048 -14.903  0.00  0.00    +0.180 C 
ATOM      7  C   UNL     1      33.909 -23.246 -15.291  0.00  0.00    +0.131 C 
ATOM      8  C   UNL     1      34.401 -23.526 -14.064  0.00  0.00    +0.156 C 
ATOM      9  C   UNL     1      36.562 -23.636 -12.780  0.00  0.00    +0.088 C 
ATOM     10  C   UNL     1      37.839 -23.369 -13.226  0.00  0.00    +0.117 C 
ATOM     11  H   UNL     1      37.732 -22.713 -17.264  0.00  0.00    +0.155 HD
ENDROOT
BRANCH   7  14
ATOM     12  N   UNL     1      29.270 -24.854 -14.368  0.00  0.00    -0.236 N 
ATOM     13  N   UNL     1      28.067 -24.641 -14.926  0.00  0.00    -0.180 NA
ATOM     14  C   UNL     1      32.451 -23.331 -15.533  0.00  0.00    +0.028 C 
ATOM     15  C   UNL     1      30.297 -24.182 -14.974  0.00  0.00    +0.067 C 
ATOM     16  C   UNL     1      31.666 -24.138 -14.702  0.00  0.00    +0.018 C 
ATOM     17  C   UNL     1      29.707 -23.471 -16.013  0.00  0.00    +0.035 C 
ATOM     18  C   UNL     1      31.884 -22.608 -16.584  0.00  0.00    +0.002 C 
ATOM     19  C   UNL     1      30.508 -22.666 -16.839  0.00  0.00    +0.003 C 
ATOM     20  C   UNL     1      28.336 -23.799 -15.926  0.00  0.00    +0.119 C 
ATOM     21  H   UNL     1      29.402 -25.444 -13.591  0.00  0.00    +0.174 HD
ENDBRANCH   7  14
BRANCH   1  25
ATOM     22  C   UNL     1      35.735 -19.843 -20.415  0.00  0.00    +0.048 C 
ATOM     23  C   UNL     1      34.864 -20.850 -19.997  0.00  0.00    +0.016 C 
ATOM     24  C   UNL     1      36.964 -19.676 -19.778  0.00  0.00    +0.016 C 
ATOM     25  C   UNL     1      36.454 -21.524 -18.308  0.00  0.00    +0.050 C 
ATOM     26  C   UNL     1      35.224 -21.691 -18.944  0.00  0.00    +0.016 C 
ATOM     27  C   UNL     1      37.325 -20.517 -18.725  0.00  0.00    +0.016 C 
BRANCH  22  29
ATOM     28  O   UNL     1      34.417 -17.246 -23.447  0.00  0.00    -0.350 OA
ATOM     29  N   UNL     1      35.374 -19.000 -21.471  0.00  0.00    -0.303 N 
ATOM     30  C   UNL     1      35.315 -17.554 -21.216  0.00  0.00    +0.123 C 
ATOM     31  C   UNL     1      34.469 -19.487 -22.519  0.00  0.00    +0.123 C 
ATOM     32  C   UNL     1      35.416 -16.795 -22.533  0.00  0.00    +0.164 C 
ATOM     33  C   UNL     1      34.614 -18.623 -23.767  0.00  0.00    +0.164 C 
ENDBRANCH  22  29
ENDBRANCH   1  25
TORSDOF 3
ENDMDL
MODEL 3
REMARK VINA RESULT:      -9.4     12.418     18.131
REMARK  Name = 59473233
REMARK  3 active torsions:
REMARK  status: ('A' for Active; 'I' for Inactive)
REMARK    1  A    between atoms: N_1  and  C_25
REMARK    2  A    between atoms: C_7  and  C_14
REMARK    3  A    between atoms: C_22  and  N_29
REMARK                            x       y       z     vdW  Elec       q    Type
REMARK                         _______ _______ _______ _____ _____    ______ ____
ROOT
ATOM      1  N   UNL     1      30.845  -8.135 -22.823  0.00  0.00    -0.286 N 
ATOM      2  N   UNL     1      31.515  -4.499 -22.999  0.00  0.00    -0.260 N 
ATOM      3  N   UNL     1      32.250  -6.880 -24.205  0.00  0.00    -0.387 NA
ATOM      4  N   UNL     1      30.120  -5.534 -21.600  0.00  0.00    -0.224 NA
ATOM      5  C   UNL     1      31.370  -6.928 -23.224  0.00  0.00    +0.216 C 
ATOM      6  C   UNL     1      30.975  -5.688 -22.585  0.00  0.00    +0.180 C 
ATOM      7  C   UNL     1      32.775  -5.651 -24.606  0.00  0.00    +0.131 C 
ATOM      8  C   UNL     1      32.435  -4.477 -24.028  0.00  0.00    +0.156 C 
ATOM      9  C   UNL     1      30.969  -3.515 -22.224  0.00  0.00    +0.088 C 
ATOM     10  C   UNL     1      30.113  -4.178 -21.370  0.00  0.00    +0.117 C 
ATOM     11  H   UNL     1      29.931  -8.119 -22.457  0.00  0.00    +0.155 HD
ENDROOT
BRANCH   7  14
ATOM     12  N   UNL     1      34.232  -6.118 -29.361  0.00  0.00    -0.236 N 
ATOM     13  N   UNL     1      35.411  -6.041 -30.001  0.00  0.00    -0.180 NA
ATOM     14  C   UNL     1      33.766  -5.667 -25.704  0.00  0.00    +0.028 C 
ATOM     15  C   UNL     1      34.312  -5.916 -28.009  0.00  0.00    +0.067 C 
ATOM     16  C   UNL     1      33.336  -5.913 -27.012  0.00  0.00    +0.018 C 
ATOM     17  C   UNL     1      35.660  -5.689 -27.753  0.00  0.00    +0.035 C 
ATOM     18  C   UNL     1      35.114  -5.437 -25.418  0.00  0.00    +0.002 C 
ATOM     19  C   UNL     1      36.077  -5.443 -26.434  0.00  0.00    +0.003 C 
ATOM     20  C   UNL     1      36.277  -5.781 -29.019  0.00  0.00    +0.119 C 
ATOM     21  H   UNL     1      33.384  -6.304 -29.825  0.00  0.00    +0.174 HD
ENDBRANCH   7  14
BRANCH   1  25
ATOM     22  C   UNL     1      32.729 -11.864 -22.999  0.00  0.00    +0.048 C 
ATOM     23  C   UNL     1      31.651 -11.667 -22.135  0.00  0.00    +0.016 C 
ATOM     24  C   UNL     1      33.178 -10.816 -23.803  0.00  0.00    +0.016 C 
ATOM     25  C   UNL     1      31.473  -9.376 -22.880  0.00  0.00    +0.050 C 
ATOM     26  C   UNL     1      31.023 -10.422 -22.075  0.00  0.00    +0.016 C 
ATOM     27  C   UNL     1      32.551  -9.573 -23.744  0.00  0.00    +0.016 C 
BRANCH  22  29
ATOM     28  O   UNL     1      34.861 -15.480 -23.229  0.00  0.00    -0.350 OA
ATOM     29  N   UNL     1      33.359 -13.111 -23.058  0.00  0.00    -0.303 N 
ATOM     30  C   UNL     1      34.358 -13.433 -22.030  0.00  0.00    +0.123 C 
ATOM     31  C   UNL     1      33.563 -13.767 -24.354  0.00  0.00    +0.123 C 
ATOM     32  C   UNL     1      34.541 -14.944 -21.945  0.00  0.00    +0.164 C 
ATOM     33  C   UNL     1      33.790 -15.260 -24.146  0.00  0.00    +0.164 C 
ENDBRANCH  22  29
ENDBRANCH   1  25
TORSDOF 3
ENDMDL
