MODEL 1
REMARK VINA RESULT:     -11.8      0.000      0.000
REMARK  Name = 10200651
REMARK  5 active torsions:
REMARK  status: ('A' for Active; 'I' for Inactive)
REMARK    1  A    between atoms: C_1  and  C_7
REMARK    2  A    between atoms: C_4  and  C_22
REMARK    3  A    between atoms: C_10  and  C_17
REMARK    4  A    between atoms: N_21  and  C_24
REMARK    5  A    between atoms: C_27  and  C_31
REMARK                            x       y       z     vdW  Elec       q    Type
REMARK                         _______ _______ _______ _____ _____    ______ ____
ROOT
ATOM      1  C   UNL     1      33.518 -13.909 -22.683  0.00  0.00    -0.000 C 
ATOM      2  C   UNL     1      32.691 -13.797 -21.564  0.00  0.00    +0.000 C 
ATOM      3  C   UNL     1      33.861 -12.773 -23.414  0.00  0.00    +0.000 C 
ATOM      4  C   UNL     1      32.563 -11.439 -21.917  0.00  0.00    +0.054 C 
ATOM      5  C   UNL     1      32.208 -12.548 -21.177  0.00  0.00    +0.005 C 
ATOM      6  C   UNL     1      33.378 -11.523 -23.026  0.00  0.00    +0.005 C 
ENDROOT
BRANCH   1   7
ATOM      7  C   UNL     1      34.019 -15.206 -23.084  0.00  0.00    -0.004 C 
ATOM      8  C   UNL     1      33.924 -15.639 -24.408  0.00  0.00    -0.022 C 
ATOM      9  C   UNL     1      34.605 -16.034 -22.124  0.00  0.00    +0.004 C 
ATOM     10  C   UNL     1      35.094 -17.289 -22.487  0.00  0.00    +0.055 C 
ATOM     11  C   UNL     1      34.413 -16.894 -24.770  0.00  0.00    -0.004 C 
ATOM     12  C   UNL     1      34.999 -17.718 -23.811  0.00  0.00    +0.004 C 
ATOM     13  C   UNL     1      33.303 -14.783 -25.465  0.00  0.00    +0.031 C 
BRANCH  10  17
ATOM     14  O   UNL     1      35.018 -19.280 -21.202  0.00  0.00    -0.420 OA
ATOM     15  N   UNL     1      36.809 -17.996 -20.819  0.00  0.00    -0.107 NA
ATOM     16  N   UNL     1      36.901 -19.110 -20.006  0.00  0.00    -0.111 NA
ATOM     17  C   UNL     1      35.700 -18.142 -21.494  0.00  0.00    +0.250 A 
ATOM     18  C   UNL     1      35.834 -19.830 -20.262  0.00  0.00    +0.227 A 
ATOM     19  C   UNL     1      35.413 -21.114 -19.691  0.00  0.00    +0.097 C 
ENDBRANCH  10  17
ENDBRANCH   1   7
BRANCH   4  22
ATOM     20  O   UNL     1      31.125 -10.077 -20.697  0.00  0.00    -0.270 OA
ATOM     21  N   UNL     1      32.698  -9.006 -22.078  0.00  0.00    -0.280 N 
ATOM     22  C   UNL     1      32.047 -10.107 -21.505  0.00  0.00    +0.249 C 
ATOM     23  H   UNL     1      33.423  -9.215 -22.712  0.00  0.00    +0.155 HD
BRANCH  21  24
ATOM     24  C   UNL     1      32.448  -7.651 -21.860  0.00  0.00    +0.051 C 
ATOM     25  C   UNL     1      31.768  -6.903 -22.820  0.00  0.00    +0.025 C 
ATOM     26  C   UNL     1      32.879  -7.044 -20.680  0.00  0.00    +0.015 C 
ATOM     27  C   UNL     1      31.519  -5.548 -22.602  0.00  0.00    +0.070 C 
ATOM     28  C   UNL     1      32.630  -5.689 -20.461  0.00  0.00    +0.002 C 
ATOM     29  C   UNL     1      31.951  -4.942 -21.422  0.00  0.00    +0.010 C 
BRANCH  27  31
ATOM     30  N   UNL     1      30.256  -4.158 -24.387  0.00  0.00    -0.191 NA
ATOM     31  C   UNL     1      30.823  -4.781 -23.586  0.00  0.00    +0.100 C 
ENDBRANCH  27  31
ENDBRANCH  21  24
ENDBRANCH   4  22
TORSDOF 5
ENDMDL
MODEL 2
REMARK VINA RESULT:     -11.6      4.201     12.406
REMARK  Name = 10200651
REMARK  5 active torsions:
REMARK  status: ('A' for Active; 'I' for Inactive)
REMARK    1  A    between atoms: C_1  and  C_7
REMARK    2  A    between atoms: C_4  and  C_22
REMARK    3  A    between atoms: C_10  and  C_17
REMARK    4  A    between atoms: N_21  and  C_24
REMARK    5  A    between atoms: C_27  and  C_31
REMARK                            x       y       z     vdW  Elec       q    Type
REMARK                         _______ _______ _______ _____ _____    ______ ____
ROOT
ATOM      1  C   UNL     1      34.942 -19.386 -21.159  0.00  0.00    -0.000 C 
ATOM      2  C   UNL     1      33.801 -20.028 -20.677  0.00  0.00    +0.000 C 
ATOM      3  C   UNL     1      36.190 -19.677 -20.610  0.00  0.00    +0.000 C 
ATOM      4  C   UNL     1      35.155 -21.230 -19.121  0.00  0.00    +0.054 C 
ATOM      5  C   UNL     1      33.908 -20.960 -19.646  0.00  0.00    +0.005 C 
ATOM      6  C   UNL     1      36.298 -20.610 -19.579  0.00  0.00    +0.005 C 
ENDROOT
BRANCH   1   7
ATOM      7  C   UNL     1      34.830 -18.418 -22.229  0.00  0.00    -0.004 C 
ATOM      8  C   UNL     1      34.833 -18.817 -23.567  0.00  0.00    -0.022 C 
ATOM      9  C   UNL     1      34.718 -17.064 -21.909  0.00  0.00    +0.004 C 
ATOM     10  C   UNL     1      34.610 -16.111 -22.923  0.00  0.00    +0.055 C 
ATOM     11  C   UNL     1      34.725 -17.865 -24.581  0.00  0.00    -0.004 C 
ATOM     12  C   UNL     1      34.612 -16.513 -24.259  0.00  0.00    +0.004 C 
ATOM     13  C   UNL     1      34.951 -20.257 -23.951  0.00  0.00    +0.031 C 
BRANCH  10  17
ATOM     14  O   UNL     1      34.214 -13.883 -23.628  0.00  0.00    -0.420 OA
ATOM     15  N   UNL     1      34.621 -14.106 -21.440  0.00  0.00    -0.107 NA
ATOM     16  N   UNL     1      34.412 -12.765 -21.700  0.00  0.00    -0.111 NA
ATOM     17  C   UNL     1      34.495 -14.713 -22.590  0.00  0.00    +0.250 A 
ATOM     18  C   UNL     1      34.179 -12.681 -22.989  0.00  0.00    +0.227 A 
ATOM     19  C   UNL     1      33.893 -11.502 -23.814  0.00  0.00    +0.097 C 
ENDBRANCH  10  17
ENDBRANCH   1   7
BRANCH   4  22
ATOM     20  O   UNL     1      34.598 -23.247 -18.104  0.00  0.00    -0.270 OA
ATOM     21  N   UNL     1      36.165 -21.888 -16.998  0.00  0.00    -0.280 N 
ATOM     22  C   UNL     1      35.269 -22.224 -18.021  0.00  0.00    +0.249 C 
ATOM     23  H   UNL     1      36.622 -21.020 -17.092  0.00  0.00    +0.155 HD
BRANCH  21  24
ATOM     24  C   UNL     1      36.493 -22.631 -15.863  0.00  0.00    +0.051 C 
ATOM     25  C   UNL     1      35.497 -22.997 -14.958  0.00  0.00    +0.025 C 
ATOM     26  C   UNL     1      37.816 -23.009 -15.635  0.00  0.00    +0.015 C 
ATOM     27  C   UNL     1      35.825 -23.741 -13.823  0.00  0.00    +0.070 C 
ATOM     28  C   UNL     1      38.144 -23.752 -14.501  0.00  0.00    +0.002 C 
ATOM     29  C   UNL     1      37.148 -24.117 -13.596  0.00  0.00    +0.010 C 
BRANCH  27  31
ATOM     30  N   UNL     1      33.976 -24.421 -12.141  0.00  0.00    -0.191 NA
ATOM     31  C   UNL     1      34.805 -24.116 -12.896  0.00  0.00    +0.100 C 
ENDBRANCH  27  31
ENDBRANCH  21  24
ENDBRANCH   4  22
TORSDOF 5
ENDMDL
MODEL 3
REMARK VINA RESULT:     -11.4      4.302     12.635
REMARK  Name = 10200651
REMARK  5 active torsions:
REMARK  status: ('A' for Active; 'I' for Inactive)
REMARK    1  A    between atoms: C_1  and  C_7
REMARK    2  A    between atoms: C_4  and  C_22
REMARK    3  A    between atoms: C_10  and  C_17
REMARK    4  A    between atoms: N_21  and  C_24
REMARK    5  A    between atoms: C_27  and  C_31
REMARK                            x       y       z     vdW  Elec       q    Type
REMARK                         _______ _______ _______ _____ _____    ______ ____
ROOT
ATOM      1  C   UNL     1      34.776 -19.608 -21.019  0.00  0.00    -0.000 C 
ATOM      2  C   UNL     1      33.573 -20.143 -20.557  0.00  0.00    +0.000 C 
ATOM      3  C   UNL     1      35.984 -20.019 -20.457  0.00  0.00    +0.000 C 
ATOM      4  C   UNL     1      34.788 -21.478 -18.994  0.00  0.00    +0.054 C 
ATOM      5  C   UNL     1      33.579 -21.089 -19.533  0.00  0.00    +0.005 C 
ATOM      6  C   UNL     1      35.990 -20.965 -19.433  0.00  0.00    +0.005 C 
ENDROOT
BRANCH   1   7
ATOM      7  C   UNL     1      34.770 -18.627 -22.083  0.00  0.00    -0.004 C 
ATOM      8  C   UNL     1      34.879 -19.010 -23.421  0.00  0.00    -0.022 C 
ATOM      9  C   UNL     1      34.652 -17.274 -21.756  0.00  0.00    +0.004 C 
ATOM     10  C   UNL     1      34.644 -16.309 -22.763  0.00  0.00    +0.055 C 
ATOM     11  C   UNL     1      34.872 -18.045 -24.427  0.00  0.00    -0.004 C 
ATOM     12  C   UNL     1      34.753 -16.695 -24.099  0.00  0.00    +0.004 C 
ATOM     13  C   UNL     1      35.008 -20.447 -23.811  0.00  0.00    +0.031 C 
BRANCH  10  17
ATOM     14  O   UNL     1      34.266 -14.075 -23.462  0.00  0.00    -0.420 OA
ATOM     15  N   UNL     1      34.622 -14.314 -21.266  0.00  0.00    -0.107 NA
ATOM     16  N   UNL     1      34.420 -12.970 -21.523  0.00  0.00    -0.111 NA
ATOM     17  C   UNL     1      34.523 -14.912 -22.424  0.00  0.00    +0.250 A 
ATOM     18  C   UNL     1      34.218 -12.878 -22.816  0.00  0.00    +0.227 A 
ATOM     19  C   UNL     1      33.951 -11.693 -23.639  0.00  0.00    +0.097 C 
ENDBRANCH  10  17
ENDBRANCH   1   7
BRANCH   4  22
ATOM     20  O   UNL     1      34.168 -23.525 -18.079  0.00  0.00    -0.270 OA
ATOM     21  N   UNL     1      35.548 -22.143 -16.771  0.00  0.00    -0.280 N 
ATOM     22  C   UNL     1      34.794 -22.486 -17.901  0.00  0.00    +0.249 C 
ATOM     23  H   UNL     1      35.988 -21.262 -16.797  0.00  0.00    +0.155 HD
BRANCH  21  24
ATOM     24  C   UNL     1      35.754 -22.896 -15.614  0.00  0.00    +0.051 C 
ATOM     25  C   UNL     1      37.024 -23.389 -15.320  0.00  0.00    +0.025 C 
ATOM     26  C   UNL     1      34.688 -23.154 -14.752  0.00  0.00    +0.015 C 
ATOM     27  C   UNL     1      37.230 -24.142 -14.163  0.00  0.00    +0.070 C 
ATOM     28  C   UNL     1      34.893 -23.906 -13.595  0.00  0.00    +0.002 C 
ATOM     29  C   UNL     1      36.164 -24.400 -13.302  0.00  0.00    +0.010 C 
BRANCH  27  31
ATOM     30  N   UNL     1      39.590 -25.059 -13.616  0.00  0.00    -0.191 NA
ATOM     31  C   UNL     1      38.531 -24.648 -13.861  0.00  0.00    +0.100 C 
ENDBRANCH  27  31
ENDBRANCH  21  24
ENDBRANCH   4  22
TORSDOF 5
ENDMDL
MODEL 4
REMARK VINA RESULT:     -11.1      6.053     11.286
REMARK  Name = 10200651
REMARK  5 active torsions:
REMARK  status: ('A' for Active; 'I' for Inactive)
REMARK    1  A    between atoms: C_1  and  C_7
REMARK    2  A    between atoms: C_4  and  C_22
REMARK    3  A    between atoms: C_10  and  C_17
REMARK    4  A    between atoms: N_21  and  C_24
REMARK    5  A    between atoms: C_27  and  C_31
REMARK                            x       y       z     vdW  Elec       q    Type
REMARK                         _______ _______ _______ _____ _____    ______ ____
ROOT
ATOM      1  C   UNL     1      34.249 -22.763 -16.850  0.00  0.00    -0.000 C 
ATOM      2  C   UNL     1      35.312 -22.219 -17.571  0.00  0.00    +0.000 C 
ATOM      3  C   UNL     1      32.938 -22.558 -17.277  0.00  0.00    +0.000 C 
ATOM      4  C   UNL     1      33.757 -21.280 -19.121  0.00  0.00    +0.054 C 
ATOM      5  C   UNL     1      35.064 -21.469 -18.720  0.00  0.00    +0.005 C 
ATOM      6  C   UNL     1      32.689 -21.807 -18.427  0.00  0.00    +0.005 C 
ENDROOT
BRANCH   1   7
ATOM      7  C   UNL     1      34.508 -23.542 -15.658  0.00  0.00    -0.004 C 
ATOM      8  C   UNL     1      33.591 -23.577 -14.605  0.00  0.00    -0.022 C 
ATOM      9  C   UNL     1      35.697 -24.267 -15.566  0.00  0.00    +0.004 C 
ATOM     10  C   UNL     1      35.970 -25.024 -14.426  0.00  0.00    +0.055 C 
ATOM     11  C   UNL     1      33.863 -24.334 -13.466  0.00  0.00    -0.004 C 
ATOM     12  C   UNL     1      35.051 -25.058 -13.376  0.00  0.00    +0.004 C 
ATOM     13  C   UNL     1      32.307 -22.814 -14.665  0.00  0.00    +0.031 C 
BRANCH  10  17
ATOM     14  O   UNL     1      38.318 -25.038 -14.103  0.00  0.00    -0.420 OA
ATOM     15  N   UNL     1      37.415 -27.057 -14.438  0.00  0.00    -0.107 NA
ATOM     16  N   UNL     1      38.777 -27.221 -14.267  0.00  0.00    -0.111 NA
ATOM     17  C   UNL     1      37.199 -25.772 -14.333  0.00  0.00    +0.250 A 
ATOM     18  C   UNL     1      39.263 -26.017 -14.077  0.00  0.00    +0.227 A 
ATOM     19  C   UNL     1      40.648 -25.593 -13.843  0.00  0.00    +0.097 C 
ENDBRANCH  10  17
ENDBRANCH   1   7
BRANCH   4  22
ATOM     20  O   UNL     1      32.353 -20.488 -20.797  0.00  0.00    -0.270 OA
ATOM     21  N   UNL     1      34.591 -19.771 -20.850  0.00  0.00    -0.280 N 
ATOM     22  C   UNL     1      33.493 -20.480 -20.346  0.00  0.00    +0.249 C 
ATOM     23  H   UNL     1      35.438 -19.882 -20.359  0.00  0.00    +0.155 HD
BRANCH  21  24
ATOM     24  C   UNL     1      34.633 -18.926 -21.960  0.00  0.00    +0.051 C 
ATOM     25  C   UNL     1      34.734 -17.547 -21.783  0.00  0.00    +0.025 C 
ATOM     26  C   UNL     1      34.575 -19.462 -23.246  0.00  0.00    +0.015 C 
ATOM     27  C   UNL     1      34.776 -16.702 -22.893  0.00  0.00    +0.070 C 
ATOM     28  C   UNL     1      34.616 -18.619 -24.356  0.00  0.00    +0.002 C 
ATOM     29  C   UNL     1      34.716 -17.239 -24.179  0.00  0.00    +0.010 C 
BRANCH  27  31
ATOM     30  N   UNL     1      34.963 -14.140 -22.565  0.00  0.00    -0.191 NA
ATOM     31  C   UNL     1      34.879 -15.289 -22.712  0.00  0.00    +0.100 C 
ENDBRANCH  27  31
ENDBRANCH  21  24
ENDBRANCH   4  22
TORSDOF 5
ENDMDL
MODEL 5
REMARK VINA RESULT:     -11.1      5.895     11.232
REMARK  Name = 10200651
REMARK  5 active torsions:
REMARK  status: ('A' for Active; 'I' for Inactive)
REMARK    1  A    between atoms: C_1  and  C_7
REMARK    2  A    between atoms: C_4  and  C_22
REMARK    3  A    between atoms: C_10  and  C_17
REMARK    4  A    between atoms: N_21  and  C_24
REMARK    5  A    between atoms: C_27  and  C_31
REMARK                            x       y       z     vdW  Elec       q    Type
REMARK                         _______ _______ _______ _____ _____    ______ ____
ROOT
ATOM      1  C   UNL     1      35.750 -22.315 -16.846  0.00  0.00    -0.000 C 
ATOM      2  C   UNL     1      36.815 -21.416 -16.894  0.00  0.00    +0.000 C 
ATOM      3  C   UNL     1      34.855 -22.394 -17.913  0.00  0.00    +0.000 C 
ATOM      4  C   UNL     1      36.087 -20.694 -19.050  0.00  0.00    +0.054 C 
ATOM      5  C   UNL     1      36.986 -20.596 -18.009  0.00  0.00    +0.005 C 
ATOM      6  C   UNL     1      35.026 -21.574 -19.028  0.00  0.00    +0.005 C 
ENDROOT
BRANCH   1   7
ATOM      7  C   UNL     1      35.573 -23.167 -15.689  0.00  0.00    -0.004 C 
ATOM      8  C   UNL     1      36.670 -23.674 -14.992  0.00  0.00    -0.022 C 
ATOM      9  C   UNL     1      34.278 -23.480 -15.270  0.00  0.00    +0.004 C 
ATOM     10  C   UNL     1      34.082 -24.300 -14.158  0.00  0.00    +0.055 C 
ATOM     11  C   UNL     1      36.474 -24.494 -13.880  0.00  0.00    -0.004 C 
ATOM     12  C   UNL     1      35.181 -24.805 -13.463  0.00  0.00    +0.004 C 
ATOM     13  C   UNL     1      38.071 -23.362 -15.409  0.00  0.00    +0.031 C 
BRANCH  10  17
ATOM     14  O   UNL     1      31.770 -24.455 -14.658  0.00  0.00    -0.420 OA
ATOM     15  N   UNL     1      32.311 -25.055 -12.572  0.00  0.00    -0.107 NA
ATOM     16  N   UNL     1      30.944 -25.195 -12.715  0.00  0.00    -0.111 NA
ATOM     17  C   UNL     1      32.744 -24.623 -13.727  0.00  0.00    +0.250 A 
ATOM     18  C   UNL     1      30.672 -24.833 -13.947  0.00  0.00    +0.227 A 
ATOM     19  C   UNL     1      29.382 -24.782 -14.645  0.00  0.00    +0.097 C 
ENDBRANCH  10  17
ENDBRANCH   1   7
BRANCH   4  22
ATOM     20  O   UNL     1      37.416 -19.551 -20.580  0.00  0.00    -0.270 OA
ATOM     21  N   UNL     1      35.086 -19.403 -20.865  0.00  0.00    -0.280 N 
ATOM     22  C   UNL     1      36.269 -19.819 -20.238  0.00  0.00    +0.249 C 
ATOM     23  H   UNL     1      34.247 -19.713 -20.453  0.00  0.00    +0.155 HD
BRANCH  21  24
ATOM     24  C   UNL     1      34.951 -18.606 -22.003  0.00  0.00    +0.051 C 
ATOM     25  C   UNL     1      34.953 -17.217 -21.885  0.00  0.00    +0.025 C 
ATOM     26  C   UNL     1      34.815 -19.200 -23.257  0.00  0.00    +0.015 C 
ATOM     27  C   UNL     1      34.818 -16.420 -23.023  0.00  0.00    +0.070 C 
ATOM     28  C   UNL     1      34.679 -18.405 -24.395  0.00  0.00    +0.002 C 
ATOM     29  C   UNL     1      34.680 -17.015 -24.277  0.00  0.00    +0.010 C 
BRANCH  27  31
ATOM     30  N   UNL     1      34.819 -13.839 -22.806  0.00  0.00    -0.191 NA
ATOM     31  C   UNL     1      34.819 -14.997 -22.903  0.00  0.00    +0.100 C 
ENDBRANCH  27  31
ENDBRANCH  21  24
ENDBRANCH   4  22
TORSDOF 5
ENDMDL
MODEL 6
REMARK VINA RESULT:     -10.9      4.155     12.452
REMARK  Name = 10200651
REMARK  5 active torsions:
REMARK  status: ('A' for Active; 'I' for Inactive)
REMARK    1  A    between atoms: C_1  and  C_7
REMARK    2  A    between atoms: C_4  and  C_22
REMARK    3  A    between atoms: C_10  and  C_17
REMARK    4  A    between atoms: N_21  and  C_24
REMARK    5  A    between atoms: C_27  and  C_31
REMARK                            x       y       z     vdW  Elec       q    Type
REMARK                         _______ _______ _______ _____ _____    ______ ____
ROOT
ATOM      1  C   UNL     1      35.225 -19.157 -21.238  0.00  0.00    -0.000 C 
ATOM      2  C   UNL     1      36.524 -19.254 -20.739  0.00  0.00    +0.000 C 
ATOM      3  C   UNL     1      34.207 -19.938 -20.692  0.00  0.00    +0.000 C 
ATOM      4  C   UNL     1      35.780 -20.893 -19.171  0.00  0.00    +0.054 C 
ATOM      5  C   UNL     1      36.805 -20.132 -19.693  0.00  0.00    +0.005 C 
ATOM      6  C   UNL     1      34.488 -20.816 -19.646  0.00  0.00    +0.005 C 
ENDROOT
BRANCH   1   7
ATOM      7  C   UNL     1      34.934 -18.245 -22.324  0.00  0.00    -0.004 C 
ATOM      8  C   UNL     1      34.785 -18.706 -23.634  0.00  0.00    -0.022 C 
ATOM      9  C   UNL     1      34.800 -16.883 -22.049  0.00  0.00    +0.004 C 
ATOM     10  C   UNL     1      34.521 -15.984 -23.078  0.00  0.00    +0.055 C 
ATOM     11  C   UNL     1      34.506 -17.807 -24.664  0.00  0.00    -0.004 C 
ATOM     12  C   UNL     1      34.373 -16.447 -24.386  0.00  0.00    +0.004 C 
ATOM     13  C   UNL     1      34.921 -20.156 -23.970  0.00  0.00    +0.031 C 
BRANCH  10  17
ATOM     14  O   UNL     1      33.950 -13.807 -23.822  0.00  0.00    -0.420 OA
ATOM     15  N   UNL     1      34.615 -13.915 -21.689  0.00  0.00    -0.107 NA
ATOM     16  N   UNL     1      34.319 -12.596 -21.978  0.00  0.00    -0.111 NA
ATOM     17  C   UNL     1      34.385 -14.578 -22.792  0.00  0.00    +0.250 A 
ATOM     18  C   UNL     1      33.937 -12.580 -23.233  0.00  0.00    +0.227 A 
ATOM     19  C   UNL     1      33.506 -11.451 -24.067  0.00  0.00    +0.097 C 
ENDBRANCH  10  17
ENDBRANCH   1   7
BRANCH   4  22
ATOM     20  O   UNL     1      37.220 -22.273 -17.974  0.00  0.00    -0.270 OA
ATOM     21  N   UNL     1      35.012 -22.094 -17.188  0.00  0.00    -0.280 N 
ATOM     22  C   UNL     1      36.080 -21.830 -18.056  0.00  0.00    +0.249 C 
ATOM     23  H   UNL     1      34.159 -21.650 -17.406  0.00  0.00    +0.155 HD
BRANCH  21  24
ATOM     24  C   UNL     1      35.007 -22.906 -16.053  0.00  0.00    +0.051 C 
ATOM     25  C   UNL     1      36.183 -23.101 -15.330  0.00  0.00    +0.025 C 
ATOM     26  C   UNL     1      33.825 -23.521 -15.642  0.00  0.00    +0.015 C 
ATOM     27  C   UNL     1      36.178 -23.912 -14.195  0.00  0.00    +0.070 C 
ATOM     28  C   UNL     1      33.818 -24.333 -14.508  0.00  0.00    +0.002 C 
ATOM     29  C   UNL     1      34.995 -24.528 -13.785  0.00  0.00    +0.010 C 
BRANCH  27  31
ATOM     30  N   UNL     1      38.362 -24.276 -12.851  0.00  0.00    -0.191 NA
ATOM     31  C   UNL     1      37.382 -24.113 -13.454  0.00  0.00    +0.100 C 
ENDBRANCH  27  31
ENDBRANCH  21  24
ENDBRANCH   4  22
TORSDOF 5
ENDMDL
MODEL 7
REMARK VINA RESULT:     -10.9      2.245     11.141
REMARK  Name = 10200651
REMARK  5 active torsions:
REMARK  status: ('A' for Active; 'I' for Inactive)
REMARK    1  A    between atoms: C_1  and  C_7
REMARK    2  A    between atoms: C_4  and  C_22
REMARK    3  A    between atoms: C_10  and  C_17
REMARK    4  A    between atoms: N_21  and  C_24
REMARK    5  A    between atoms: C_27  and  C_31
REMARK                            x       y       z     vdW  Elec       q    Type
REMARK                         _______ _______ _______ _____ _____    ______ ____
ROOT
ATOM      1  C   UNL     1      32.460  -9.992 -22.448  0.00  0.00    -0.000 C 
ATOM      2  C   UNL     1      31.661 -11.063 -22.047  0.00  0.00    +0.000 C 
ATOM      3  C   UNL     1      33.567 -10.214 -23.266  0.00  0.00    +0.000 C 
ATOM      4  C   UNL     1      33.070 -12.550 -23.275  0.00  0.00    +0.054 C 
ATOM      5  C   UNL     1      31.969 -12.357 -22.466  0.00  0.00    +0.005 C 
ATOM      6  C   UNL     1      33.875 -11.508 -23.684  0.00  0.00    +0.005 C 
ENDROOT
BRANCH   1   7
ATOM      7  C   UNL     1      32.139  -8.649 -22.013  0.00  0.00    -0.004 C 
ATOM      8  C   UNL     1      32.096  -8.320 -20.657  0.00  0.00    -0.022 C 
ATOM      9  C   UNL     1      31.870  -7.672 -22.974  0.00  0.00    +0.004 C 
ATOM     10  C   UNL     1      31.557  -6.371 -22.580  0.00  0.00    +0.055 C 
ATOM     11  C   UNL     1      31.783  -7.019 -20.263  0.00  0.00    -0.004 C 
ATOM     12  C   UNL     1      31.515  -6.044 -21.224  0.00  0.00    +0.004 C 
ATOM     13  C   UNL     1      32.378  -9.337 -19.599  0.00  0.00    +0.031 C 
BRANCH  10  17
ATOM     14  O   UNL     1      32.035  -5.423 -24.700  0.00  0.00    -0.420 OA
ATOM     15  N   UNL     1      30.408  -4.388 -23.565  0.00  0.00    -0.107 NA
ATOM     16  N   UNL     1      30.574  -3.730 -24.769  0.00  0.00    -0.111 NA
ATOM     17  C   UNL     1      31.278  -5.363 -23.573  0.00  0.00    +0.250 A 
ATOM     18  C   UNL     1      31.534  -4.367 -25.397  0.00  0.00    +0.227 A 
ATOM     19  C   UNL     1      32.125  -4.106 -26.715  0.00  0.00    +0.097 C 
ENDBRANCH  10  17
ENDBRANCH   1   7
BRANCH   4  22
ATOM     20  O   UNL     1      33.051 -14.264 -24.847  0.00  0.00    -0.270 OA
ATOM     21  N   UNL     1      34.106 -14.708 -22.793  0.00  0.00    -0.280 N 
ATOM     22  C   UNL     1      33.399 -13.929 -23.720  0.00  0.00    +0.249 C 
ATOM     23  H   UNL     1      34.303 -14.277 -21.929  0.00  0.00    +0.155 HD
BRANCH  21  24
ATOM     24  C   UNL     1      34.566 -16.016 -22.943  0.00  0.00    +0.051 C 
ATOM     25  C   UNL     1      35.353 -16.598 -21.950  0.00  0.00    +0.025 C 
ATOM     26  C   UNL     1      34.240 -16.743 -24.088  0.00  0.00    +0.015 C 
ATOM     27  C   UNL     1      35.813 -17.906 -22.100  0.00  0.00    +0.070 C 
ATOM     28  C   UNL     1      34.699 -18.051 -24.240  0.00  0.00    +0.002 C 
ATOM     29  C   UNL     1      35.487 -18.632 -23.246  0.00  0.00    +0.010 C 
BRANCH  27  31
ATOM     30  N   UNL     1      37.275 -18.986 -20.254  0.00  0.00    -0.191 NA
ATOM     31  C   UNL     1      36.619 -18.502 -21.082  0.00  0.00    +0.100 C 
ENDBRANCH  27  31
ENDBRANCH  21  24
ENDBRANCH   4  22
TORSDOF 5
ENDMDL
MODEL 8
REMARK VINA RESULT:     -10.7      2.320     11.173
REMARK  Name = 10200651
REMARK  5 active torsions:
REMARK  status: ('A' for Active; 'I' for Inactive)
REMARK    1  A    between atoms: C_1  and  C_7
REMARK    2  A    between atoms: C_4  and  C_22
REMARK    3  A    between atoms: C_10  and  C_17
REMARK    4  A    between atoms: N_21  and  C_24
REMARK    5  A    between atoms: C_27  and  C_31
REMARK                            x       y       z     vdW  Elec       q    Type
REMARK                         _______ _______ _______ _____ _____    ______ ____
ROOT
ATOM      1  C   UNL     1      32.491  -8.873 -22.436  0.00  0.00    -0.000 C 
ATOM      2  C   UNL     1      31.647  -9.636 -21.628  0.00  0.00    +0.000 C 
ATOM      3  C   UNL     1      33.443  -9.499 -23.239  0.00  0.00    +0.000 C 
ATOM      4  C   UNL     1      32.707 -11.621 -22.428  0.00  0.00    +0.054 C 
ATOM      5  C   UNL     1      31.756 -11.026 -21.624  0.00  0.00    +0.005 C 
ATOM      6  C   UNL     1      33.552 -10.890 -23.235  0.00  0.00    +0.005 C 
ENDROOT
BRANCH   1   7
ATOM      7  C   UNL     1      32.378  -7.430 -22.439  0.00  0.00    -0.004 C 
ATOM      8  C   UNL     1      32.433  -6.699 -21.252  0.00  0.00    -0.022 C 
ATOM      9  C   UNL     1      32.210  -6.766 -23.656  0.00  0.00    +0.004 C 
ATOM     10  C   UNL     1      32.097  -5.376 -23.686  0.00  0.00    +0.055 C 
ATOM     11  C   UNL     1      32.320  -5.309 -21.281  0.00  0.00    -0.004 C 
ATOM     12  C   UNL     1      32.154  -4.647 -22.498  0.00  0.00    +0.004 C 
ATOM     13  C   UNL     1      32.611  -7.372 -19.929  0.00  0.00    +0.031 C 
BRANCH  10  17
ATOM     14  O   UNL     1      32.642  -5.186 -25.985  0.00  0.00    -0.420 OA
ATOM     15  N   UNL     1      31.180  -3.662 -25.248  0.00  0.00    -0.107 NA
ATOM     16  N   UNL     1      31.400  -3.427 -26.593  0.00  0.00    -0.111 NA
ATOM     17  C   UNL     1      31.924  -4.693 -24.944  0.00  0.00    +0.250 A 
ATOM     18  C   UNL     1      32.260  -4.339 -26.980  0.00  0.00    +0.227 A 
ATOM     19  C   UNL     1      32.850  -4.567 -28.304  0.00  0.00    +0.097 C 
ENDBRANCH  10  17
ENDBRANCH   1   7
BRANCH   4  22
ATOM     20  O   UNL     1      31.944 -13.743 -21.857  0.00  0.00    -0.270 OA
ATOM     21  N   UNL     1      33.937 -13.621 -23.098  0.00  0.00    -0.280 N 
ATOM     22  C   UNL     1      32.823 -13.103 -22.423  0.00  0.00    +0.249 C 
ATOM     23  H   UNL     1      34.546 -12.958 -23.497  0.00  0.00    +0.155 HD
BRANCH  21  24
ATOM     24  C   UNL     1      34.287 -14.960 -23.277  0.00  0.00    +0.051 C 
ATOM     25  C   UNL     1      34.893 -15.667 -22.239  0.00  0.00    +0.025 C 
ATOM     26  C   UNL     1      34.031 -15.591 -24.494  0.00  0.00    +0.015 C 
ATOM     27  C   UNL     1      35.244 -17.006 -22.418  0.00  0.00    +0.070 C 
ATOM     28  C   UNL     1      34.381 -16.929 -24.674  0.00  0.00    +0.002 C 
ATOM     29  C   UNL     1      34.988 -17.636 -23.636  0.00  0.00    +0.010 C 
BRANCH  27  31
ATOM     30  N   UNL     1      36.370 -18.320 -20.492  0.00  0.00    -0.191 NA
ATOM     31  C   UNL     1      35.865 -17.731 -21.356  0.00  0.00    +0.100 C 
ENDBRANCH  27  31
ENDBRANCH  21  24
ENDBRANCH   4  22
TORSDOF 5
ENDMDL
MODEL 9
REMARK VINA RESULT:     -10.6      4.578     12.311
REMARK  Name = 10200651
REMARK  5 active torsions:
REMARK  status: ('A' for Active; 'I' for Inactive)
REMARK    1  A    between atoms: C_1  and  C_7
REMARK    2  A    between atoms: C_4  and  C_22
REMARK    3  A    between atoms: C_10  and  C_17
REMARK    4  A    between atoms: N_21  and  C_24
REMARK    5  A    between atoms: C_27  and  C_31
REMARK                            x       y       z     vdW  Elec       q    Type
REMARK                         _______ _______ _______ _____ _____    ______ ____
ROOT
ATOM      1  C   UNL     1      34.576 -19.612 -20.993  0.00  0.00    -0.000 C 
ATOM      2  C   UNL     1      33.331 -20.040 -20.533  0.00  0.00    +0.000 C 
ATOM      3  C   UNL     1      35.743 -20.095 -20.403  0.00  0.00    +0.000 C 
ATOM      4  C   UNL     1      34.423 -21.417 -18.915  0.00  0.00    +0.054 C 
ATOM      5  C   UNL     1      33.254 -20.954 -19.481  0.00  0.00    +0.005 C 
ATOM      6  C   UNL     1      35.666 -21.009 -19.352  0.00  0.00    +0.005 C 
ENDROOT
BRANCH   1   7
ATOM      7  C   UNL     1      34.657 -18.664 -22.084  0.00  0.00    -0.004 C 
ATOM      8  C   UNL     1      34.826 -19.092 -23.402  0.00  0.00    -0.022 C 
ATOM      9  C   UNL     1      34.562 -17.299 -21.804  0.00  0.00    +0.004 C 
ATOM     10  C   UNL     1      34.638 -16.366 -22.838  0.00  0.00    +0.055 C 
ATOM     11  C   UNL     1      34.902 -18.159 -24.436  0.00  0.00    -0.004 C 
ATOM     12  C   UNL     1      34.807 -16.797 -24.155  0.00  0.00    +0.004 C 
ATOM     13  C   UNL     1      34.931 -20.544 -23.742  0.00  0.00    +0.031 C 
BRANCH  10  17
ATOM     14  O   UNL     1      34.167 -14.166 -23.587  0.00  0.00    -0.420 OA
ATOM     15  N   UNL     1      34.760 -14.308 -21.435  0.00  0.00    -0.107 NA
ATOM     16  N   UNL     1      34.519 -12.978 -21.725  0.00  0.00    -0.111 NA
ATOM     17  C   UNL     1      34.541 -14.957 -22.548  0.00  0.00    +0.250 A 
ATOM     18  C   UNL     1      34.177 -12.943 -22.991  0.00  0.00    +0.227 A 
ATOM     19  C   UNL     1      33.813 -11.796 -23.831  0.00  0.00    +0.097 C 
ENDBRANCH  10  17
ENDBRANCH   1   7
BRANCH   4  22
ATOM     20  O   UNL     1      35.327 -23.079 -17.562  0.00  0.00    -0.270 OA
ATOM     21  N   UNL     1      33.126 -22.398 -17.094  0.00  0.00    -0.280 N 
ATOM     22  C   UNL     1      34.340 -22.389 -17.794  0.00  0.00    +0.249 C 
ATOM     23  H   UNL     1      32.436 -21.774 -17.419  0.00  0.00    +0.155 HD
BRANCH  21  24
ATOM     24  C   UNL     1      32.774 -23.180 -15.993  0.00  0.00    +0.051 C 
ATOM     25  C   UNL     1      31.455 -23.600 -15.829  0.00  0.00    +0.025 C 
ATOM     26  C   UNL     1      33.743 -23.541 -15.057  0.00  0.00    +0.015 C 
ATOM     27  C   UNL     1      31.103 -24.382 -14.728  0.00  0.00    +0.070 C 
ATOM     28  C   UNL     1      33.392 -24.321 -13.955  0.00  0.00    +0.002 C 
ATOM     29  C   UNL     1      32.072 -24.741 -13.791  0.00  0.00    +0.010 C 
BRANCH  27  31
ATOM     30  N   UNL     1      28.653 -25.164 -14.422  0.00  0.00    -0.191 NA
ATOM     31  C   UNL     1      29.752 -24.813 -14.559  0.00  0.00    +0.100 C 
ENDBRANCH  27  31
ENDBRANCH  21  24
ENDBRANCH   4  22
TORSDOF 5
ENDMDL
