MODEL 1
REMARK VINA RESULT:     -11.7      0.000      0.000
REMARK  Name = 24779675
REMARK  4 active torsions:
REMARK  status: ('A' for Active; 'I' for Inactive)
REMARK    1  A    between atoms: N_1  and  C_22
REMARK    2  A    between atoms: N_5  and  C_14
REMARK    3  A    between atoms: C_10  and  C_21
REMARK    4  A    between atoms: C_22  and  C_23
REMARK                            x       y       z     vdW  Elec       q    Type
REMARK                         _______ _______ _______ _____ _____    ______ ____
ROOT
ATOM      1  N   UNL     1      34.207 -22.797 -17.559  0.00  0.00    -0.259 N 
ATOM      2  N   UNL     1      32.425 -22.978 -16.120  0.00  0.00    -0.314 NA
ATOM      3  N   UNL     1      34.555 -23.869 -15.510  0.00  0.00    -0.295 NA
ATOM      4  N   UNL     1      32.792 -24.059 -14.062  0.00  0.00    -0.123 N 
ATOM      5  N   UNL     1      34.885 -24.950 -13.426  0.00  0.00    -0.274 N 
ATOM      6  N   UNL     1      32.209 -24.440 -12.912  0.00  0.00    -0.170 NA
ATOM      7  C   UNL     1      33.692 -23.211 -16.382  0.00  0.00    +0.203 C 
ATOM      8  C   UNL     1      31.958 -23.412 -14.927  0.00  0.00    +0.219 C 
ATOM      9  C   UNL     1      34.126 -24.295 -14.358  0.00  0.00    +0.279 C 
ATOM     10  C   UNL     1      30.736 -23.366 -14.293  0.00  0.00    +0.203 C 
ATOM     11  C   UNL     1      30.951 -24.012 -13.060  0.00  0.00    +0.116 C 
ATOM     12  H   UNL     1      35.156 -22.977 -17.744  0.00  0.00    +0.160 HD
ATOM     13  H   UNL     1      34.428 -25.216 -12.596  0.00  0.00    +0.156 HD
ENDROOT
BRANCH   5  14
ATOM     14  C   UNL     1      36.237 -25.282 -13.530  0.00  0.00    +0.051 C 
ATOM     15  C   UNL     1      37.185 -24.581 -12.785  0.00  0.00    +0.015 C 
ATOM     16  C   UNL     1      36.639 -26.314 -14.378  0.00  0.00    +0.015 C 
ATOM     17  C   UNL     1      38.537 -24.911 -12.888  0.00  0.00    +0.001 C 
ATOM     18  C   UNL     1      37.991 -26.644 -14.481  0.00  0.00    +0.001 C 
ATOM     19  C   UNL     1      38.939 -25.943 -13.737  0.00  0.00    +0.000 C 
ENDBRANCH   5  14
BRANCH  10  21
ATOM     20  N   UNL     1      28.562 -22.316 -15.207  0.00  0.00    -0.195 NA
ATOM     21  C   UNL     1      29.539 -22.789 -14.796  0.00  0.00    +0.087 C 
ENDBRANCH  10  21
BRANCH   1  22
ATOM     22  C   UNL     1      33.434 -22.105 -18.558  0.00  0.00    +0.099 C 
BRANCH  22  23
ATOM     23  C   UNL     1      34.370 -21.496 -19.601  0.00  0.00    +0.020 C 
ATOM     24  C   UNL     1      33.729 -20.260 -20.246  0.00  0.00    +0.002 C 
ATOM     25  C   UNL     1      35.725 -21.144 -18.974  0.00  0.00    +0.002 C 
ATOM     26  C   UNL     1      34.666 -19.600 -21.255  0.00  0.00    +0.000 C 
ATOM     27  C   UNL     1      36.659 -20.483 -19.985  0.00  0.00    +0.000 C 
ATOM     28  C   UNL     1      36.016 -19.260 -20.631  0.00  0.00    +0.000 C 
ENDBRANCH  22  23
ENDBRANCH   1  22
TORSDOF 4
ENDMDL
MODEL 2
REMARK VINA RESULT:     -10.9      1.433      5.537
REMARK  Name = 24779675
REMARK  4 active torsions:
REMARK  status: ('A' for Active; 'I' for Inactive)
REMARK    1  A    between atoms: N_1  and  C_22
REMARK    2  A    between atoms: N_5  and  C_14
REMARK    3  A    between atoms: C_10  and  C_21
REMARK    4  A    between atoms: C_22  and  C_23
REMARK                            x       y       z     vdW  Elec       q    Type
REMARK                         _______ _______ _______ _____ _____    ______ ____
ROOT
ATOM      1  N   UNL     1      34.487 -22.501 -17.494  0.00  0.00    -0.259 N 
ATOM      2  N   UNL     1      35.425 -23.304 -15.557  0.00  0.00    -0.314 NA
ATOM      3  N   UNL     1      33.050 -23.244 -15.805  0.00  0.00    -0.295 NA
ATOM      4  N   UNL     1      33.965 -24.049 -13.868  0.00  0.00    -0.123 N 
ATOM      5  N   UNL     1      31.614 -24.004 -14.079  0.00  0.00    -0.274 N 
ATOM      6  N   UNL     1      33.908 -24.574 -12.631  0.00  0.00    -0.170 NA
ATOM      7  C   UNL     1      34.348 -23.027 -16.259  0.00  0.00    +0.203 C 
ATOM      8  C   UNL     1      35.232 -23.831 -14.326  0.00  0.00    +0.219 C 
ATOM      9  C   UNL     1      32.843 -23.749 -14.624  0.00  0.00    +0.279 C 
ATOM     10  C   UNL     1      36.066 -24.247 -13.312  0.00  0.00    +0.203 C 
ATOM     11  C   UNL     1      35.196 -24.694 -12.297  0.00  0.00    +0.116 C 
ATOM     12  H   UNL     1      33.674 -22.298 -18.010  0.00  0.00    +0.160 HD
ATOM     13  H   UNL     1      31.605 -24.388 -13.173  0.00  0.00    +0.156 HD
ENDROOT
BRANCH   5  14
ATOM     14  C   UNL     1      30.371 -23.776 -14.673  0.00  0.00    +0.051 C 
ATOM     15  C   UNL     1      29.764 -24.781 -15.427  0.00  0.00    +0.015 C 
ATOM     16  C   UNL     1      29.736 -22.545 -14.511  0.00  0.00    +0.015 C 
ATOM     17  C   UNL     1      28.522 -24.554 -16.022  0.00  0.00    +0.001 C 
ATOM     18  C   UNL     1      28.494 -22.318 -15.105  0.00  0.00    +0.001 C 
ATOM     19  C   UNL     1      27.887 -23.322 -15.860  0.00  0.00    +0.000 C 
ENDBRANCH   5  14
BRANCH  10  21
ATOM     20  N   UNL     1      38.647 -24.200 -13.317  0.00  0.00    -0.195 NA
ATOM     21  C   UNL     1      37.486 -24.220 -13.315  0.00  0.00    +0.087 C 
ENDBRANCH  10  21
BRANCH   1  22
ATOM     22  C   UNL     1      35.766 -22.222 -18.093  0.00  0.00    +0.099 C 
BRANCH  22  23
ATOM     23  C   UNL     1      35.565 -21.466 -19.406  0.00  0.00    +0.020 C 
ATOM     24  C   UNL     1      34.122 -20.957 -19.522  0.00  0.00    +0.002 C 
ATOM     25  C   UNL     1      36.563 -20.307 -19.522  0.00  0.00    +0.002 C 
ATOM     26  C   UNL     1      33.909 -20.152 -20.802  0.00  0.00    +0.000 C 
ATOM     27  C   UNL     1      36.346 -19.503 -20.802  0.00  0.00    +0.000 C 
ATOM     28  C   UNL     1      34.908 -19.006 -20.919  0.00  0.00    +0.000 C 
ENDBRANCH  22  23
ENDBRANCH   1  22
TORSDOF 4
ENDMDL
MODEL 3
REMARK VINA RESULT:     -10.6      1.723      5.482
REMARK  Name = 24779675
REMARK  4 active torsions:
REMARK  status: ('A' for Active; 'I' for Inactive)
REMARK    1  A    between atoms: N_1  and  C_22
REMARK    2  A    between atoms: N_5  and  C_14
REMARK    3  A    between atoms: C_10  and  C_21
REMARK    4  A    between atoms: C_22  and  C_23
REMARK                            x       y       z     vdW  Elec       q    Type
REMARK                         _______ _______ _______ _____ _____    ______ ____
ROOT
ATOM      1  N   UNL     1      35.685 -22.238 -17.003  0.00  0.00    -0.259 N 
ATOM      2  N   UNL     1      37.027 -23.490 -15.621  0.00  0.00    -0.314 NA
ATOM      3  N   UNL     1      34.663 -23.451 -15.285  0.00  0.00    -0.295 NA
ATOM      4  N   UNL     1      35.983 -24.706 -13.898  0.00  0.00    -0.123 N 
ATOM      5  N   UNL     1      33.650 -24.691 -13.537  0.00  0.00    -0.274 N 
ATOM      6  N   UNL     1      36.202 -25.541 -12.867  0.00  0.00    -0.170 NA
ATOM      7  C   UNL     1      35.824 -23.076 -15.955  0.00  0.00    +0.203 C 
ATOM      8  C   UNL     1      37.114 -24.330 -14.564  0.00  0.00    +0.219 C 
ATOM      9  C   UNL     1      34.724 -24.258 -14.265  0.00  0.00    +0.279 C 
ATOM     10  C   UNL     1      38.149 -24.968 -13.920  0.00  0.00    +0.203 C 
ATOM     11  C   UNL     1      37.529 -25.698 -12.887  0.00  0.00    +0.116 C 
ATOM     12  H   UNL     1      34.780 -21.935 -17.243  0.00  0.00    +0.160 HD
ATOM     13  H   UNL     1      33.843 -25.301 -12.788  0.00  0.00    +0.156 HD
ENDROOT
BRANCH   5  14
ATOM     14  C   UNL     1      32.309 -24.360 -13.742  0.00  0.00    +0.051 C 
ATOM     15  C   UNL     1      31.953 -23.043 -14.030  0.00  0.00    +0.015 C 
ATOM     16  C   UNL     1      31.327 -25.347 -13.659  0.00  0.00    +0.015 C 
ATOM     17  C   UNL     1      30.613 -22.711 -14.234  0.00  0.00    +0.001 C 
ATOM     18  C   UNL     1      29.987 -25.015 -13.864  0.00  0.00    +0.001 C 
ATOM     19  C   UNL     1      29.630 -23.698 -14.152  0.00  0.00    +0.000 C 
ENDBRANCH   5  14
BRANCH  10  21
ATOM     20  N   UNL     1      40.658 -24.825 -14.512  0.00  0.00    -0.195 NA
ATOM     21  C   UNL     1      39.530 -24.890 -14.246  0.00  0.00    +0.087 C 
ENDBRANCH  10  21
BRANCH   1  22
ATOM     22  C   UNL     1      36.795 -21.765 -17.788  0.00  0.00    +0.099 C 
BRANCH  22  23
ATOM     23  C   UNL     1      36.292 -21.262 -19.140  0.00  0.00    +0.020 C 
ATOM     24  C   UNL     1      34.759 -21.179 -19.150  0.00  0.00    +0.002 C 
ATOM     25  C   UNL     1      36.914 -19.901 -19.478  0.00  0.00    +0.002 C 
ATOM     26  C   UNL     1      34.233 -20.628 -20.474  0.00  0.00    +0.000 C 
ATOM     27  C   UNL     1      36.385 -19.352 -20.801  0.00  0.00    +0.000 C 
ATOM     28  C   UNL     1      34.861 -19.280 -20.811  0.00  0.00    +0.000 C 
ENDBRANCH  22  23
ENDBRANCH   1  22
TORSDOF 4
ENDMDL
MODEL 4
REMARK VINA RESULT:     -10.5      1.729      7.183
REMARK  Name = 24779675
REMARK  4 active torsions:
REMARK  status: ('A' for Active; 'I' for Inactive)
REMARK    1  A    between atoms: N_1  and  C_22
REMARK    2  A    between atoms: N_5  and  C_14
REMARK    3  A    between atoms: C_10  and  C_21
REMARK    4  A    between atoms: C_22  and  C_23
REMARK                            x       y       z     vdW  Elec       q    Type
REMARK                         _______ _______ _______ _____ _____    ______ ____
ROOT
ATOM      1  N   UNL     1      32.976 -22.994 -14.448  0.00  0.00    -0.259 N 
ATOM      2  N   UNL     1      35.053 -23.705 -13.769  0.00  0.00    -0.314 NA
ATOM      3  N   UNL     1      34.793 -22.587 -15.864  0.00  0.00    -0.295 NA
ATOM      4  N   UNL     1      36.870 -23.288 -15.204  0.00  0.00    -0.123 N 
ATOM      5  N   UNL     1      36.650 -22.186 -17.281  0.00  0.00    -0.274 N 
ATOM      6  N   UNL     1      38.197 -23.443 -15.355  0.00  0.00    -0.170 NA
ATOM      7  C   UNL     1      34.302 -23.112 -14.671  0.00  0.00    +0.203 C 
ATOM      8  C   UNL     1      36.375 -23.797 -14.039  0.00  0.00    +0.219 C 
ATOM      9  C   UNL     1      36.062 -22.666 -16.143  0.00  0.00    +0.279 C 
ATOM     10  C   UNL     1      37.462 -24.324 -13.377  0.00  0.00    +0.203 C 
ATOM     11  C   UNL     1      38.553 -24.077 -14.233  0.00  0.00    +0.116 C 
ATOM     12  H   UNL     1      32.425 -22.547 -15.130  0.00  0.00    +0.160 HD
ATOM     13  H   UNL     1      37.623 -22.315 -17.362  0.00  0.00    +0.156 HD
ENDROOT
BRANCH   5  14
ATOM     14  C   UNL     1      36.017 -21.532 -18.340  0.00  0.00    +0.051 C 
ATOM     15  C   UNL     1      34.678 -21.799 -18.623  0.00  0.00    +0.015 C 
ATOM     16  C   UNL     1      36.725 -20.613 -19.115  0.00  0.00    +0.015 C 
ATOM     17  C   UNL     1      34.045 -21.147 -19.682  0.00  0.00    +0.001 C 
ATOM     18  C   UNL     1      36.092 -19.961 -20.173  0.00  0.00    +0.001 C 
ATOM     19  C   UNL     1      34.753 -20.228 -20.457  0.00  0.00    +0.000 C 
ENDBRANCH   5  14
BRANCH  10  21
ATOM     20  N   UNL     1      37.450 -25.495 -11.077  0.00  0.00    -0.195 NA
ATOM     21  C   UNL     1      37.455 -24.969 -12.112  0.00  0.00    +0.087 C 
ENDBRANCH  10  21
BRANCH   1  22
ATOM     22  C   UNL     1      32.329 -23.488 -13.261  0.00  0.00    +0.099 C 
BRANCH  22  23
ATOM     23  C   UNL     1      30.844 -23.712 -13.541  0.00  0.00    +0.020 C 
ATOM     24  C   UNL     1      30.354 -22.773 -14.651  0.00  0.00    +0.002 C 
ATOM     25  C   UNL     1      30.577 -25.178 -13.908  0.00  0.00    +0.002 C 
ATOM     26  C   UNL     1      28.884 -23.015 -14.987  0.00  0.00    +0.000 C 
ATOM     27  C   UNL     1      29.106 -25.416 -14.245  0.00  0.00    +0.000 C 
ATOM     28  C   UNL     1      28.620 -24.474 -15.343  0.00  0.00    +0.000 C 
ENDBRANCH  22  23
ENDBRANCH   1  22
TORSDOF 4
ENDMDL
MODEL 5
REMARK VINA RESULT:      -9.9      1.317      6.431
REMARK  Name = 24779675
REMARK  4 active torsions:
REMARK  status: ('A' for Active; 'I' for Inactive)
REMARK    1  A    between atoms: N_1  and  C_22
REMARK    2  A    between atoms: N_5  and  C_14
REMARK    3  A    between atoms: C_10  and  C_21
REMARK    4  A    between atoms: C_22  and  C_23
REMARK                            x       y       z     vdW  Elec       q    Type
REMARK                         _______ _______ _______ _____ _____    ______ ____
ROOT
ATOM      1  N   UNL     1      35.535 -23.000 -14.544  0.00  0.00    -0.259 N 
ATOM      2  N   UNL     1      33.315 -23.544 -14.312  0.00  0.00    -0.314 NA
ATOM      3  N   UNL     1      34.098 -22.529 -16.328  0.00  0.00    -0.295 NA
ATOM      4  N   UNL     1      31.882 -23.064 -16.116  0.00  0.00    -0.123 N 
ATOM      5  N   UNL     1      32.622 -22.062 -18.123  0.00  0.00    -0.274 N 
ATOM      6  N   UNL     1      30.610 -23.137 -16.546  0.00  0.00    -0.170 NA
ATOM      7  C   UNL     1      34.283 -23.038 -15.045  0.00  0.00    +0.203 C 
ATOM      8  C   UNL     1      32.078 -23.560 -14.860  0.00  0.00    +0.219 C 
ATOM      9  C   UNL     1      32.916 -22.534 -16.872  0.00  0.00    +0.279 C 
ATOM     10  C   UNL     1      30.841 -23.991 -14.438  0.00  0.00    +0.203 C 
ATOM     11  C   UNL     1      29.978 -23.705 -15.515  0.00  0.00    +0.116 C 
ATOM     12  H   UNL     1      36.251 -22.619 -15.102  0.00  0.00    +0.160 HD
ATOM     13  H   UNL     1      31.682 -22.129 -18.408  0.00  0.00    +0.156 HD
ENDROOT
BRANCH   5  14
ATOM     14  C   UNL     1      33.513 -21.495 -19.036  0.00  0.00    +0.051 C 
ATOM     15  C   UNL     1      34.841 -21.921 -19.070  0.00  0.00    +0.015 C 
ATOM     16  C   UNL     1      33.075 -20.503 -19.913  0.00  0.00    +0.015 C 
ATOM     17  C   UNL     1      35.732 -21.354 -19.982  0.00  0.00    +0.001 C 
ATOM     18  C   UNL     1      33.966 -19.937 -20.825  0.00  0.00    +0.001 C 
ATOM     19  C   UNL     1      35.294 -20.362 -20.859  0.00  0.00    +0.000 C 
ENDBRANCH   5  14
BRANCH  10  21
ATOM     20  N   UNL     1      30.275 -25.075 -12.165  0.00  0.00    -0.195 NA
ATOM     21  C   UNL     1      30.529 -24.587 -13.186  0.00  0.00    +0.087 C 
ENDBRANCH  10  21
BRANCH   1  22
ATOM     22  C   UNL     1      35.875 -23.489 -13.233  0.00  0.00    +0.099 C 
BRANCH  22  23
ATOM     23  C   UNL     1      37.312 -24.007 -13.235  0.00  0.00    +0.020 C 
ATOM     24  C   UNL     1      37.377 -25.424 -12.649  0.00  0.00    +0.002 C 
ATOM     25  C   UNL     1      37.899 -23.975 -14.653  0.00  0.00    +0.002 C 
ATOM     26  C   UNL     1      38.796 -25.987 -12.689  0.00  0.00    +0.000 C 
ATOM     27  C   UNL     1      39.317 -24.541 -14.689  0.00  0.00    +0.000 C 
ATOM     28  C   UNL     1      39.379 -25.946 -14.097  0.00  0.00    +0.000 C 
ENDBRANCH  22  23
ENDBRANCH   1  22
TORSDOF 4
ENDMDL
MODEL 6
REMARK VINA RESULT:      -9.7      1.749      7.318
REMARK  Name = 24779675
REMARK  4 active torsions:
REMARK  status: ('A' for Active; 'I' for Inactive)
REMARK    1  A    between atoms: N_1  and  C_22
REMARK    2  A    between atoms: N_5  and  C_14
REMARK    3  A    between atoms: C_10  and  C_21
REMARK    4  A    between atoms: C_22  and  C_23
REMARK                            x       y       z     vdW  Elec       q    Type
REMARK                         _______ _______ _______ _____ _____    ______ ____
ROOT
ATOM      1  N   UNL     1      35.699 -23.433 -15.324  0.00  0.00    -0.259 N 
ATOM      2  N   UNL     1      35.488 -22.257 -17.287  0.00  0.00    -0.314 NA
ATOM      3  N   UNL     1      33.550 -23.130 -16.198  0.00  0.00    -0.295 NA
ATOM      4  N   UNL     1      33.320 -21.961 -18.152  0.00  0.00    -0.123 N 
ATOM      5  N   UNL     1      31.382 -22.810 -17.102  0.00  0.00    -0.274 N 
ATOM      6  N   UNL     1      32.613 -21.420 -19.161  0.00  0.00    -0.170 NA
ATOM      7  C   UNL     1      34.923 -22.919 -16.302  0.00  0.00    +0.203 C 
ATOM      8  C   UNL     1      34.666 -21.761 -18.241  0.00  0.00    +0.219 C 
ATOM      9  C   UNL     1      32.743 -22.663 -17.105  0.00  0.00    +0.279 C 
ATOM     10  C   UNL     1      34.855 -21.033 -19.394  0.00  0.00    +0.203 C 
ATOM     11  C   UNL     1      33.558 -20.854 -19.917  0.00  0.00    +0.116 C 
ATOM     12  H   UNL     1      35.264 -23.926 -14.593  0.00  0.00    +0.160 HD
ATOM     13  H   UNL     1      30.894 -22.403 -17.854  0.00  0.00    +0.156 HD
ENDROOT
BRANCH   5  14
ATOM     14  C   UNL     1      30.614 -23.476 -16.146  0.00  0.00    +0.051 C 
ATOM     15  C   UNL     1      29.231 -23.293 -16.112  0.00  0.00    +0.015 C 
ATOM     16  C   UNL     1      31.228 -24.324 -15.224  0.00  0.00    +0.015 C 
ATOM     17  C   UNL     1      28.462 -23.958 -15.155  0.00  0.00    +0.001 C 
ATOM     18  C   UNL     1      30.459 -24.989 -14.269  0.00  0.00    +0.001 C 
ATOM     19  C   UNL     1      29.077 -24.806 -14.234  0.00  0.00    +0.000 C 
ENDBRANCH   5  14
BRANCH  10  21
ATOM     20  N   UNL     1      37.105 -20.205 -20.349  0.00  0.00    -0.195 NA
ATOM     21  C   UNL     1      36.093 -20.578 -19.920  0.00  0.00    +0.087 C 
ENDBRANCH  10  21
BRANCH   1  22
ATOM     22  C   UNL     1      37.131 -23.294 -15.300  0.00  0.00    +0.099 C 
BRANCH  22  23
ATOM     23  C   UNL     1      37.723 -24.251 -14.267  0.00  0.00    +0.020 C 
ATOM     24  C   UNL     1      37.396 -23.780 -12.844  0.00  0.00    +0.002 C 
ATOM     25  C   UNL     1      37.217 -25.680 -14.500  0.00  0.00    +0.002 C 
ATOM     26  C   UNL     1      37.931 -24.750 -11.792  0.00  0.00    +0.000 C 
ATOM     27  C   UNL     1      37.753 -26.647 -13.446  0.00  0.00    +0.000 C 
ATOM     28  C   UNL     1      37.434 -26.171 -12.031  0.00  0.00    +0.000 C 
ENDBRANCH  22  23
ENDBRANCH   1  22
TORSDOF 4
ENDMDL
MODEL 7
REMARK VINA RESULT:      -8.7     12.152     16.751
REMARK  Name = 24779675
REMARK  4 active torsions:
REMARK  status: ('A' for Active; 'I' for Inactive)
REMARK    1  A    between atoms: N_1  and  C_22
REMARK    2  A    between atoms: N_5  and  C_14
REMARK    3  A    between atoms: C_10  and  C_21
REMARK    4  A    between atoms: C_22  and  C_23
REMARK                            x       y       z     vdW  Elec       q    Type
REMARK                         _______ _______ _______ _____ _____    ______ ____
ROOT
ATOM      1  N   UNL     1      32.839 -11.128 -23.741  0.00  0.00    -0.259 N 
ATOM      2  N   UNL     1      32.493 -10.130 -21.701  0.00  0.00    -0.314 NA
ATOM      3  N   UNL     1      33.195  -8.823 -23.573  0.00  0.00    -0.295 NA
ATOM      4  N   UNL     1      32.855  -7.810 -21.548  0.00  0.00    -0.123 N 
ATOM      5  N   UNL     1      33.548  -6.487 -23.377  0.00  0.00    -0.274 N 
ATOM      6  N   UNL     1      32.825  -6.755 -20.714  0.00  0.00    -0.170 NA
ATOM      7  C   UNL     1      32.833 -10.023 -22.966  0.00  0.00    +0.203 C 
ATOM      8  C   UNL     1      32.502  -8.993 -20.967  0.00  0.00    +0.219 C 
ATOM      9  C   UNL     1      33.211  -7.718 -22.884  0.00  0.00    +0.279 C 
ATOM     10  C   UNL     1      32.219  -8.689 -19.655  0.00  0.00    +0.203 C 
ATOM     11  C   UNL     1      32.435  -7.299 -19.558  0.00  0.00    +0.116 C 
ATOM     12  H   UNL     1      33.094 -11.035 -24.686  0.00  0.00    +0.160 HD
ATOM     13  H   UNL     1      33.517  -5.735 -22.742  0.00  0.00    +0.156 HD
ENDROOT
BRANCH   5  14
ATOM     14  C   UNL     1      33.932  -6.184 -24.685  0.00  0.00    +0.051 C 
ATOM     15  C   UNL     1      35.265  -5.887 -24.969  0.00  0.00    +0.015 C 
ATOM     16  C   UNL     1      32.982  -6.178 -25.707  0.00  0.00    +0.015 C 
ATOM     17  C   UNL     1      35.649  -5.583 -26.276  0.00  0.00    +0.001 C 
ATOM     18  C   UNL     1      33.366  -5.874 -27.013  0.00  0.00    +0.001 C 
ATOM     19  C   UNL     1      34.699  -5.577 -27.297  0.00  0.00    +0.000 C 
ENDBRANCH   5  14
BRANCH  10  21
ATOM     20  N   UNL     1      31.465 -10.335 -17.815  0.00  0.00    -0.195 NA
ATOM     21  C   UNL     1      31.805  -9.594 -18.642  0.00  0.00    +0.087 C 
ENDBRANCH  10  21
BRANCH   1  22
ATOM     22  C   UNL     1      32.489 -12.436 -23.252  0.00  0.00    +0.099 C 
BRANCH  22  23
ATOM     23  C   UNL     1      33.550 -13.447 -23.681  0.00  0.00    +0.020 C 
ATOM     24  C   UNL     1      34.063 -14.240 -22.472  0.00  0.00    +0.002 C 
ATOM     25  C   UNL     1      32.997 -14.389 -24.758  0.00  0.00    +0.002 C 
ATOM     26  C   UNL     1      35.088 -15.295 -22.882  0.00  0.00    +0.000 C 
ATOM     27  C   UNL     1      34.024 -15.445 -25.165  0.00  0.00    +0.000 C 
ATOM     28  C   UNL     1      34.538 -16.225 -23.959  0.00  0.00    +0.000 C 
ENDBRANCH  22  23
ENDBRANCH   1  22
TORSDOF 4
ENDMDL
