MODEL 1
REMARK VINA RESULT:     -11.7      0.000      0.000
REMARK  Name = 448890
REMARK  6 active torsions:
REMARK  status: ('A' for Active; 'I' for Inactive)
REMARK    1  A    between atoms: C_1  and  C_2
REMARK    2  A    between atoms: C_1  and  C_17
REMARK    3  A    between atoms: C_2  and  C_3
REMARK    4  A    between atoms: C_3  and  N_4
REMARK    5  A    between atoms: C_8  and  C_11
REMARK    6  A    between atoms: C_17  and  N_21
REMARK                            x       y       z     vdW  Elec       q    Type
REMARK                         _______ _______ _______ _____ _____    ______ ____
ROOT
ATOM      1  C   UNL     1      33.673 -23.547 -15.894  0.00  0.00    +0.022 C 
ENDROOT
BRANCH   1   2
ATOM      2  C   UNL     1      33.632 -22.825 -17.244  0.00  0.00    -0.021 C 
BRANCH   2   3
ATOM      3  C   UNL     1      35.043 -22.533 -17.755  0.00  0.00    -0.077 C 
BRANCH   3   4
ATOM      4  N   UNL     1      35.034 -21.358 -18.624  0.00  0.00    +0.390 N 
ATOM      5  C   UNL     1      36.198 -21.351 -19.515  0.00  0.00    -0.072 C 
ATOM      6  C   UNL     1      33.786 -21.293 -19.400  0.00  0.00    -0.051 C 
ATOM      7  C   UNL     1      36.251 -20.028 -20.294  0.00  0.00    +0.003 C 
ATOM      8  C   UNL     1      34.923 -19.656 -20.915  0.00  0.00    -0.031 C 
ATOM      9  C   UNL     1      33.794 -20.254 -20.489  0.00  0.00    -0.053 C 
ATOM     10  H   UNL     1      35.087 -20.529 -18.031  0.00  0.00    -0.079 HD
BRANCH   8  11
ATOM     11  C   UNL     1      34.910 -18.627 -21.982  0.00  0.00    -0.004 C 
ATOM     12  C   UNL     1      34.488 -18.959 -23.271  0.00  0.00    -0.000 C 
ATOM     13  C   UNL     1      35.319 -17.321 -21.702  0.00  0.00    -0.000 C 
ATOM     14  C   UNL     1      34.475 -17.990 -24.275  0.00  0.00    -0.000 C 
ATOM     15  C   UNL     1      35.306 -16.352 -22.706  0.00  0.00    -0.000 C 
ATOM     16  C   UNL     1      34.884 -16.687 -23.993  0.00  0.00    -0.000 C 
ENDBRANCH   8  11
ENDBRANCH   3   4
ENDBRANCH   2   3
ENDBRANCH   1   2
BRANCH   1  17
ATOM     17  C   UNL     1      34.454 -22.772 -14.837  0.00  0.00    +0.110 C 
BRANCH  17  21
ATOM     18  F   UNL     1      39.064 -25.989 -12.367  0.00  0.00    -0.204 F 
ATOM     19  O   UNL     1      33.149 -23.870 -12.597  0.00  0.00    -0.246 OA
ATOM     20  O   UNL     1      36.860 -26.105 -11.128  0.00  0.00    -0.267 OA
ATOM     21  N   UNL     1      35.094 -23.651 -13.862  0.00  0.00    -0.281 N 
ATOM     22  N   UNL     1      35.019 -24.968 -11.899  0.00  0.00    -0.274 N 
ATOM     23  C   UNL     1      36.471 -23.994 -14.030  0.00  0.00    +0.071 A 
ATOM     24  C   UNL     1      34.339 -24.136 -12.785  0.00  0.00    +0.330 A 
ATOM     25  C   UNL     1      37.103 -24.834 -13.105  0.00  0.00    +0.099 A 
ATOM     26  C   UNL     1      37.233 -23.509 -15.107  0.00  0.00    +0.018 C 
ATOM     27  C   UNL     1      36.343 -25.366 -11.960  0.00  0.00    +0.265 A 
ATOM     28  C   UNL     1      38.452 -25.184 -13.248  0.00  0.00    +0.146 C 
ATOM     29  C   UNL     1      38.579 -23.857 -15.252  0.00  0.00    +0.004 C 
ATOM     30  C   UNL     1      39.188 -24.695 -14.323  0.00  0.00    +0.030 C 
ATOM     31  H   UNL     1      34.497 -25.314 -11.139  0.00  0.00    +0.173 HD
ENDBRANCH  17  21
ENDBRANCH   1  17
TORSDOF 6
ENDMDL
MODEL 2
REMARK VINA RESULT:     -11.6      3.278      5.591
REMARK  Name = 448890
REMARK  6 active torsions:
REMARK  status: ('A' for Active; 'I' for Inactive)
REMARK    1  A    between atoms: C_1  and  C_2
REMARK    2  A    between atoms: C_1  and  C_17
REMARK    3  A    between atoms: C_2  and  C_3
REMARK    4  A    between atoms: C_3  and  N_4
REMARK    5  A    between atoms: C_8  and  C_11
REMARK    6  A    between atoms: C_17  and  N_21
REMARK                            x       y       z     vdW  Elec       q    Type
REMARK                         _______ _______ _______ _____ _____    ______ ____
ROOT
ATOM      1  C   UNL     1      34.658 -19.778 -20.380  0.00  0.00    +0.022 C 
ENDROOT
BRANCH   1   2
ATOM      2  C   UNL     1      34.976 -19.415 -21.835  0.00  0.00    -0.021 C 
BRANCH   2   3
ATOM      3  C   UNL     1      36.209 -18.516 -21.921  0.00  0.00    -0.077 C 
BRANCH   3   4
ATOM      4  N   UNL     1      35.810 -17.132 -22.169  0.00  0.00    +0.390 N 
ATOM      5  C   UNL     1      34.881 -17.045 -23.300  0.00  0.00    -0.072 C 
ATOM      6  C   UNL     1      35.217 -16.537 -20.963  0.00  0.00    -0.051 C 
ATOM      7  C   UNL     1      34.612 -15.571 -23.641  0.00  0.00    +0.003 C 
ATOM      8  C   UNL     1      34.277 -14.735 -22.427  0.00  0.00    -0.031 C 
ATOM      9  C   UNL     1      34.564 -15.201 -21.195  0.00  0.00    -0.053 C 
ATOM     10  H   UNL     1      36.649 -16.603 -22.411  0.00  0.00    -0.079 HD
BRANCH   8  11
ATOM     11  C   UNL     1      33.643 -13.412 -22.636  0.00  0.00    -0.004 C 
ATOM     12  C   UNL     1      32.587 -13.003 -21.819  0.00  0.00    -0.000 C 
ATOM     13  C   UNL     1      34.100 -12.569 -23.651  0.00  0.00    -0.000 C 
ATOM     14  C   UNL     1      31.990 -11.758 -22.016  0.00  0.00    -0.000 C 
ATOM     15  C   UNL     1      33.503 -11.323 -23.848  0.00  0.00    -0.000 C 
ATOM     16  C   UNL     1      32.448 -10.918 -23.031  0.00  0.00    -0.000 C 
ENDBRANCH   8  11
ENDBRANCH   3   4
ENDBRANCH   2   3
ENDBRANCH   1   2
BRANCH   1  17
ATOM     17  C   UNL     1      35.361 -21.055 -19.928  0.00  0.00    +0.110 C 
BRANCH  17  21
ATOM     18  F   UNL     1      34.776 -23.681 -14.408  0.00  0.00    -0.204 F 
ATOM     19  O   UNL     1      32.624 -21.713 -19.978  0.00  0.00    -0.246 OA
ATOM     20  O   UNL     1      32.666 -23.578 -15.802  0.00  0.00    -0.267 OA
ATOM     21  N   UNL     1      34.655 -21.721 -18.836  0.00  0.00    -0.281 N 
ATOM     22  N   UNL     1      32.686 -22.633 -17.895  0.00  0.00    -0.274 N 
ATOM     23  C   UNL     1      35.376 -22.075 -17.653  0.00  0.00    +0.071 A 
ATOM     24  C   UNL     1      33.289 -21.997 -18.978  0.00  0.00    +0.330 A 
ATOM     25  C   UNL     1      34.716 -22.713 -16.596  0.00  0.00    +0.099 A 
ATOM     26  C   UNL     1      36.746 -21.800 -17.506  0.00  0.00    +0.018 C 
ATOM     27  C   UNL     1      33.280 -23.020 -16.706  0.00  0.00    +0.265 A 
ATOM     28  C   UNL     1      35.400 -23.069 -15.425  0.00  0.00    +0.146 C 
ATOM     29  C   UNL     1      37.430 -22.155 -16.339  0.00  0.00    +0.004 C 
ATOM     30  C   UNL     1      36.758 -22.789 -15.300  0.00  0.00    +0.030 C 
ATOM     31  H   UNL     1      31.726 -22.831 -17.985  0.00  0.00    +0.173 HD
ENDBRANCH  17  21
ENDBRANCH   1  17
TORSDOF 6
ENDMDL
MODEL 3
REMARK VINA RESULT:     -11.5      7.314     12.562
REMARK  Name = 448890
REMARK  6 active torsions:
REMARK  status: ('A' for Active; 'I' for Inactive)
REMARK    1  A    between atoms: C_1  and  C_2
REMARK    2  A    between atoms: C_1  and  C_17
REMARK    3  A    between atoms: C_2  and  C_3
REMARK    4  A    between atoms: C_3  and  N_4
REMARK    5  A    between atoms: C_8  and  C_11
REMARK    6  A    between atoms: C_17  and  N_21
REMARK                            x       y       z     vdW  Elec       q    Type
REMARK                         _______ _______ _______ _____ _____    ______ ____
ROOT
ATOM      1  C   UNL     1      33.614 -13.591 -23.248  0.00  0.00    +0.022 C 
ENDROOT
BRANCH   1   2
ATOM      2  C   UNL     1      33.639 -14.722 -24.281  0.00  0.00    -0.021 C 
BRANCH   2   3
ATOM      3  C   UNL     1      34.880 -15.597 -24.109  0.00  0.00    -0.077 C 
BRANCH   3   4
ATOM      4  N   UNL     1      34.614 -16.673 -23.158  0.00  0.00    +0.390 N 
ATOM      5  C   UNL     1      34.944 -17.981 -23.733  0.00  0.00    -0.072 C 
ATOM      6  C   UNL     1      35.353 -16.456 -21.905  0.00  0.00    -0.051 C 
ATOM      7  C   UNL     1      34.499 -19.099 -22.778  0.00  0.00    +0.003 C 
ATOM      8  C   UNL     1      34.933 -18.862 -21.349  0.00  0.00    -0.031 C 
ATOM      9  C   UNL     1      35.327 -17.632 -20.965  0.00  0.00    -0.053 C 
ATOM     10  H   UNL     1      33.615 -16.666 -22.947  0.00  0.00    -0.079 HD
BRANCH   8  11
ATOM     11  C   UNL     1      34.904 -20.005 -20.406  0.00  0.00    -0.004 C 
ATOM     12  C   UNL     1      33.685 -20.559 -20.013  0.00  0.00    -0.000 C 
ATOM     13  C   UNL     1      36.098 -20.533 -19.907  0.00  0.00    -0.000 C 
ATOM     14  C   UNL     1      33.658 -21.635 -19.125  0.00  0.00    -0.000 C 
ATOM     15  C   UNL     1      36.071 -21.609 -19.020  0.00  0.00    -0.000 C 
ATOM     16  C   UNL     1      34.851 -22.160 -18.629  0.00  0.00    -0.000 C 
ENDBRANCH   8  11
ENDBRANCH   3   4
ENDBRANCH   2   3
ENDBRANCH   1   2
BRANCH   1  17
ATOM     17  C   UNL     1      32.206 -13.062 -22.991  0.00  0.00    +0.110 C 
BRANCH  17  21
ATOM     18  F   UNL     1      31.749  -7.931 -19.647  0.00  0.00    -0.204 F 
ATOM     19  O   UNL     1      32.249 -14.154 -20.397  0.00  0.00    -0.246 OA
ATOM     20  O   UNL     1      31.896 -10.088 -18.331  0.00  0.00    -0.267 OA
ATOM     21  N   UNL     1      32.124 -12.272 -21.765  0.00  0.00    -0.281 N 
ATOM     22  N   UNL     1      32.073 -12.110 -19.406  0.00  0.00    -0.274 N 
ATOM     23  C   UNL     1      32.015 -10.849 -21.857  0.00  0.00    +0.071 A 
ATOM     24  C   UNL     1      32.155 -12.930 -20.528  0.00  0.00    +0.330 A 
ATOM     25  C   UNL     1      31.934 -10.075 -20.693  0.00  0.00    +0.099 A 
ATOM     26  C   UNL     1      31.983 -10.184 -23.095  0.00  0.00    +0.018 C 
ATOM     27  C   UNL     1      31.964 -10.730 -19.374  0.00  0.00    +0.265 A 
ATOM     28  C   UNL     1      31.826  -8.679 -20.757  0.00  0.00    +0.146 C 
ATOM     29  C   UNL     1      31.875  -8.792 -23.161  0.00  0.00    +0.004 C 
ATOM     30  C   UNL     1      31.797  -8.040 -21.993  0.00  0.00    +0.030 C 
ATOM     31  H   UNL     1      32.094 -12.564 -18.532  0.00  0.00    +0.173 HD
ENDBRANCH  17  21
ENDBRANCH   1  17
TORSDOF 6
ENDMDL
MODEL 4
REMARK VINA RESULT:     -11.4      2.349      3.914
REMARK  Name = 448890
REMARK  6 active torsions:
REMARK  status: ('A' for Active; 'I' for Inactive)
REMARK    1  A    between atoms: C_1  and  C_2
REMARK    2  A    between atoms: C_1  and  C_17
REMARK    3  A    between atoms: C_2  and  C_3
REMARK    4  A    between atoms: C_3  and  N_4
REMARK    5  A    between atoms: C_8  and  C_11
REMARK    6  A    between atoms: C_17  and  N_21
REMARK                            x       y       z     vdW  Elec       q    Type
REMARK                         _______ _______ _______ _____ _____    ______ ____
ROOT
ATOM      1  C   UNL     1      36.539 -22.235 -15.213  0.00  0.00    +0.022 C 
ENDROOT
BRANCH   1   2
ATOM      2  C   UNL     1      36.989 -21.454 -16.453  0.00  0.00    -0.021 C 
BRANCH   2   3
ATOM      3  C   UNL     1      36.322 -21.997 -17.716  0.00  0.00    -0.077 C 
BRANCH   3   4
ATOM      4  N   UNL     1      36.006 -20.902 -18.632  0.00  0.00    +0.390 N 
ATOM      5  C   UNL     1      37.116 -20.650 -19.556  0.00  0.00    -0.072 C 
ATOM      6  C   UNL     1      34.768 -21.184 -19.373  0.00  0.00    -0.051 C 
ATOM      7  C   UNL     1      36.825 -19.394 -20.390  0.00  0.00    +0.003 C 
ATOM      8  C   UNL     1      35.436 -19.390 -20.988  0.00  0.00    -0.031 C 
ATOM      9  C   UNL     1      34.498 -20.228 -20.504  0.00  0.00    -0.053 C 
ATOM     10  H   UNL     1      35.864 -20.059 -18.075  0.00  0.00    -0.079 HD
BRANCH   8  11
ATOM     11  C   UNL     1      35.148 -18.448 -22.096  0.00  0.00    -0.004 C 
ATOM     12  C   UNL     1      35.411 -17.086 -21.943  0.00  0.00    -0.000 C 
ATOM     13  C   UNL     1      34.615 -18.921 -23.297  0.00  0.00    -0.000 C 
ATOM     14  C   UNL     1      35.141 -16.199 -22.986  0.00  0.00    -0.000 C 
ATOM     15  C   UNL     1      34.344 -18.035 -24.340  0.00  0.00    -0.000 C 
ATOM     16  C   UNL     1      34.607 -16.674 -24.185  0.00  0.00    -0.000 C 
ENDBRANCH   8  11
ENDBRANCH   3   4
ENDBRANCH   2   3
ENDBRANCH   1   2
BRANCH   1  17
ATOM     17  C   UNL     1      35.987 -23.615 -15.557  0.00  0.00    +0.110 C 
BRANCH  17  21
ATOM     18  F   UNL     1      30.003 -23.929 -14.214  0.00  0.00    -0.204 F 
ATOM     19  O   UNL     1      36.104 -24.934 -13.073  0.00  0.00    -0.246 OA
ATOM     20  O   UNL     1      31.566 -24.939 -12.498  0.00  0.00    -0.267 OA
ATOM     21  N   UNL     1      34.816 -23.961 -14.755  0.00  0.00    -0.281 N 
ATOM     22  N   UNL     1      33.839 -24.917 -12.824  0.00  0.00    -0.274 N 
ATOM     23  C   UNL     1      33.514 -23.620 -15.236  0.00  0.00    +0.071 A 
ATOM     24  C   UNL     1      35.002 -24.620 -13.532  0.00  0.00    +0.330 A 
ATOM     25  C   UNL     1      32.381 -23.945 -14.481  0.00  0.00    +0.099 A 
ATOM     26  C   UNL     1      33.322 -22.960 -16.462  0.00  0.00    +0.018 C 
ATOM     27  C   UNL     1      32.534 -24.637 -13.189  0.00  0.00    +0.265 A 
ATOM     28  C   UNL     1      31.093 -23.623 -14.931  0.00  0.00    +0.146 C 
ATOM     29  C   UNL     1      32.040 -22.637 -16.912  0.00  0.00    +0.004 C 
ATOM     30  C   UNL     1      30.926 -22.968 -16.148  0.00  0.00    +0.030 C 
ATOM     31  H   UNL     1      33.960 -25.380 -11.963  0.00  0.00    +0.173 HD
ENDBRANCH  17  21
ENDBRANCH   1  17
TORSDOF 6
ENDMDL
MODEL 5
REMARK VINA RESULT:     -11.2      1.775      2.788
REMARK  Name = 448890
REMARK  6 active torsions:
REMARK  status: ('A' for Active; 'I' for Inactive)
REMARK    1  A    between atoms: C_1  and  C_2
REMARK    2  A    between atoms: C_1  and  C_17
REMARK    3  A    between atoms: C_2  and  C_3
REMARK    4  A    between atoms: C_3  and  N_4
REMARK    5  A    between atoms: C_8  and  C_11
REMARK    6  A    between atoms: C_17  and  N_21
REMARK                            x       y       z     vdW  Elec       q    Type
REMARK                         _______ _______ _______ _____ _____    ______ ____
ROOT
ATOM      1  C   UNL     1      33.751 -23.364 -15.560  0.00  0.00    +0.022 C 
ENDROOT
BRANCH   1   2
ATOM      2  C   UNL     1      33.130 -22.823 -16.852  0.00  0.00    -0.021 C 
BRANCH   2   3
ATOM      3  C   UNL     1      33.744 -23.493 -18.080  0.00  0.00    -0.077 C 
BRANCH   3   4
ATOM      4  N   UNL     1      33.904 -22.522 -19.161  0.00  0.00    +0.390 N 
ATOM      5  C   UNL     1      33.026 -21.364 -18.965  0.00  0.00    -0.072 C 
ATOM      6  C   UNL     1      35.307 -22.096 -19.275  0.00  0.00    -0.051 C 
ATOM      7  C   UNL     1      33.093 -20.445 -20.194  0.00  0.00    +0.003 C 
ATOM      8  C   UNL     1      34.509 -20.151 -20.635  0.00  0.00    -0.031 C 
ATOM      9  C   UNL     1      35.520 -20.926 -20.197  0.00  0.00    -0.053 C 
ATOM     10  H   UNL     1      33.634 -22.977 -20.034  0.00  0.00    -0.079 HD
BRANCH   8  11
ATOM     11  C   UNL     1      34.737 -19.009 -21.552  0.00  0.00    -0.004 C 
ATOM     12  C   UNL     1      35.186 -17.786 -21.050  0.00  0.00    -0.000 C 
ATOM     13  C   UNL     1      34.505 -19.152 -22.922  0.00  0.00    -0.000 C 
ATOM     14  C   UNL     1      35.402 -16.711 -21.912  0.00  0.00    -0.000 C 
ATOM     15  C   UNL     1      34.720 -18.077 -23.785  0.00  0.00    -0.000 C 
ATOM     16  C   UNL     1      35.169 -16.856 -23.280  0.00  0.00    -0.000 C 
ENDBRANCH   8  11
ENDBRANCH   3   4
ENDBRANCH   2   3
ENDBRANCH   1   2
BRANCH   1  17
ATOM     17  C   UNL     1      34.770 -22.405 -14.952  0.00  0.00    +0.110 C 
BRANCH  17  21
ATOM     18  F   UNL     1      39.127 -25.864 -12.352  0.00  0.00    -0.204 F 
ATOM     19  O   UNL     1      36.879 -21.998 -16.772  0.00  0.00    -0.246 OA
ATOM     20  O   UNL     1      39.796 -24.682 -14.488  0.00  0.00    -0.267 OA
ATOM     21  N   UNL     1      36.094 -23.009 -14.824  0.00  0.00    -0.281 N 
ATOM     22  N   UNL     1      38.302 -23.342 -15.605  0.00  0.00    -0.274 N 
ATOM     23  C   UNL     1      36.366 -23.865 -13.712  0.00  0.00    +0.071 A 
ATOM     24  C   UNL     1      37.065 -22.731 -15.796  0.00  0.00    +0.330 A 
ATOM     25  C   UNL     1      37.629 -24.453 -13.573  0.00  0.00    +0.099 A 
ATOM     26  C   UNL     1      35.396 -24.148 -12.735  0.00  0.00    +0.018 C 
ATOM     27  C   UNL     1      38.677 -24.186 -14.574  0.00  0.00    +0.265 A 
ATOM     28  C   UNL     1      37.921 -25.298 -12.493  0.00  0.00    +0.146 C 
ATOM     29  C   UNL     1      35.685 -24.989 -11.657  0.00  0.00    +0.004 C 
ATOM     30  C   UNL     1      36.946 -25.563 -11.536  0.00  0.00    +0.030 C 
ATOM     31  H   UNL     1      38.990 -23.153 -16.284  0.00  0.00    +0.173 HD
ENDBRANCH  17  21
ENDBRANCH   1  17
TORSDOF 6
ENDMDL
MODEL 6
REMARK VINA RESULT:     -11.1      8.671     13.680
REMARK  Name = 448890
REMARK  6 active torsions:
REMARK  status: ('A' for Active; 'I' for Inactive)
REMARK    1  A    between atoms: C_1  and  C_2
REMARK    2  A    between atoms: C_1  and  C_17
REMARK    3  A    between atoms: C_2  and  C_3
REMARK    4  A    between atoms: C_3  and  N_4
REMARK    5  A    between atoms: C_8  and  C_11
REMARK    6  A    between atoms: C_17  and  N_21
REMARK                            x       y       z     vdW  Elec       q    Type
REMARK                         _______ _______ _______ _____ _____    ______ ____
ROOT
ATOM      1  C   UNL     1      34.105 -11.351 -23.932  0.00  0.00    +0.022 C 
ENDROOT
BRANCH   1   2
ATOM      2  C   UNL     1      33.706 -12.665 -23.252  0.00  0.00    -0.021 C 
BRANCH   2   3
ATOM      3  C   UNL     1      33.871 -13.848 -24.205  0.00  0.00    -0.077 C 
BRANCH   3   4
ATOM      4  N   UNL     1      34.007 -15.092 -23.449  0.00  0.00    +0.390 N 
ATOM      5  C   UNL     1      34.838 -16.061 -24.170  0.00  0.00    -0.072 C 
ATOM      6  C   UNL     1      34.557 -14.831 -22.111  0.00  0.00    -0.051 C 
ATOM      7  C   UNL     1      34.825 -17.409 -23.434  0.00  0.00    +0.003 C 
ATOM      8  C   UNL     1      35.080 -17.274 -21.950  0.00  0.00    -0.031 C 
ATOM      9  C   UNL     1      34.953 -16.072 -21.356  0.00  0.00    -0.053 C 
ATOM     10  H   UNL     1      33.076 -15.496 -23.341  0.00  0.00    -0.079 HD
BRANCH   8  11
ATOM     11  C   UNL     1      35.461 -18.488 -21.188  0.00  0.00    -0.004 C 
ATOM     12  C   UNL     1      34.482 -19.398 -20.786  0.00  0.00    -0.000 C 
ATOM     13  C   UNL     1      36.800 -18.725 -20.871  0.00  0.00    -0.000 C 
ATOM     14  C   UNL     1      34.840 -20.540 -20.069  0.00  0.00    -0.000 C 
ATOM     15  C   UNL     1      37.158 -19.867 -20.154  0.00  0.00    -0.000 C 
ATOM     16  C   UNL     1      36.178 -20.775 -19.753  0.00  0.00    -0.000 C 
ENDBRANCH   8  11
ENDBRANCH   3   4
ENDBRANCH   2   3
ENDBRANCH   1   2
BRANCH   1  17
ATOM     17  C   UNL     1      32.971 -10.330 -23.946  0.00  0.00    +0.110 C 
BRANCH  17  21
ATOM     18  F   UNL     1      31.489  -8.410 -18.304  0.00  0.00    -0.204 F 
ATOM     19  O   UNL     1      34.519  -7.983 -23.797  0.00  0.00    -0.246 OA
ATOM     20  O   UNL     1      33.127  -6.949 -19.564  0.00  0.00    -0.267 OA
ATOM     21  N   UNL     1      33.008  -9.442 -22.787  0.00  0.00    -0.281 N 
ATOM     22  N   UNL     1      33.801  -7.503 -21.688  0.00  0.00    -0.274 N 
ATOM     23  C   UNL     1      32.217  -9.759 -21.639  0.00  0.00    +0.071 A 
ATOM     24  C   UNL     1      33.819  -8.300 -22.831  0.00  0.00    +0.330 A 
ATOM     25  C   UNL     1      32.239  -8.919 -20.518  0.00  0.00    +0.099 A 
ATOM     26  C   UNL     1      31.402 -10.903 -21.589  0.00  0.00    +0.018 C 
ATOM     27  C   UNL     1      33.079  -7.709 -20.526  0.00  0.00    +0.265 A 
ATOM     28  C   UNL     1      31.474  -9.209 -19.381  0.00  0.00    +0.146 C 
ATOM     29  C   UNL     1      30.637 -11.193 -20.456  0.00  0.00    +0.004 C 
ATOM     30  C   UNL     1      30.672 -10.347 -19.352  0.00  0.00    +0.030 C 
ATOM     31  H   UNL     1      34.369  -6.698 -21.710  0.00  0.00    +0.173 HD
ENDBRANCH  17  21
ENDBRANCH   1  17
TORSDOF 6
ENDMDL
MODEL 7
REMARK VINA RESULT:     -11.0      8.206     13.123
REMARK  Name = 448890
REMARK  6 active torsions:
REMARK  status: ('A' for Active; 'I' for Inactive)
REMARK    1  A    between atoms: C_1  and  C_2
REMARK    2  A    between atoms: C_1  and  C_17
REMARK    3  A    between atoms: C_2  and  C_3
REMARK    4  A    between atoms: C_3  and  N_4
REMARK    5  A    between atoms: C_8  and  C_11
REMARK    6  A    between atoms: C_17  and  N_21
REMARK                            x       y       z     vdW  Elec       q    Type
REMARK                         _______ _______ _______ _____ _____    ______ ____
ROOT
ATOM      1  C   UNL     1      33.911 -13.483 -22.830  0.00  0.00    +0.022 C 
ENDROOT
BRANCH   1   2
ATOM      2  C   UNL     1      33.769 -14.724 -23.718  0.00  0.00    -0.021 C 
BRANCH   2   3
ATOM      3  C   UNL     1      35.134 -15.338 -24.027  0.00  0.00    -0.077 C 
BRANCH   3   4
ATOM      4  N   UNL     1      35.385 -16.481 -23.152  0.00  0.00    +0.390 N 
ATOM      5  C   UNL     1      34.945 -16.204 -21.781  0.00  0.00    -0.072 C 
ATOM      6  C   UNL     1      34.728 -17.690 -23.672  0.00  0.00    -0.051 C 
ATOM      7  C   UNL     1      35.371 -17.353 -20.854  0.00  0.00    +0.003 C 
ATOM      8  C   UNL     1      35.029 -18.717 -21.409  0.00  0.00    -0.031 C 
ATOM      9  C   UNL     1      34.732 -18.852 -22.716  0.00  0.00    -0.053 C 
ATOM     10  H   UNL     1      36.391 -16.646 -23.131  0.00  0.00    -0.079 HD
BRANCH   8  11
ATOM     11  C   UNL     1      35.038 -19.875 -20.484  0.00  0.00    -0.004 C 
ATOM     12  C   UNL     1      36.244 -20.342 -19.956  0.00  0.00    -0.000 C 
ATOM     13  C   UNL     1      33.840 -20.504 -20.136  0.00  0.00    -0.000 C 
ATOM     14  C   UNL     1      36.252 -21.432 -19.086  0.00  0.00    -0.000 C 
ATOM     15  C   UNL     1      33.849 -21.594 -19.266  0.00  0.00    -0.000 C 
ATOM     16  C   UNL     1      35.055 -22.058 -18.740  0.00  0.00    -0.000 C 
ENDBRANCH   8  11
ENDBRANCH   3   4
ENDBRANCH   2   3
ENDBRANCH   1   2
BRANCH   1  17
ATOM     17  C   UNL     1      32.566 -12.960 -22.335  0.00  0.00    +0.110 C 
BRANCH  17  21
ATOM     18  F   UNL     1      31.855  -7.438 -19.744  0.00  0.00    -0.204 F 
ATOM     19  O   UNL     1      32.993 -11.304 -24.571  0.00  0.00    -0.246 OA
ATOM     20  O   UNL     1      32.382  -7.428 -22.220  0.00  0.00    -0.267 OA
ATOM     21  N   UNL     1      32.516 -11.501 -22.298  0.00  0.00    -0.281 N 
ATOM     22  N   UNL     1      32.681  -9.396 -23.365  0.00  0.00    -0.274 N 
ATOM     23  C   UNL     1      32.233 -10.843 -21.061  0.00  0.00    +0.071 A 
ATOM     24  C   UNL     1      32.746 -10.783 -23.479  0.00  0.00    +0.330 A 
ATOM     25  C   UNL     1      32.181  -9.445 -21.006  0.00  0.00    +0.099 A 
ATOM     26  C   UNL     1      32.001 -11.558 -19.873  0.00  0.00    +0.018 C 
ATOM     27  C   UNL     1      32.418  -8.654 -22.226  0.00  0.00    +0.265 A 
ATOM     28  C   UNL     1      31.907  -8.776 -19.805  0.00  0.00    +0.146 C 
ATOM     29  C   UNL     1      31.727 -10.893 -18.675  0.00  0.00    +0.004 C 
ATOM     30  C   UNL     1      31.680  -9.504 -18.640  0.00  0.00    +0.030 C 
ATOM     31  H   UNL     1      32.843  -8.883 -24.190  0.00  0.00    +0.173 HD
ENDBRANCH  17  21
ENDBRANCH   1  17
TORSDOF 6
ENDMDL
MODEL 8
REMARK VINA RESULT:     -11.0      5.230     10.970
REMARK  Name = 448890
REMARK  6 active torsions:
REMARK  status: ('A' for Active; 'I' for Inactive)
REMARK    1  A    between atoms: C_1  and  C_2
REMARK    2  A    between atoms: C_1  and  C_17
REMARK    3  A    between atoms: C_2  and  C_3
REMARK    4  A    between atoms: C_3  and  N_4
REMARK    5  A    between atoms: C_8  and  C_11
REMARK    6  A    between atoms: C_17  and  N_21
REMARK                            x       y       z     vdW  Elec       q    Type
REMARK                         _______ _______ _______ _____ _____    ______ ____
ROOT
ATOM      1  C   UNL     1      33.969 -19.836 -20.636  0.00  0.00    +0.022 C 
ENDROOT
BRANCH   1   2
ATOM      2  C   UNL     1      34.244 -20.875 -19.544  0.00  0.00    -0.021 C 
BRANCH   2   3
ATOM      3  C   UNL     1      35.742 -21.144 -19.405  0.00  0.00    -0.077 C 
BRANCH   3   4
ATOM      4  N   UNL     1      36.003 -21.948 -18.212  0.00  0.00    +0.390 N 
ATOM      5  C   UNL     1      36.833 -21.214 -17.252  0.00  0.00    -0.072 C 
ATOM      6  C   UNL     1      34.743 -22.377 -17.586  0.00  0.00    -0.051 C 
ATOM      7  C   UNL     1      37.229 -22.138 -16.090  0.00  0.00    +0.003 C 
ATOM      8  C   UNL     1      36.056 -22.904 -15.520  0.00  0.00    -0.031 C 
ATOM      9  C   UNL     1      34.914 -23.002 -16.228  0.00  0.00    -0.053 C 
ATOM     10  H   UNL     1      36.519 -22.780 -18.501  0.00  0.00    -0.079 HD
BRANCH   8  11
ATOM     11  C   UNL     1      36.209 -23.536 -14.188  0.00  0.00    -0.004 C 
ATOM     12  C   UNL     1      37.468 -23.949 -13.748  0.00  0.00    -0.000 C 
ATOM     13  C   UNL     1      35.094 -23.718 -13.367  0.00  0.00    -0.000 C 
ATOM     14  C   UNL     1      37.612 -24.543 -12.494  0.00  0.00    -0.000 C 
ATOM     15  C   UNL     1      35.238 -24.312 -12.113  0.00  0.00    -0.000 C 
ATOM     16  C   UNL     1      36.496 -24.725 -11.676  0.00  0.00    -0.000 C 
ENDBRANCH   8  11
ENDBRANCH   3   4
ENDBRANCH   2   3
ENDBRANCH   1   2
BRANCH   1  17
ATOM     17  C   UNL     1      35.229 -19.090 -21.065  0.00  0.00    +0.110 C 
BRANCH  17  21
ATOM     18  F   UNL     1      34.212 -13.673 -23.773  0.00  0.00    -0.204 F 
ATOM     19  O   UNL     1      35.035 -19.906 -23.752  0.00  0.00    -0.246 OA
ATOM     20  O   UNL     1      34.302 -15.672 -25.322  0.00  0.00    -0.267 OA
ATOM     21  N   UNL     1      34.984 -18.183 -22.184  0.00  0.00    -0.281 N 
ATOM     22  N   UNL     1      34.672 -17.782 -24.494  0.00  0.00    -0.274 N 
ATOM     23  C   UNL     1      34.828 -16.785 -21.928  0.00  0.00    +0.071 A 
ATOM     24  C   UNL     1      34.908 -18.709 -23.481  0.00  0.00    +0.330 A 
ATOM     25  C   UNL     1      34.593 -15.901 -22.988  0.00  0.00    +0.099 A 
ATOM     26  C   UNL     1      34.904 -16.253 -20.630  0.00  0.00    +0.018 C 
ATOM     27  C   UNL     1      34.506 -16.414 -24.366  0.00  0.00    +0.265 A 
ATOM     28  C   UNL     1      34.437 -14.526 -22.764  0.00  0.00    +0.146 C 
ATOM     29  C   UNL     1      34.748 -14.882 -20.404  0.00  0.00    +0.004 C 
ATOM     30  C   UNL     1      34.515 -14.020 -21.470  0.00  0.00    +0.030 C 
ATOM     31  H   UNL     1      34.617 -18.143 -25.409  0.00  0.00    +0.173 HD
ENDBRANCH  17  21
ENDBRANCH   1  17
TORSDOF 6
ENDMDL
MODEL 9
REMARK VINA RESULT:     -10.9      8.358     13.678
REMARK  Name = 448890
REMARK  6 active torsions:
REMARK  status: ('A' for Active; 'I' for Inactive)
REMARK    1  A    between atoms: C_1  and  C_2
REMARK    2  A    between atoms: C_1  and  C_17
REMARK    3  A    between atoms: C_2  and  C_3
REMARK    4  A    between atoms: C_3  and  N_4
REMARK    5  A    between atoms: C_8  and  C_11
REMARK    6  A    between atoms: C_17  and  N_21
REMARK                            x       y       z     vdW  Elec       q    Type
REMARK                         _______ _______ _______ _____ _____    ______ ____
ROOT
ATOM      1  C   UNL     1      33.801 -11.564 -23.787  0.00  0.00    +0.022 C 
ENDROOT
BRANCH   1   2
ATOM      2  C   UNL     1      34.203 -12.870 -23.093  0.00  0.00    -0.021 C 
BRANCH   2   3
ATOM      3  C   UNL     1      34.038 -14.065 -24.030  0.00  0.00    -0.077 C 
BRANCH   3   4
ATOM      4  N   UNL     1      34.132 -15.315 -23.279  0.00  0.00    +0.390 N 
ATOM      5  C   UNL     1      34.973 -16.291 -23.980  0.00  0.00    -0.072 C 
ATOM      6  C   UNL     1      34.643 -15.070 -21.922  0.00  0.00    -0.051 C 
ATOM      7  C   UNL     1      34.918 -17.643 -23.254  0.00  0.00    +0.003 C 
ATOM      8  C   UNL     1      35.128 -17.522 -21.762  0.00  0.00    -0.031 C 
ATOM      9  C   UNL     1      34.998 -16.321 -21.164  0.00  0.00    -0.053 C 
ATOM     10  H   UNL     1      33.193 -15.707 -23.203  0.00  0.00    -0.079 HD
BRANCH   8  11
ATOM     11  C   UNL     1      35.467 -18.745 -20.997  0.00  0.00    -0.004 C 
ATOM     12  C   UNL     1      36.788 -18.992 -20.619  0.00  0.00    -0.000 C 
ATOM     13  C   UNL     1      34.465 -19.655 -20.650  0.00  0.00    -0.000 C 
ATOM     14  C   UNL     1      37.107 -20.143 -19.898  0.00  0.00    -0.000 C 
ATOM     15  C   UNL     1      34.784 -20.806 -19.930  0.00  0.00    -0.000 C 
ATOM     16  C   UNL     1      36.105 -21.051 -19.554  0.00  0.00    -0.000 C 
ENDBRANCH   8  11
ENDBRANCH   3   4
ENDBRANCH   2   3
ENDBRANCH   1   2
BRANCH   1  17
ATOM     17  C   UNL     1      32.370 -11.145 -23.463  0.00  0.00    +0.110 C 
BRANCH  17  21
ATOM     18  F   UNL     1      32.872  -6.190 -19.871  0.00  0.00    -0.204 F 
ATOM     19  O   UNL     1      31.490 -12.216 -21.013  0.00  0.00    -0.246 OA
ATOM     20  O   UNL     1      32.023  -8.286 -18.735  0.00  0.00    -0.267 OA
ATOM     21  N   UNL     1      32.281 -10.386 -22.219  0.00  0.00    -0.281 N 
ATOM     22  N   UNL     1      31.769 -10.240 -19.914  0.00  0.00    -0.274 N 
ATOM     23  C   UNL     1      32.659  -9.007 -22.214  0.00  0.00    +0.071 A 
ATOM     24  C   UNL     1      31.826 -11.030 -21.060  0.00  0.00    +0.330 A 
ATOM     25  C   UNL     1      32.580  -8.263 -21.031  0.00  0.00    +0.099 A 
ATOM     26  C   UNL     1      33.115  -8.356 -23.373  0.00  0.00    +0.018 C 
ATOM     27  C   UNL     1      32.108  -8.904 -19.791  0.00  0.00    +0.265 A 
ATOM     28  C   UNL     1      32.944  -6.909 -21.000  0.00  0.00    +0.146 C 
ATOM     29  C   UNL     1      33.479  -7.007 -23.345  0.00  0.00    +0.004 C 
ATOM     30  C   UNL     1      33.394  -6.284 -22.159  0.00  0.00    +0.030 C 
ATOM     31  H   UNL     1      31.451 -10.685 -19.094  0.00  0.00    +0.173 HD
ENDBRANCH  17  21
ENDBRANCH   1  17
TORSDOF 6
ENDMDL
