MODEL 1
REMARK VINA RESULT:     -12.5      0.000      0.000
REMARK  Name = 9998128
REMARK  2 active torsions:
REMARK  status: ('A' for Active; 'I' for Inactive)
REMARK    1  A    between atoms: N_1  and  C_15
REMARK    2  A    between atoms: C_7  and  C_24
REMARK                            x       y       z     vdW  Elec       q    Type
REMARK                         _______ _______ _______ _____ _____    ______ ____
ROOT
ATOM      1  N   UNL     1      35.861 -22.913 -15.893  0.00  0.00    -0.290 N 
ATOM      2  N   UNL     1      33.516 -23.088 -15.974  0.00  0.00    -0.327 NA
ATOM      3  N   UNL     1      32.286 -22.254 -17.871  0.00  0.00    -0.342 NA
ATOM      4  C   UNL     1      34.675 -22.056 -17.827  0.00  0.00    +0.143 C 
ATOM      5  C   UNL     1      34.645 -22.680 -16.582  0.00  0.00    +0.184 C 
ATOM      6  C   UNL     1      33.433 -21.859 -18.451  0.00  0.00    +0.133 C 
ATOM      7  C   UNL     1      32.389 -22.847 -16.664  0.00  0.00    +0.165 C 
ATOM      8  C   UNL     1      35.868 -21.638 -18.443  0.00  0.00    -0.011 C 
ATOM      9  C   UNL     1      33.422 -21.237 -19.697  0.00  0.00    +0.029 C 
ATOM     10  C   UNL     1      35.829 -21.020 -19.688  0.00  0.00    -0.004 C 
ATOM     11  C   UNL     1      34.604 -20.820 -20.316  0.00  0.00    +0.002 C 
ATOM     12  H   UNL     1      36.561 -22.247 -16.084  0.00  0.00    +0.154 HD
ENDROOT
BRANCH   1  15
ATOM     13  N   UNL     1      37.541 -26.617 -12.179  0.00  0.00    -0.236 N 
ATOM     14  N   UNL     1      38.121 -25.876 -11.219  0.00  0.00    -0.180 NA
ATOM     15  C   UNL     1      36.261 -23.910 -14.989  0.00  0.00    +0.050 C 
ATOM     16  C   UNL     1      37.322 -24.563 -12.915  0.00  0.00    +0.037 C 
ATOM     17  C   UNL     1      37.041 -25.889 -13.224  0.00  0.00    +0.067 C 
ATOM     18  C   UNL     1      36.929 -23.551 -13.806  0.00  0.00    +0.018 C 
ATOM     19  C   UNL     1      35.995 -25.256 -15.269  0.00  0.00    +0.016 C 
ATOM     20  C   UNL     1      36.379 -26.275 -14.392  0.00  0.00    +0.017 C 
ATOM     21  C   UNL     1      37.985 -24.627 -11.671  0.00  0.00    +0.119 C 
ATOM     22  H   UNL     1      37.481 -27.598 -12.132  0.00  0.00    +0.174 HD
ENDBRANCH   1  15
BRANCH   7  24
ATOM     23  N   UNL     1      30.037 -22.721 -16.576  0.00  0.00    -0.398 NA
ATOM     24  C   UNL     1      31.157 -23.267 -16.050  0.00  0.00    +0.197 C 
ATOM     25  C   UNL     1      31.153 -24.169 -14.994  0.00  0.00    +0.098 C 
ATOM     26  C   UNL     1      28.863 -23.096 -16.019  0.00  0.00    +0.110 C 
ATOM     27  C   UNL     1      29.928 -24.530 -14.448  0.00  0.00    -0.016 C 
ATOM     28  C   UNL     1      28.755 -23.988 -14.965  0.00  0.00    +0.023 C 
ATOM     29  C   UNL     1      27.627 -22.495 -16.598  0.00  0.00    +0.066 C 
ENDBRANCH   7  24
TORSDOF 2
ENDMDL
MODEL 2
REMARK VINA RESULT:     -12.2      1.363      5.038
REMARK  Name = 9998128
REMARK  2 active torsions:
REMARK  status: ('A' for Active; 'I' for Inactive)
REMARK    1  A    between atoms: N_1  and  C_15
REMARK    2  A    between atoms: C_7  and  C_24
REMARK                            x       y       z     vdW  Elec       q    Type
REMARK                         _______ _______ _______ _____ _____    ______ ____
ROOT
ATOM      1  N   UNL     1      33.528 -24.737 -14.398  0.00  0.00    -0.290 N 
ATOM      2  N   UNL     1      33.462 -23.330 -16.283  0.00  0.00    -0.327 NA
ATOM      3  N   UNL     1      31.363 -22.495 -17.120  0.00  0.00    -0.342 NA
ATOM      4  C   UNL     1      31.387 -23.928 -15.197  0.00  0.00    +0.143 C 
ATOM      5  C   UNL     1      32.773 -23.974 -15.323  0.00  0.00    +0.184 C 
ATOM      6  C   UNL     1      30.705 -23.152 -16.148  0.00  0.00    +0.133 C 
ATOM      7  C   UNL     1      32.705 -22.620 -17.135  0.00  0.00    +0.165 C 
ATOM      8  C   UNL     1      30.689 -24.610 -14.186  0.00  0.00    -0.011 C 
ATOM      9  C   UNL     1      29.317 -23.081 -16.056  0.00  0.00    +0.029 C 
ATOM     10  C   UNL     1      29.302 -24.522 -14.116  0.00  0.00    -0.004 C 
ATOM     11  C   UNL     1      28.615 -23.756 -15.053  0.00  0.00    +0.002 C 
ATOM     12  H   UNL     1      33.047 -25.519 -14.040  0.00  0.00    +0.154 HD
ENDROOT
BRANCH   1  15
ATOM     13  N   UNL     1      38.531 -24.004 -12.213  0.00  0.00    -0.236 N 
ATOM     14  N   UNL     1      38.313 -23.192 -11.165  0.00  0.00    -0.180 NA
ATOM     15  C   UNL     1      34.830 -24.594 -13.893  0.00  0.00    +0.050 C 
ATOM     16  C   UNL     1      36.365 -23.665 -12.270  0.00  0.00    +0.037 C 
ATOM     17  C   UNL     1      37.403 -24.326 -12.917  0.00  0.00    +0.067 C 
ATOM     18  C   UNL     1      35.055 -23.796 -12.759  0.00  0.00    +0.018 C 
ATOM     19  C   UNL     1      35.899 -25.246 -14.522  0.00  0.00    +0.016 C 
ATOM     20  C   UNL     1      37.209 -25.126 -14.046  0.00  0.00    +0.017 C 
ATOM     21  C   UNL     1      36.994 -22.988 -11.203  0.00  0.00    +0.119 C 
ATOM     22  H   UNL     1      39.426 -24.339 -12.452  0.00  0.00    +0.174 HD
ENDBRANCH   1  15
BRANCH   7  24
ATOM     23  N   UNL     1      34.748 -22.060 -18.170  0.00  0.00    -0.398 NA
ATOM     24  C   UNL     1      33.403 -21.914 -18.178  0.00  0.00    +0.197 C 
ATOM     25  C   UNL     1      32.716 -21.148 -19.108  0.00  0.00    +0.098 C 
ATOM     26  C   UNL     1      35.432 -21.408 -19.137  0.00  0.00    +0.110 C 
ATOM     27  C   UNL     1      33.453 -20.493 -20.088  0.00  0.00    -0.016 C 
ATOM     28  C   UNL     1      34.838 -20.620 -20.110  0.00  0.00    +0.023 C 
ATOM     29  C   UNL     1      36.915 -21.567 -19.130  0.00  0.00    +0.066 C 
ENDBRANCH   7  24
TORSDOF 2
ENDMDL
MODEL 3
REMARK VINA RESULT:     -12.1      1.885      6.922
REMARK  Name = 9998128
REMARK  2 active torsions:
REMARK  status: ('A' for Active; 'I' for Inactive)
REMARK    1  A    between atoms: N_1  and  C_15
REMARK    2  A    between atoms: C_7  and  C_24
REMARK                            x       y       z     vdW  Elec       q    Type
REMARK                         _______ _______ _______ _____ _____    ______ ____
ROOT
ATOM      1  N   UNL     1      33.192 -23.878 -13.771  0.00  0.00    -0.290 N 
ATOM      2  N   UNL     1      34.331 -22.994 -15.631  0.00  0.00    -0.327 NA
ATOM      3  N   UNL     1      36.730 -23.154 -15.793  0.00  0.00    -0.342 NA
ATOM      4  C   UNL     1      35.607 -24.068 -13.881  0.00  0.00    +0.143 C 
ATOM      5  C   UNL     1      34.412 -23.637 -14.451  0.00  0.00    +0.184 C 
ATOM      6  C   UNL     1      36.775 -23.795 -14.611  0.00  0.00    +0.133 C 
ATOM      7  C   UNL     1      35.510 -22.789 -16.238  0.00  0.00    +0.165 C 
ATOM      8  C   UNL     1      35.666 -24.737 -12.646  0.00  0.00    -0.011 C 
ATOM      9  C   UNL     1      37.991 -24.210 -14.073  0.00  0.00    +0.029 C 
ATOM     10  C   UNL     1      36.894 -25.141 -12.132  0.00  0.00    -0.004 C 
ATOM     11  C   UNL     1      38.058 -24.877 -12.846  0.00  0.00    +0.002 C 
ATOM     12  H   UNL     1      33.281 -23.900 -12.790  0.00  0.00    +0.154 HD
ENDROOT
BRANCH   1  15
ATOM     13  N   UNL     1      28.056 -24.452 -15.677  0.00  0.00    -0.236 N 
ATOM     14  N   UNL     1      27.831 -23.313 -16.354  0.00  0.00    -0.180 NA
ATOM     15  C   UNL     1      31.881 -24.090 -14.225  0.00  0.00    +0.050 C 
ATOM     16  C   UNL     1      29.930 -23.337 -15.442  0.00  0.00    +0.037 C 
ATOM     17  C   UNL     1      29.297 -24.529 -15.106  0.00  0.00    +0.067 C 
ATOM     18  C   UNL     1      31.243 -23.106 -14.999  0.00  0.00    +0.018 C 
ATOM     19  C   UNL     1      31.213 -25.279 -13.904  0.00  0.00    +0.016 C 
ATOM     20  C   UNL     1      29.907 -25.524 -14.338  0.00  0.00    +0.017 C 
ATOM     21  C   UNL     1      28.974 -22.638 -16.209  0.00  0.00    +0.119 C 
ATOM     22  H   UNL     1      27.386 -25.168 -15.599  0.00  0.00    +0.174 HD
ENDBRANCH   1  15
BRANCH   7  24
ATOM     23  N   UNL     1      34.235 -21.945 -18.032  0.00  0.00    -0.398 NA
ATOM     24  C   UNL     1      35.470 -22.104 -17.504  0.00  0.00    +0.197 C 
ATOM     25  C   UNL     1      36.633 -21.653 -18.113  0.00  0.00    +0.098 C 
ATOM     26  C   UNL     1      34.164 -21.305 -19.221  0.00  0.00    +0.110 C 
ATOM     27  C   UNL     1      36.520 -21.000 -19.335  0.00  0.00    -0.016 C 
ATOM     28  C   UNL     1      35.265 -20.818 -19.907  0.00  0.00    +0.023 C 
ATOM     29  C   UNL     1      32.802 -21.129 -19.805  0.00  0.00    +0.066 C 
ENDBRANCH   7  24
TORSDOF 2
ENDMDL
MODEL 4
REMARK VINA RESULT:     -11.9      1.761      5.030
REMARK  Name = 9998128
REMARK  2 active torsions:
REMARK  status: ('A' for Active; 'I' for Inactive)
REMARK    1  A    between atoms: N_1  and  C_15
REMARK    2  A    between atoms: C_7  and  C_24
REMARK                            x       y       z     vdW  Elec       q    Type
REMARK                         _______ _______ _______ _____ _____    ______ ____
ROOT
ATOM      1  N   UNL     1      34.961 -25.350 -14.014  0.00  0.00    -0.290 N 
ATOM      2  N   UNL     1      34.667 -23.849 -15.802  0.00  0.00    -0.327 NA
ATOM      3  N   UNL     1      32.508 -22.879 -16.250  0.00  0.00    -0.342 NA
ATOM      4  C   UNL     1      32.764 -24.404 -14.418  0.00  0.00    +0.143 C 
ATOM      5  C   UNL     1      34.108 -24.508 -14.770  0.00  0.00    +0.184 C 
ATOM      6  C   UNL     1      31.981 -23.552 -15.212  0.00  0.00    +0.133 C 
ATOM      7  C   UNL     1      33.822 -23.064 -16.489  0.00  0.00    +0.165 C 
ATOM      8  C   UNL     1      32.203 -25.104 -13.336  0.00  0.00    -0.011 C 
ATOM      9  C   UNL     1      30.632 -23.422 -14.892  0.00  0.00    +0.029 C 
ATOM     10  C   UNL     1      30.853 -24.956 -13.037  0.00  0.00    -0.004 C 
ATOM     11  C   UNL     1      30.066 -24.113 -13.816  0.00  0.00    +0.002 C 
ATOM     12  H   UNL     1      34.503 -26.126 -13.616  0.00  0.00    +0.154 HD
ENDROOT
BRANCH   1  15
ATOM     13  N   UNL     1      40.396 -25.249 -13.127  0.00  0.00    -0.236 N 
ATOM     14  N   UNL     1      40.917 -25.796 -14.239  0.00  0.00    -0.180 NA
ATOM     15  C   UNL     1      36.333 -25.293 -13.723  0.00  0.00    +0.050 C 
ATOM     16  C   UNL     1      38.633 -25.715 -14.345  0.00  0.00    +0.037 C 
ATOM     17  C   UNL     1      39.030 -25.172 -13.128  0.00  0.00    +0.067 C 
ATOM     18  C   UNL     1      37.264 -25.780 -14.656  0.00  0.00    +0.018 C 
ATOM     19  C   UNL     1      36.768 -24.753 -12.506  0.00  0.00    +0.016 C 
ATOM     20  C   UNL     1      38.127 -24.680 -12.183  0.00  0.00    +0.017 C 
ATOM     21  C   UNL     1      39.841 -26.077 -14.977  0.00  0.00    +0.119 C 
ATOM     22  H   UNL     1      40.950 -24.932 -12.378  0.00  0.00    +0.174 HD
ENDBRANCH   1  15
BRANCH   7  24
ATOM     23  N   UNL     1      33.472 -21.783 -18.437  0.00  0.00    -0.398 NA
ATOM     24  C   UNL     1      34.379 -22.340 -17.602  0.00  0.00    +0.197 C 
ATOM     25  C   UNL     1      35.752 -22.241 -17.778  0.00  0.00    +0.098 C 
ATOM     26  C   UNL     1      33.964 -21.096 -19.492  0.00  0.00    +0.110 C 
ATOM     27  C   UNL     1      36.220 -21.527 -18.875  0.00  0.00    -0.016 C 
ATOM     28  C   UNL     1      35.315 -20.940 -19.754  0.00  0.00    +0.023 C 
ATOM     29  C   UNL     1      32.965 -20.481 -20.414  0.00  0.00    +0.066 C 
ENDBRANCH   7  24
TORSDOF 2
ENDMDL
MODEL 5
REMARK VINA RESULT:     -11.7      2.056      6.295
REMARK  Name = 9998128
REMARK  2 active torsions:
REMARK  status: ('A' for Active; 'I' for Inactive)
REMARK    1  A    between atoms: N_1  and  C_15
REMARK    2  A    between atoms: C_7  and  C_24
REMARK                            x       y       z     vdW  Elec       q    Type
REMARK                         _______ _______ _______ _____ _____    ______ ____
ROOT
ATOM      1  N   UNL     1      35.487 -22.495 -17.491  0.00  0.00    -0.290 N 
ATOM      2  N   UNL     1      33.440 -23.006 -16.448  0.00  0.00    -0.327 NA
ATOM      3  N   UNL     1      33.376 -23.717 -14.147  0.00  0.00    -0.342 NA
ATOM      4  C   UNL     1      35.483 -23.207 -15.172  0.00  0.00    +0.143 C 
ATOM      5  C   UNL     1      34.779 -22.916 -16.338  0.00  0.00    +0.184 C 
ATOM      6  C   UNL     1      34.715 -23.616 -14.070  0.00  0.00    +0.133 C 
ATOM      7  C   UNL     1      32.811 -23.406 -15.332  0.00  0.00    +0.165 C 
ATOM      8  C   UNL     1      36.882 -23.106 -15.081  0.00  0.00    -0.011 C 
ATOM      9  C   UNL     1      35.384 -23.917 -12.886  0.00  0.00    +0.029 C 
ATOM     10  C   UNL     1      37.526 -23.412 -13.886  0.00  0.00    -0.004 C 
ATOM     11  C   UNL     1      36.775 -23.818 -12.787  0.00  0.00    +0.002 C 
ATOM     12  H   UNL     1      36.398 -22.866 -17.555  0.00  0.00    +0.154 HD
ENDROOT
BRANCH   1  15
ATOM     13  N   UNL     1      34.407 -19.114 -21.702  0.00  0.00    -0.236 N 
ATOM     14  N   UNL     1      35.600 -18.569 -21.996  0.00  0.00    -0.180 NA
ATOM     15  C   UNL     1      35.142 -21.655 -18.560  0.00  0.00    +0.050 C 
ATOM     16  C   UNL     1      35.765 -20.039 -20.250  0.00  0.00    +0.037 C 
ATOM     17  C   UNL     1      34.438 -20.004 -20.664  0.00  0.00    +0.067 C 
ATOM     18  C   UNL     1      36.131 -20.876 -19.182  0.00  0.00    +0.018 C 
ATOM     19  C   UNL     1      33.814 -21.594 -19.002  0.00  0.00    +0.016 C 
ATOM     20  C   UNL     1      33.434 -20.768 -20.064  0.00  0.00    +0.017 C 
ATOM     21  C   UNL     1      36.424 -19.135 -21.111  0.00  0.00    +0.119 C 
ATOM     22  H   UNL     1      33.583 -18.891 -22.192  0.00  0.00    +0.174 HD
ENDBRANCH   1  15
BRANCH   7  24
ATOM     23  N   UNL     1      30.842 -24.534 -14.694  0.00  0.00    -0.398 NA
ATOM     24  C   UNL     1      31.378 -23.516 -15.406  0.00  0.00    +0.197 C 
ATOM     25  C   UNL     1      30.629 -22.627 -16.163  0.00  0.00    +0.098 C 
ATOM     26  C   UNL     1      29.497 -24.664 -14.744  0.00  0.00    +0.110 C 
ATOM     27  C   UNL     1      29.249 -22.792 -16.190  0.00  0.00    -0.016 C 
ATOM     28  C   UNL     1      28.664 -23.829 -15.469  0.00  0.00    +0.023 C 
ATOM     29  C   UNL     1      28.905 -25.787 -13.960  0.00  0.00    +0.066 C 
ENDBRANCH   7  24
TORSDOF 2
ENDMDL
MODEL 6
REMARK VINA RESULT:     -11.4      1.968      6.037
REMARK  Name = 9998128
REMARK  2 active torsions:
REMARK  status: ('A' for Active; 'I' for Inactive)
REMARK    1  A    between atoms: N_1  and  C_15
REMARK    2  A    between atoms: C_7  and  C_24
REMARK                            x       y       z     vdW  Elec       q    Type
REMARK                         _______ _______ _______ _____ _____    ______ ____
ROOT
ATOM      1  N   UNL     1      35.891 -23.093 -15.987  0.00  0.00    -0.290 N 
ATOM      2  N   UNL     1      33.775 -23.688 -15.147  0.00  0.00    -0.327 NA
ATOM      3  N   UNL     1      33.489 -24.244 -12.820  0.00  0.00    -0.342 NA
ATOM      4  C   UNL     1      35.662 -23.644 -13.636  0.00  0.00    +0.143 C 
ATOM      5  C   UNL     1      35.082 -23.487 -14.893  0.00  0.00    +0.184 C 
ATOM      6  C   UNL     1      34.799 -24.035 -12.601  0.00  0.00    +0.133 C 
ATOM      7  C   UNL     1      33.048 -24.060 -14.081  0.00  0.00    +0.165 C 
ATOM      8  C   UNL     1      37.030 -23.429 -13.396  0.00  0.00    -0.011 C 
ATOM      9  C   UNL     1      35.342 -24.203 -11.329  0.00  0.00    +0.029 C 
ATOM     10  C   UNL     1      37.547 -23.603 -12.116  0.00  0.00    -0.004 C 
ATOM     11  C   UNL     1      36.702 -23.991 -11.081  0.00  0.00    +0.002 C 
ATOM     12  H   UNL     1      36.827 -23.395 -15.919  0.00  0.00    +0.154 HD
ENDROOT
BRANCH   1  15
ATOM     13  N   UNL     1      34.542 -20.275 -20.524  0.00  0.00    -0.236 N 
ATOM     14  N   UNL     1      33.216 -20.458 -20.638  0.00  0.00    -0.180 NA
ATOM     15  C   UNL     1      35.618 -22.355 -17.150  0.00  0.00    +0.050 C 
ATOM     16  C   UNL     1      34.049 -21.542 -18.803  0.00  0.00    +0.037 C 
ATOM     17  C   UNL     1      35.103 -20.899 -19.443  0.00  0.00    +0.067 C 
ATOM     18  C   UNL     1      34.302 -22.284 -17.637  0.00  0.00    +0.018 C 
ATOM     19  C   UNL     1      36.656 -21.696 -17.820  0.00  0.00    +0.016 C 
ATOM     20  C   UNL     1      36.421 -20.953 -18.982  0.00  0.00    +0.017 C 
ATOM     21  C   UNL     1      32.920 -21.229 -19.589  0.00  0.00    +0.119 C 
ATOM     22  H   UNL     1      35.064 -19.738 -21.162  0.00  0.00    +0.174 HD
ENDBRANCH   1  15
BRANCH   7  24
ATOM     23  N   UNL     1      31.047 -23.397 -15.137  0.00  0.00    -0.398 NA
ATOM     24  C   UNL     1      31.645 -24.285 -14.309  0.00  0.00    +0.197 C 
ATOM     25  C   UNL     1      30.982 -25.345 -13.707  0.00  0.00    +0.098 C 
ATOM     26  C   UNL     1      29.728 -23.582 -15.370  0.00  0.00    +0.110 C 
ATOM     27  C   UNL     1      29.626 -25.502 -13.970  0.00  0.00    -0.016 C 
ATOM     28  C   UNL     1      28.979 -24.608 -14.817  0.00  0.00    +0.023 C 
ATOM     29  C   UNL     1      29.067 -22.604 -16.282  0.00  0.00    +0.066 C 
ENDBRANCH   7  24
TORSDOF 2
ENDMDL
MODEL 7
REMARK VINA RESULT:     -11.0      2.084      7.366
REMARK  Name = 9998128
REMARK  2 active torsions:
REMARK  status: ('A' for Active; 'I' for Inactive)
REMARK    1  A    between atoms: N_1  and  C_15
REMARK    2  A    between atoms: C_7  and  C_24
REMARK                            x       y       z     vdW  Elec       q    Type
REMARK                         _______ _______ _______ _____ _____    ______ ____
ROOT
ATOM      1  N   UNL     1      32.140 -22.358 -16.999  0.00  0.00    -0.290 N 
ATOM      2  N   UNL     1      33.427 -23.068 -15.162  0.00  0.00    -0.327 NA
ATOM      3  N   UNL     1      32.508 -24.582 -13.528  0.00  0.00    -0.342 NA
ATOM      4  C   UNL     1      31.162 -23.882 -15.385  0.00  0.00    +0.143 C 
ATOM      5  C   UNL     1      32.250 -23.124 -15.812  0.00  0.00    +0.184 C 
ATOM      6  C   UNL     1      31.344 -24.615 -14.202  0.00  0.00    +0.133 C 
ATOM      7  C   UNL     1      33.486 -23.810 -14.044  0.00  0.00    +0.165 C 
ATOM      8  C   UNL     1      29.941 -23.924 -16.082  0.00  0.00    -0.011 C 
ATOM      9  C   UNL     1      30.278 -25.385 -13.743  0.00  0.00    +0.029 C 
ATOM     10  C   UNL     1      28.893 -24.701 -15.601  0.00  0.00    -0.004 C 
ATOM     11  C   UNL     1      29.062 -25.432 -14.430  0.00  0.00    +0.002 C 
ATOM     12  H   UNL     1      31.226 -22.040 -17.184  0.00  0.00    +0.154 HD
ENDROOT
BRANCH   1  15
ATOM     13  N   UNL     1      35.633 -20.641 -20.896  0.00  0.00    -0.236 N 
ATOM     14  N   UNL     1      34.904 -19.785 -21.633  0.00  0.00    -0.180 NA
ATOM     15  C   UNL     1      33.082 -21.963 -17.962  0.00  0.00    +0.050 C 
ATOM     16  C   UNL     1      33.672 -20.661 -19.914  0.00  0.00    +0.037 C 
ATOM     17  C   UNL     1      34.952 -21.200 -19.850  0.00  0.00    +0.067 C 
ATOM     18  C   UNL     1      32.716 -21.043 -18.959  0.00  0.00    +0.018 C 
ATOM     19  C   UNL     1      34.380 -22.488 -17.927  0.00  0.00    +0.016 C 
ATOM     20  C   UNL     1      35.343 -22.117 -18.871  0.00  0.00    +0.017 C 
ATOM     21  C   UNL     1      33.712 -19.800 -21.031  0.00  0.00    +0.119 C 
ATOM     22  H   UNL     1      36.575 -20.846 -21.094  0.00  0.00    +0.174 HD
ENDBRANCH   1  15
BRANCH   7  24
ATOM     23  N   UNL     1      34.639 -24.127 -12.013  0.00  0.00    -0.398 NA
ATOM     24  C   UNL     1      34.728 -23.779 -13.318  0.00  0.00    +0.197 C 
ATOM     25  C   UNL     1      35.913 -23.413 -13.939  0.00  0.00    +0.098 C 
ATOM     26  C   UNL     1      35.789 -24.108 -11.303  0.00  0.00    +0.110 C 
ATOM     27  C   UNL     1      37.075 -23.405 -13.176  0.00  0.00    -0.016 C 
ATOM     28  C   UNL     1      37.021 -23.758 -11.832  0.00  0.00    +0.023 C 
ATOM     29  C   UNL     1      35.693 -24.491  -9.864  0.00  0.00    +0.066 C 
ENDBRANCH   7  24
TORSDOF 2
ENDMDL
MODEL 8
REMARK VINA RESULT:     -10.3      1.562      6.735
REMARK  Name = 9998128
REMARK  2 active torsions:
REMARK  status: ('A' for Active; 'I' for Inactive)
REMARK    1  A    between atoms: N_1  and  C_15
REMARK    2  A    between atoms: C_7  and  C_24
REMARK                            x       y       z     vdW  Elec       q    Type
REMARK                         _______ _______ _______ _____ _____    ______ ____
ROOT
ATOM      1  N   UNL     1      32.829 -22.995 -17.375  0.00  0.00    -0.290 N 
ATOM      2  N   UNL     1      34.722 -23.267 -16.004  0.00  0.00    -0.327 NA
ATOM      3  N   UNL     1      36.839 -22.300 -16.625  0.00  0.00    -0.342 NA
ATOM      4  C   UNL     1      34.935 -22.000 -18.051  0.00  0.00    +0.143 C 
ATOM      5  C   UNL     1      34.203 -22.749 -17.133  0.00  0.00    +0.184 C 
ATOM      6  C   UNL     1      36.290 -21.796 -17.744  0.00  0.00    +0.133 C 
ATOM      7  C   UNL     1      36.026 -23.008 -15.816  0.00  0.00    +0.165 C 
ATOM      8  C   UNL     1      34.371 -21.469 -19.224  0.00  0.00    -0.011 C 
ATOM      9  C   UNL     1      37.055 -21.052 -18.639  0.00  0.00    +0.029 C 
ATOM     10  C   UNL     1      35.157 -20.729 -20.101  0.00  0.00    -0.004 C 
ATOM     11  C   UNL     1      36.501 -20.520 -19.808  0.00  0.00    +0.002 C 
ATOM     12  H   UNL     1      32.595 -23.037 -18.331  0.00  0.00    +0.154 HD
ENDROOT
BRANCH   1  15
ATOM     13  N   UNL     1      28.380 -23.610 -14.187  0.00  0.00    -0.236 N 
ATOM     14  N   UNL     1      27.411 -22.955 -14.850  0.00  0.00    -0.180 NA
ATOM     15  C   UNL     1      31.736 -23.191 -16.516  0.00  0.00    +0.050 C 
ATOM     16  C   UNL     1      29.402 -22.855 -15.974  0.00  0.00    +0.037 C 
ATOM     17  C   UNL     1      29.598 -23.587 -14.809  0.00  0.00    +0.067 C 
ATOM     18  C   UNL     1      30.483 -22.649 -16.848  0.00  0.00    +0.018 C 
ATOM     19  C   UNL     1      31.899 -23.923 -15.333  0.00  0.00    +0.016 C 
ATOM     20  C   UNL     1      30.833 -24.137 -14.454  0.00  0.00    +0.017 C 
ATOM     21  C   UNL     1      28.038 -22.497 -15.937  0.00  0.00    +0.119 C 
ATOM     22  H   UNL     1      28.225 -24.066 -13.329  0.00  0.00    +0.174 HD
ENDBRANCH   1  15
BRANCH   7  24
ATOM     23  N   UNL     1      37.762 -24.244 -14.810  0.00  0.00    -0.398 NA
ATOM     24  C   UNL     1      36.621 -23.544 -14.619  0.00  0.00    +0.197 C 
ATOM     25  C   UNL     1      36.040 -23.339 -13.376  0.00  0.00    +0.098 C 
ATOM     26  C   UNL     1      38.345 -24.761 -13.705  0.00  0.00    +0.110 C 
ATOM     27  C   UNL     1      36.668 -23.886 -12.263  0.00  0.00    -0.016 C 
ATOM     28  C   UNL     1      37.844 -24.612 -12.422  0.00  0.00    +0.023 C 
ATOM     29  C   UNL     1      39.604 -25.534 -13.913  0.00  0.00    +0.066 C 
ENDBRANCH   7  24
TORSDOF 2
ENDMDL
MODEL 9
REMARK VINA RESULT:     -10.1      1.822      6.304
REMARK  Name = 9998128
REMARK  2 active torsions:
REMARK  status: ('A' for Active; 'I' for Inactive)
REMARK    1  A    between atoms: N_1  and  C_15
REMARK    2  A    between atoms: C_7  and  C_24
REMARK                            x       y       z     vdW  Elec       q    Type
REMARK                         _______ _______ _______ _____ _____    ______ ____
ROOT
ATOM      1  N   UNL     1      33.056 -23.130 -17.106  0.00  0.00    -0.290 N 
ATOM      2  N   UNL     1      35.106 -23.336 -15.969  0.00  0.00    -0.327 NA
ATOM      3  N   UNL     1      37.083 -22.232 -16.791  0.00  0.00    -0.342 NA
ATOM      4  C   UNL     1      35.014 -21.997 -17.979  0.00  0.00    +0.143 C 
ATOM      5  C   UNL     1      34.434 -22.814 -17.012  0.00  0.00    +0.184 C 
ATOM      6  C   UNL     1      36.383 -21.726 -17.822  0.00  0.00    +0.133 C 
ATOM      7  C   UNL     1      36.407 -23.010 -15.921  0.00  0.00    +0.165 C 
ATOM      8  C   UNL     1      34.291 -21.463 -19.061  0.00  0.00    -0.011 C 
ATOM      9  C   UNL     1      36.999 -20.913 -18.770  0.00  0.00    +0.029 C 
ATOM     10  C   UNL     1      34.931 -20.653 -19.993  0.00  0.00    -0.004 C 
ATOM     11  C   UNL     1      36.287 -20.378 -19.847  0.00  0.00    +0.002 C 
ATOM     12  H   UNL     1      32.716 -23.156 -18.030  0.00  0.00    +0.154 HD
ENDROOT
BRANCH   1  15
ATOM     13  N   UNL     1      29.434 -24.383 -13.150  0.00  0.00    -0.236 N 
ATOM     14  N   UNL     1      30.158 -25.071 -12.252  0.00  0.00    -0.180 NA
ATOM     15  C   UNL     1      32.081 -23.414 -16.136  0.00  0.00    +0.050 C 
ATOM     16  C   UNL     1      31.442 -24.418 -14.030  0.00  0.00    +0.037 C 
ATOM     17  C   UNL     1      30.145 -23.963 -14.241  0.00  0.00    +0.067 C 
ATOM     18  C   UNL     1      32.432 -24.143 -14.988  0.00  0.00    +0.018 C 
ATOM     19  C   UNL     1      30.765 -22.971 -16.317  0.00  0.00    +0.016 C 
ATOM     20  C   UNL     1      29.768 -23.236 -15.372  0.00  0.00    +0.017 C 
ATOM     21  C   UNL     1      31.380 -25.090 -12.790  0.00  0.00    +0.119 C 
ATOM     22  H   UNL     1      28.474 -24.198 -13.033  0.00  0.00    +0.174 HD
ENDBRANCH   1  15
BRANCH   7  24
ATOM     23  N   UNL     1      38.278 -24.231 -15.170  0.00  0.00    -0.398 NA
ATOM     24  C   UNL     1      37.164 -23.547 -14.821  0.00  0.00    +0.197 C 
ATOM     25  C   UNL     1      36.753 -23.361 -13.509  0.00  0.00    +0.098 C 
ATOM     26  C   UNL     1      39.011 -24.749 -14.158  0.00  0.00    +0.110 C 
ATOM     27  C   UNL     1      37.531 -23.908 -12.496  0.00  0.00    -0.016 C 
ATOM     28  C   UNL     1      38.684 -24.617 -12.818  0.00  0.00    +0.023 C 
ATOM     29  C   UNL     1      40.239 -25.503 -14.541  0.00  0.00    +0.066 C 
ENDBRANCH   7  24
TORSDOF 2
ENDMDL
