MODEL 1
REMARK VINA RESULT:     -11.0      0.000      0.000
REMARK  Name = 72165228
REMARK  6 active torsions:
REMARK  status: ('A' for Active; 'I' for Inactive)
REMARK    1  A    between atoms: C_3  and  C_9
REMARK    2  A    between atoms: C_5  and  C_22
REMARK    3  A    between atoms: C_14  and  O_18
REMARK    4  A    between atoms: N_21  and  C_24
REMARK    5  A    between atoms: C_29  and  O_30
REMARK    6  A    between atoms: O_30  and  C_34
REMARK                            x       y       z     vdW  Elec       q    Type
REMARK                         _______ _______ _______ _____ _____    ______ ____
ROOT
ATOM      1  N   UNL     1      37.310 -22.687 -15.886  0.00  0.00    -0.229 NA
ATOM      2  C   UNL     1      36.382 -23.181 -15.036  0.00  0.00    +0.133 C 
ATOM      3  C   UNL     1      35.022 -23.210 -15.303  0.00  0.00    +0.047 C 
ATOM      4  C   UNL     1      34.587 -22.702 -16.521  0.00  0.00    +0.010 C 
ATOM      5  C   UNL     1      35.511 -22.186 -17.423  0.00  0.00    +0.073 C 
ATOM      6  C   UNL     1      36.849 -22.201 -17.061  0.00  0.00    +0.105 C 
ATOM      7  N   UNL     1      36.829 -23.680 -13.831  0.00  0.00    -0.291 N 
ATOM      8  C   UNL     1      37.717 -25.148 -12.215  0.00  0.00    +0.132 C 
ATOM      9  C   UNL     1      37.397 -23.817 -11.551  0.00  0.00    +0.052 C 
ATOM     10  C   UNL     1      37.761 -24.803 -13.703  0.00  0.00    +0.121 C 
ATOM     11  C   UNL     1      36.421 -23.163 -12.528  0.00  0.00    +0.095 C 
ENDROOT
BRANCH   3  14
ATOM     12  N   UNL     1      33.181 -22.956 -13.680  0.00  0.00    -0.236 N 
ATOM     13  N   UNL     1      32.363 -23.641 -12.863  0.00  0.00    -0.180 NA
ATOM     14  C   UNL     1      34.056 -23.743 -14.370  0.00  0.00    +0.069 C 
ATOM     15  C   UNL     1      33.793 -25.032 -13.977  0.00  0.00    +0.038 C 
ATOM     16  C   UNL     1      32.742 -24.909 -13.048  0.00  0.00    +0.119 C 
ATOM     17  H   UNL     1      33.151 -21.977 -13.773  0.00  0.00    +0.174 HD
ENDBRANCH   3  14
BRANCH   5  20
ATOM     18  O   UNL     1      34.173 -22.211 -19.326  0.00  0.00    -0.270 OA
ATOM     19  N   UNL     1      35.787 -20.516 -19.154  0.00  0.00    -0.280 N 
ATOM     20  C   UNL     1      35.089 -21.647 -18.704  0.00  0.00    +0.251 C 
ATOM     21  H   UNL     1      36.489 -20.179 -18.552  0.00  0.00    +0.155 HD
BRANCH  19  22
ATOM     22  C   UNL     1      35.616 -19.795 -20.361  0.00  0.00    +0.051 C 
ATOM     23  C   UNL     1      34.439 -19.937 -21.097  0.00  0.00    +0.018 C 
ATOM     24  C   UNL     1      36.623 -18.944 -20.815  0.00  0.00    +0.018 C 
ATOM     25  C   UNL     1      34.270 -19.228 -22.286  0.00  0.00    +0.038 C 
ATOM     26  C   UNL     1      36.455 -18.234 -22.003  0.00  0.00    +0.038 C 
ATOM     27  C   UNL     1      35.278 -18.376 -22.740  0.00  0.00    +0.145 C 
BRANCH  27  28
ATOM     28  O   UNL     1      35.112 -17.684 -23.899  0.00  0.00    -0.418 OA
BRANCH  28  32
ATOM     29 CL   UNL     1      33.498 -15.967 -25.042  0.00  0.00    +0.000 Cl
ATOM     30  F   UNL     1      34.256 -16.022 -22.596  0.00  0.00    -0.149 F 
ATOM     31  F   UNL     1      35.822 -15.524 -24.059  0.00  0.00    -0.149 F 
ATOM     32  C   UNL     1      34.739 -16.307 -23.830  0.00  0.00    +0.489 C 
ENDBRANCH  28  32
ENDBRANCH  27  28
ENDBRANCH  19  22
ENDBRANCH   5  20
BRANCH   8  33
ATOM     33  O   UNL     1      36.667 -26.079 -11.980  0.00  0.00    -0.383 OA
ATOM     34  H   UNL     1      36.055 -25.717 -11.321  0.00  0.00    +0.210 HD
ENDBRANCH   8  33
TORSDOF 6
ENDMDL
MODEL 2
REMARK VINA RESULT:     -10.5      8.495     14.747
REMARK  Name = 72165228
REMARK  6 active torsions:
REMARK  status: ('A' for Active; 'I' for Inactive)
REMARK    1  A    between atoms: C_3  and  C_9
REMARK    2  A    between atoms: C_5  and  C_22
REMARK    3  A    between atoms: C_14  and  O_18
REMARK    4  A    between atoms: N_21  and  C_24
REMARK    5  A    between atoms: C_29  and  O_30
REMARK    6  A    between atoms: O_30  and  C_34
REMARK                            x       y       z     vdW  Elec       q    Type
REMARK                         _______ _______ _______ _____ _____    ______ ____
ROOT
ATOM      1  N   UNL     1      31.281  -9.432 -21.740  0.00  0.00    -0.229 NA
ATOM      2  C   UNL     1      32.085  -8.487 -22.278  0.00  0.00    +0.133 C 
ATOM      3  C   UNL     1      33.188  -8.765 -23.068  0.00  0.00    +0.047 C 
ATOM      4  C   UNL     1      33.486 -10.099 -23.325  0.00  0.00    +0.010 C 
ATOM      5  C   UNL     1      32.682 -11.100 -22.790  0.00  0.00    +0.073 C 
ATOM      6  C   UNL     1      31.602 -10.717 -22.011  0.00  0.00    +0.105 C 
ATOM      7  N   UNL     1      31.778  -7.169 -22.013  0.00  0.00    -0.291 N 
ATOM      8  C   UNL     1      30.773  -5.041 -22.147  0.00  0.00    +0.132 C 
ATOM      9  C   UNL     1      31.785  -5.039 -21.011  0.00  0.00    +0.052 C 
ATOM     10  C   UNL     1      30.517  -6.528 -22.394  0.00  0.00    +0.121 C 
ATOM     11  C   UNL     1      32.675  -6.240 -21.331  0.00  0.00    +0.095 C 
ENDROOT
BRANCH   3  14
ATOM     12  N   UNL     1      33.636  -6.936 -24.662  0.00  0.00    -0.236 N 
ATOM     13  N   UNL     1      34.561  -6.034 -25.035  0.00  0.00    -0.180 NA
ATOM     14  C   UNL     1      34.029  -7.731 -23.626  0.00  0.00    +0.069 C 
ATOM     15  C   UNL     1      35.298  -7.322 -23.298  0.00  0.00    +0.038 C 
ATOM     16  C   UNL     1      35.574  -6.275 -24.198  0.00  0.00    +0.119 C 
ATOM     17  H   UNL     1      32.757  -7.015 -25.096  0.00  0.00    +0.174 HD
ENDBRANCH   3  14
BRANCH   5  20
ATOM     18  O   UNL     1      32.311 -13.108 -23.904  0.00  0.00    -0.270 OA
ATOM     19  N   UNL     1      33.967 -13.077 -22.242  0.00  0.00    -0.280 N 
ATOM     20  C   UNL     1      32.965 -12.502 -23.039  0.00  0.00    +0.251 C 
ATOM     21  H   UNL     1      34.400 -12.472 -21.598  0.00  0.00    +0.155 HD
BRANCH  19  22
ATOM     22  C   UNL     1      34.437 -14.413 -22.242  0.00  0.00    +0.051 C 
ATOM     23  C   UNL     1      34.589 -15.099 -21.037  0.00  0.00    +0.018 C 
ATOM     24  C   UNL     1      34.748 -15.043 -23.447  0.00  0.00    +0.018 C 
ATOM     25  C   UNL     1      35.052 -16.414 -21.037  0.00  0.00    +0.038 C 
ATOM     26  C   UNL     1      35.211 -16.359 -23.448  0.00  0.00    +0.038 C 
ATOM     27  C   UNL     1      35.364 -17.045 -22.242  0.00  0.00    +0.145 C 
BRANCH  27  28
ATOM     28  O   UNL     1      35.814 -18.329 -22.241  0.00  0.00    -0.418 OA
BRANCH  28  32
ATOM     29 CL   UNL     1      34.353 -20.029 -20.888  0.00  0.00    +0.000 Cl
ATOM     30  F   UNL     1      33.802 -18.922 -23.132  0.00  0.00    -0.149 F 
ATOM     31  F   UNL     1      35.454 -20.376 -23.175  0.00  0.00    -0.149 F 
ATOM     32  C   UNL     1      34.877 -19.387 -22.449  0.00  0.00    +0.489 C 
ENDBRANCH  28  32
ENDBRANCH  27  28
ENDBRANCH  19  22
ENDBRANCH   5  20
BRANCH   8  33
ATOM     33  O   UNL     1      31.344  -4.462 -23.315  0.00  0.00    -0.383 OA
ATOM     34  H   UNL     1      32.280  -4.707 -23.373  0.00  0.00    +0.210 HD
ENDBRANCH   8  33
TORSDOF 6
ENDMDL
MODEL 3
REMARK VINA RESULT:      -9.5      8.042     14.051
REMARK  Name = 72165228
REMARK  6 active torsions:
REMARK  status: ('A' for Active; 'I' for Inactive)
REMARK    1  A    between atoms: C_3  and  C_9
REMARK    2  A    between atoms: C_5  and  C_22
REMARK    3  A    between atoms: C_14  and  O_18
REMARK    4  A    between atoms: N_21  and  C_24
REMARK    5  A    between atoms: C_29  and  O_30
REMARK    6  A    between atoms: O_30  and  C_34
REMARK                            x       y       z     vdW  Elec       q    Type
REMARK                         _______ _______ _______ _____ _____    ______ ____
ROOT
ATOM      1  N   UNL     1      32.431  -9.699 -24.590  0.00  0.00    -0.229 NA
ATOM      2  C   UNL     1      32.305  -9.036 -23.417  0.00  0.00    +0.133 C 
ATOM      3  C   UNL     1      32.469  -9.623 -22.173  0.00  0.00    +0.047 C 
ATOM      4  C   UNL     1      32.782 -10.977 -22.128  0.00  0.00    +0.010 C 
ATOM      5  C   UNL     1      32.920 -11.693 -23.312  0.00  0.00    +0.073 C 
ATOM      6  C   UNL     1      32.735 -11.013 -24.506  0.00  0.00    +0.105 C 
ATOM      7  N   UNL     1      31.993  -7.695 -23.479  0.00  0.00    -0.291 N 
ATOM      8  C   UNL     1      32.219  -5.358 -23.688  0.00  0.00    +0.132 C 
ATOM      9  C   UNL     1      30.750  -5.695 -23.479  0.00  0.00    +0.052 C 
ATOM     10  C   UNL     1      32.831  -6.686 -24.132  0.00  0.00    +0.121 C 
ATOM     11  C   UNL     1      30.795  -7.105 -22.889  0.00  0.00    +0.095 C 
ENDROOT
BRANCH   3  14
ATOM     12  N   UNL     1      33.109  -7.817 -20.620  0.00  0.00    -0.236 N 
ATOM     13  N   UNL     1      32.819  -7.268 -19.427  0.00  0.00    -0.180 NA
ATOM     14  C   UNL     1      32.326  -8.887 -20.939  0.00  0.00    +0.069 C 
ATOM     15  C   UNL     1      31.463  -9.049 -19.882  0.00  0.00    +0.038 C 
ATOM     16  C   UNL     1      31.812  -8.025 -18.982  0.00  0.00    +0.119 C 
ATOM     17  H   UNL     1      33.821  -7.478 -21.208  0.00  0.00    +0.174 HD
ENDBRANCH   3  14
BRANCH   5  20
ATOM     18  O   UNL     1      32.739 -13.854 -24.154  0.00  0.00    -0.270 OA
ATOM     19  N   UNL     1      34.114 -13.529 -22.281  0.00  0.00    -0.280 N 
ATOM     20  C   UNL     1      33.246 -13.108 -23.300  0.00  0.00    +0.251 C 
ATOM     21  H   UNL     1      34.438 -12.823 -21.677  0.00  0.00    +0.155 HD
BRANCH  19  22
ATOM     22  C   UNL     1      34.586 -14.836 -22.007  0.00  0.00    +0.051 C 
ATOM     23  C   UNL     1      34.957 -15.677 -23.056  0.00  0.00    +0.018 C 
ATOM     24  C   UNL     1      34.679 -15.282 -20.689  0.00  0.00    +0.018 C 
ATOM     25  C   UNL     1      35.421 -16.965 -22.787  0.00  0.00    +0.038 C 
ATOM     26  C   UNL     1      35.143 -16.569 -20.418  0.00  0.00    +0.038 C 
ATOM     27  C   UNL     1      35.514 -17.411 -21.468  0.00  0.00    +0.145 C 
BRANCH  27  28
ATOM     28  O   UNL     1      35.968 -18.667 -21.205  0.00  0.00    -0.418 OA
BRANCH  28  32
ATOM     29 CL   UNL     1      35.758 -21.049 -20.139  0.00  0.00    +0.000 Cl
ATOM     30  F   UNL     1      33.936 -19.263 -20.364  0.00  0.00    -0.149 F 
ATOM     31  F   UNL     1      34.610 -20.167 -22.253  0.00  0.00    -0.149 F 
ATOM     32  C   UNL     1      35.018 -19.721 -21.040  0.00  0.00    +0.489 C 
ENDBRANCH  28  32
ENDBRANCH  27  28
ENDBRANCH  19  22
ENDBRANCH   5  20
BRANCH   8  33
ATOM     33  O   UNL     1      32.811  -4.956 -22.458  0.00  0.00    -0.383 OA
ATOM     34  H   UNL     1      32.464  -5.505 -21.738  0.00  0.00    +0.210 HD
ENDBRANCH   8  33
TORSDOF 6
ENDMDL
MODEL 4
REMARK VINA RESULT:      -9.5      7.533     13.374
REMARK  Name = 72165228
REMARK  6 active torsions:
REMARK  status: ('A' for Active; 'I' for Inactive)
REMARK    1  A    between atoms: C_3  and  C_9
REMARK    2  A    between atoms: C_5  and  C_22
REMARK    3  A    between atoms: C_14  and  O_18
REMARK    4  A    between atoms: N_21  and  C_24
REMARK    5  A    between atoms: C_29  and  O_30
REMARK    6  A    between atoms: O_30  and  C_34
REMARK                            x       y       z     vdW  Elec       q    Type
REMARK                         _______ _______ _______ _____ _____    ______ ____
ROOT
ATOM      1  N   UNL     1      32.900 -10.199 -24.303  0.00  0.00    -0.229 NA
ATOM      2  C   UNL     1      32.516  -9.699 -23.106  0.00  0.00    +0.133 C 
ATOM      3  C   UNL     1      32.403 -10.454 -21.950  0.00  0.00    +0.047 C 
ATOM      4  C   UNL     1      32.705 -11.809 -22.025  0.00  0.00    +0.010 C 
ATOM      5  C   UNL     1      33.104 -12.360 -23.238  0.00  0.00    +0.073 C 
ATOM      6  C   UNL     1      33.184 -11.521 -24.337  0.00  0.00    +0.105 C 
ATOM      7  N   UNL     1      32.219  -8.354 -23.048  0.00  0.00    -0.291 N 
ATOM      8  C   UNL     1      32.475  -6.017 -22.877  0.00  0.00    +0.132 C 
ATOM      9  C   UNL     1      30.998  -6.341 -23.044  0.00  0.00    +0.052 C 
ATOM     10  C   UNL     1      33.176  -7.288 -23.355  0.00  0.00    +0.121 C 
ATOM     11  C   UNL     1      30.917  -7.819 -22.659  0.00  0.00    +0.095 C 
ENDROOT
BRANCH   3  14
ATOM     12  N   UNL     1      32.597  -8.806 -20.124  0.00  0.00    -0.236 N 
ATOM     13  N   UNL     1      32.063  -8.434 -18.948  0.00  0.00    -0.180 NA
ATOM     14  C   UNL     1      31.988  -9.889 -20.687  0.00  0.00    +0.069 C 
ATOM     15  C   UNL     1      30.986 -10.250 -19.820  0.00  0.00    +0.038 C 
ATOM     16  C   UNL     1      31.079  -9.319 -18.767  0.00  0.00    +0.119 C 
ATOM     17  H   UNL     1      33.358  -8.341 -20.540  0.00  0.00    +0.174 HD
ENDBRANCH   3  14
BRANCH   5  20
ATOM     18  O   UNL     1      32.978 -14.421 -24.311  0.00  0.00    -0.270 OA
ATOM     19  N   UNL     1      34.220 -14.305 -22.323  0.00  0.00    -0.280 N 
ATOM     20  C   UNL     1      33.426 -13.772 -23.350  0.00  0.00    +0.251 C 
ATOM     21  H   UNL     1      34.502 -13.668 -21.628  0.00  0.00    +0.155 HD
BRANCH  19  22
ATOM     22  C   UNL     1      34.668 -15.638 -22.155  0.00  0.00    +0.051 C 
ATOM     23  C   UNL     1      34.797 -16.475 -23.263  0.00  0.00    +0.018 C 
ATOM     24  C   UNL     1      34.982 -16.113 -20.882  0.00  0.00    +0.018 C 
ATOM     25  C   UNL     1      35.238 -17.788 -23.098  0.00  0.00    +0.038 C 
ATOM     26  C   UNL     1      35.424 -17.425 -20.715  0.00  0.00    +0.038 C 
ATOM     27  C   UNL     1      35.552 -18.264 -21.824  0.00  0.00    +0.145 C 
BRANCH  27  28
ATOM     28  O   UNL     1      35.983 -19.544 -21.663  0.00  0.00    -0.418 OA
BRANCH  28  32
ATOM     29 CL   UNL     1      33.865 -20.061 -20.214  0.00  0.00    +0.000 Cl
ATOM     30  F   UNL     1      35.891 -21.573 -20.630  0.00  0.00    -0.149 F 
ATOM     31  F   UNL     1      36.283 -19.780 -19.417  0.00  0.00    -0.149 F 
ATOM     32  C   UNL     1      35.600 -20.256 -20.486  0.00  0.00    +0.489 C 
ENDBRANCH  28  32
ENDBRANCH  27  28
ENDBRANCH  19  22
ENDBRANCH   5  20
BRANCH   8  33
ATOM     33  O   UNL     1      32.779  -5.803 -21.503  0.00  0.00    -0.383 OA
ATOM     34  H   UNL     1      33.701  -5.517 -21.416  0.00  0.00    +0.210 HD
ENDBRANCH   8  33
TORSDOF 6
ENDMDL
MODEL 5
REMARK VINA RESULT:      -9.1      8.355     14.627
REMARK  Name = 72165228
REMARK  6 active torsions:
REMARK  status: ('A' for Active; 'I' for Inactive)
REMARK    1  A    between atoms: C_3  and  C_9
REMARK    2  A    between atoms: C_5  and  C_22
REMARK    3  A    between atoms: C_14  and  O_18
REMARK    4  A    between atoms: N_21  and  C_24
REMARK    5  A    between atoms: C_29  and  O_30
REMARK    6  A    between atoms: O_30  and  C_34
REMARK                            x       y       z     vdW  Elec       q    Type
REMARK                         _______ _______ _______ _____ _____    ______ ____
ROOT
ATOM      1  N   UNL     1      32.549  -9.895 -24.731  0.00  0.00    -0.229 NA
ATOM      2  C   UNL     1      32.495  -8.845 -23.879  0.00  0.00    +0.133 C 
ATOM      3  C   UNL     1      32.564  -8.960 -22.500  0.00  0.00    +0.047 C 
ATOM      4  C   UNL     1      32.696 -10.234 -21.959  0.00  0.00    +0.010 C 
ATOM      5  C   UNL     1      32.755 -11.338 -22.801  0.00  0.00    +0.073 C 
ATOM      6  C   UNL     1      32.677 -11.117 -24.167  0.00  0.00    +0.105 C 
ATOM      7  N   UNL     1      32.363  -7.589 -24.431  0.00  0.00    -0.291 N 
ATOM      8  C   UNL     1      32.896  -5.527 -25.443  0.00  0.00    +0.132 C 
ATOM      9  C   UNL     1      31.393  -5.592 -25.216  0.00  0.00    +0.052 C 
ATOM     10  C   UNL     1      33.334  -6.988 -25.349  0.00  0.00    +0.121 C 
ATOM     11  C   UNL     1      31.244  -6.690 -24.162  0.00  0.00    +0.095 C 
ENDROOT
BRANCH   3  14
ATOM     12  N   UNL     1      31.337  -7.372 -21.065  0.00  0.00    -0.236 N 
ATOM     13  N   UNL     1      31.489  -6.296 -20.274  0.00  0.00    -0.180 NA
ATOM     14  C   UNL     1      32.501  -7.817 -21.619  0.00  0.00    +0.069 C 
ATOM     15  C   UNL     1      33.483  -6.975 -21.157  0.00  0.00    +0.038 C 
ATOM     16  C   UNL     1      32.802  -6.058 -20.334  0.00  0.00    +0.119 C 
ATOM     17  H   UNL     1      30.466  -7.798 -21.230  0.00  0.00    +0.174 HD
ENDBRANCH   3  14
BRANCH   5  20
ATOM     18  O   UNL     1      31.959 -13.171 -21.610  0.00  0.00    -0.270 OA
ATOM     19  N   UNL     1      34.112 -13.324 -22.530  0.00  0.00    -0.280 N 
ATOM     20  C   UNL     1      32.893 -12.682 -22.268  0.00  0.00    +0.251 C 
ATOM     21  H   UNL     1      34.758 -12.812 -23.066  0.00  0.00    +0.155 HD
BRANCH  19  22
ATOM     22  C   UNL     1      34.537 -14.612 -22.122  0.00  0.00    +0.051 C 
ATOM     23  C   UNL     1      34.598 -14.930 -20.765  0.00  0.00    +0.018 C 
ATOM     24  C   UNL     1      34.895 -15.564 -23.077  0.00  0.00    +0.018 C 
ATOM     25  C   UNL     1      35.016 -16.198 -20.363  0.00  0.00    +0.038 C 
ATOM     26  C   UNL     1      35.313 -16.832 -22.677  0.00  0.00    +0.038 C 
ATOM     27  C   UNL     1      35.374 -17.150 -21.319  0.00  0.00    +0.145 C 
BRANCH  27  28
ATOM     28  O   UNL     1      35.781 -18.388 -20.927  0.00  0.00    -0.418 OA
BRANCH  28  32
ATOM     29 CL   UNL     1      35.470 -20.841 -20.066  0.00  0.00    +0.000 Cl
ATOM     30  F   UNL     1      33.655 -19.084 -20.494  0.00  0.00    -0.149 F 
ATOM     31  F   UNL     1      34.678 -19.843 -22.289  0.00  0.00    -0.149 F 
ATOM     32  C   UNL     1      34.854 -19.471 -20.997  0.00  0.00    +0.489 C 
ENDBRANCH  28  32
ENDBRANCH  27  28
ENDBRANCH  19  22
ENDBRANCH   5  20
BRANCH   8  33
ATOM     33  O   UNL     1      33.518  -4.783 -24.402  0.00  0.00    -0.383 OA
ATOM     34  H   UNL     1      34.429  -5.092 -24.284  0.00  0.00    +0.210 HD
ENDBRANCH   8  33
TORSDOF 6
ENDMDL
MODEL 6
REMARK VINA RESULT:      -9.1      1.797      2.094
REMARK  Name = 72165228
REMARK  6 active torsions:
REMARK  status: ('A' for Active; 'I' for Inactive)
REMARK    1  A    between atoms: C_3  and  C_9
REMARK    2  A    between atoms: C_5  and  C_22
REMARK    3  A    between atoms: C_14  and  O_18
REMARK    4  A    between atoms: N_21  and  C_24
REMARK    5  A    between atoms: C_29  and  O_30
REMARK    6  A    between atoms: O_30  and  C_34
REMARK                            x       y       z     vdW  Elec       q    Type
REMARK                         _______ _______ _______ _____ _____    ______ ____
ROOT
ATOM      1  N   UNL     1      38.483 -23.087 -15.121  0.00  0.00    -0.229 NA
ATOM      2  C   UNL     1      37.376 -23.608 -14.546  0.00  0.00    +0.133 C 
ATOM      3  C   UNL     1      36.082 -23.259 -14.898  0.00  0.00    +0.047 C 
ATOM      4  C   UNL     1      35.913 -22.315 -15.905  0.00  0.00    +0.010 C 
ATOM      5  C   UNL     1      37.027 -21.757 -16.520  0.00  0.00    +0.073 C 
ATOM      6  C   UNL     1      38.279 -22.171 -16.095  0.00  0.00    +0.105 C 
ATOM      7  N   UNL     1      37.560 -24.541 -13.548  0.00  0.00    -0.291 N 
ATOM      8  C   UNL     1      37.942 -26.594 -12.456  0.00  0.00    +0.132 C 
ATOM      9  C   UNL     1      37.784 -25.501 -11.410  0.00  0.00    +0.052 C 
ATOM     10  C   UNL     1      38.246 -25.821 -13.738  0.00  0.00    +0.121 C 
ATOM     11  C   UNL     1      37.083 -24.380 -12.178  0.00  0.00    +0.095 C 
ENDROOT
BRANCH   3  14
ATOM     12  N   UNL     1      34.166 -23.158 -13.346  0.00  0.00    -0.236 N 
ATOM     13  N   UNL     1      33.127 -23.866 -12.871  0.00  0.00    -0.180 NA
ATOM     14  C   UNL     1      34.919 -23.834 -14.262  0.00  0.00    +0.069 C 
ATOM     15  C   UNL     1      34.332 -25.068 -14.394  0.00  0.00    +0.038 C 
ATOM     16  C   UNL     1      33.233 -25.032 -13.515  0.00  0.00    +0.119 C 
ATOM     17  H   UNL     1      34.366 -22.238 -13.060  0.00  0.00    +0.174 HD
ENDBRANCH   3  14
BRANCH   5  20
ATOM     18  O   UNL     1      37.504 -19.695 -17.486  0.00  0.00    -0.270 OA
ATOM     19  N   UNL     1      36.019 -21.110 -18.624  0.00  0.00    -0.280 N 
ATOM     20  C   UNL     1      36.885 -20.768 -17.575  0.00  0.00    +0.251 C 
ATOM     21  H   UNL     1      35.599 -21.998 -18.559  0.00  0.00    +0.155 HD
BRANCH  19  22
ATOM     22  C   UNL     1      35.669 -20.346 -19.764  0.00  0.00    +0.051 C 
ATOM     23  C   UNL     1      36.635 -19.577 -20.412  0.00  0.00    +0.018 C 
ATOM     24  C   UNL     1      34.357 -20.364 -20.240  0.00  0.00    +0.018 C 
ATOM     25  C   UNL     1      36.290 -18.824 -21.534  0.00  0.00    +0.038 C 
ATOM     26  C   UNL     1      34.012 -19.612 -21.362  0.00  0.00    +0.038 C 
ATOM     27  C   UNL     1      34.979 -18.841 -22.010  0.00  0.00    +0.145 C 
BRANCH  27  28
ATOM     28  O   UNL     1      34.643 -18.108 -23.106  0.00  0.00    -0.418 OA
BRANCH  28  32
ATOM     29 CL   UNL     1      35.151 -20.337 -24.383  0.00  0.00    +0.000 Cl
ATOM     30  F   UNL     1      32.960 -19.011 -24.349  0.00  0.00    -0.149 F 
ATOM     31  F   UNL     1      34.638 -18.035 -25.383  0.00  0.00    -0.149 F 
ATOM     32  C   UNL     1      34.297 -18.792 -24.312  0.00  0.00    +0.489 C 
ENDBRANCH  28  32
ENDBRANCH  27  28
ENDBRANCH  19  22
ENDBRANCH   5  20
BRANCH   8  33
ATOM     33  O   UNL     1      36.718 -27.303 -12.614  0.00  0.00    -0.383 OA
ATOM     34  H   UNL     1      36.842 -28.025 -13.249  0.00  0.00    +0.210 HD
ENDBRANCH   8  33
TORSDOF 6
ENDMDL
MODEL 7
REMARK VINA RESULT:      -8.4      6.425     12.379
REMARK  Name = 72165228
REMARK  6 active torsions:
REMARK  status: ('A' for Active; 'I' for Inactive)
REMARK    1  A    between atoms: C_3  and  C_9
REMARK    2  A    between atoms: C_5  and  C_22
REMARK    3  A    between atoms: C_14  and  O_18
REMARK    4  A    between atoms: N_21  and  C_24
REMARK    5  A    between atoms: C_29  and  O_30
REMARK    6  A    between atoms: O_30  and  C_34
REMARK                            x       y       z     vdW  Elec       q    Type
REMARK                         _______ _______ _______ _____ _____    ______ ____
ROOT
ATOM      1  N   UNL     1      34.288 -12.165 -24.172  0.00  0.00    -0.229 NA
ATOM      2  C   UNL     1      33.478 -11.615 -23.239  0.00  0.00    +0.133 C 
ATOM      3  C   UNL     1      32.922 -12.318 -22.182  0.00  0.00    +0.047 C 
ATOM      4  C   UNL     1      33.218 -13.672 -22.074  0.00  0.00    +0.010 C 
ATOM      5  C   UNL     1      34.047 -14.274 -23.014  0.00  0.00    +0.073 C 
ATOM      6  C   UNL     1      34.551 -13.484 -24.035  0.00  0.00    +0.105 C 
ATOM      7  N   UNL     1      33.194 -10.271 -23.361  0.00  0.00    -0.291 N 
ATOM      8  C   UNL     1      33.385  -7.927 -23.211  0.00  0.00    +0.132 C 
ATOM      9  C   UNL     1      32.083  -8.272 -23.918  0.00  0.00    +0.052 C 
ATOM     10  C   UNL     1      34.204  -9.212 -23.325  0.00  0.00    +0.121 C 
ATOM     11  C   UNL     1      31.847  -9.731 -23.527  0.00  0.00    +0.095 C 
ENDROOT
BRANCH   3  14
ATOM     12  N   UNL     1      30.702 -11.655 -21.336  0.00  0.00    -0.236 N 
ATOM     13  N   UNL     1      30.077 -11.037 -20.319  0.00  0.00    -0.180 NA
ATOM     14  C   UNL     1      32.059 -11.699 -21.203  0.00  0.00    +0.069 C 
ATOM     15  C   UNL     1      32.341 -11.066 -20.018  0.00  0.00    +0.038 C 
ATOM     16  C   UNL     1      31.084 -10.679 -19.517  0.00  0.00    +0.119 C 
ATOM     17  H   UNL     1      30.224 -12.041 -22.105  0.00  0.00    +0.174 HD
ENDBRANCH   3  14
BRANCH   5  20
ATOM     18  O   UNL     1      34.331 -16.380 -23.959  0.00  0.00    -0.270 OA
ATOM     19  N   UNL     1      34.700 -16.166 -21.652  0.00  0.00    -0.280 N 
ATOM     20  C   UNL     1      34.375 -15.686 -22.930  0.00  0.00    +0.251 C 
ATOM     21  H   UNL     1      34.694 -15.497 -20.930  0.00  0.00    +0.155 HD
BRANCH  19  22
ATOM     22  C   UNL     1      35.036 -17.486 -21.264  0.00  0.00    +0.051 C 
ATOM     23  C   UNL     1      36.374 -17.852 -21.119  0.00  0.00    +0.018 C 
ATOM     24  C   UNL     1      34.028 -18.421 -21.026  0.00  0.00    +0.018 C 
ATOM     25  C   UNL     1      36.704 -19.152 -20.737  0.00  0.00    +0.038 C 
ATOM     26  C   UNL     1      34.357 -19.721 -20.644  0.00  0.00    +0.038 C 
ATOM     27  C   UNL     1      35.697 -20.087 -20.499  0.00  0.00    +0.145 C 
BRANCH  27  28
ATOM     28  O   UNL     1      36.019 -21.355 -20.125  0.00  0.00    -0.418 OA
BRANCH  28  32
ATOM     29 CL   UNL     1      36.504 -21.965 -17.625  0.00  0.00    +0.000 Cl
ATOM     30  F   UNL     1      34.293 -21.174 -18.649  0.00  0.00    -0.149 F 
ATOM     31  F   UNL     1      34.957 -23.179 -19.268  0.00  0.00    -0.149 F 
ATOM     32  C   UNL     1      35.374 -21.921 -18.984  0.00  0.00    +0.489 C 
ENDBRANCH  28  32
ENDBRANCH  27  28
ENDBRANCH  19  22
ENDBRANCH   5  20
BRANCH   8  33
ATOM     33  O   UNL     1      33.139  -7.647 -21.837  0.00  0.00    -0.383 OA
ATOM     34  H   UNL     1      32.209  -7.400 -21.719  0.00  0.00    +0.210 HD
ENDBRANCH   8  33
TORSDOF 6
ENDMDL
MODEL 8
REMARK VINA RESULT:      -8.1      1.976      2.479
REMARK  Name = 72165228
REMARK  6 active torsions:
REMARK  status: ('A' for Active; 'I' for Inactive)
REMARK    1  A    between atoms: C_3  and  C_9
REMARK    2  A    between atoms: C_5  and  C_22
REMARK    3  A    between atoms: C_14  and  O_18
REMARK    4  A    between atoms: N_21  and  C_24
REMARK    5  A    between atoms: C_29  and  O_30
REMARK    6  A    between atoms: O_30  and  C_34
REMARK                            x       y       z     vdW  Elec       q    Type
REMARK                         _______ _______ _______ _____ _____    ______ ____
ROOT
ATOM      1  N   UNL     1      37.272 -21.820 -16.586  0.00  0.00    -0.229 NA
ATOM      2  C   UNL     1      36.079 -22.409 -16.343  0.00  0.00    +0.133 C 
ATOM      3  C   UNL     1      34.974 -22.291 -17.170  0.00  0.00    +0.047 C 
ATOM      4  C   UNL     1      35.100 -21.520 -18.321  0.00  0.00    +0.010 C 
ATOM      5  C   UNL     1      36.311 -20.898 -18.604  0.00  0.00    +0.073 C 
ATOM      6  C   UNL     1      37.357 -21.077 -17.713  0.00  0.00    +0.105 C 
ATOM      7  N   UNL     1      35.969 -23.169 -15.199  0.00  0.00    -0.291 N 
ATOM      8  C   UNL     1      36.102 -24.988 -13.706  0.00  0.00    +0.132 C 
ATOM      9  C   UNL     1      35.490 -23.799 -12.982  0.00  0.00    +0.052 C 
ATOM     10  C   UNL     1      36.781 -24.356 -14.920  0.00  0.00    +0.121 C 
ATOM     11  C   UNL     1      35.020 -22.897 -14.123  0.00  0.00    +0.095 C 
ENDROOT
BRANCH   3  14
ATOM     12  N   UNL     1      32.531 -22.251 -16.828  0.00  0.00    -0.236 N 
ATOM     13  N   UNL     1      31.470 -23.027 -16.545  0.00  0.00    -0.180 NA
ATOM     14  C   UNL     1      33.712 -22.932 -16.881  0.00  0.00    +0.069 C 
ATOM     15  C   UNL     1      33.403 -24.243 -16.614  0.00  0.00    +0.038 C 
ATOM     16  C   UNL     1      32.009 -24.243 -16.415  0.00  0.00    +0.119 C 
ATOM     17  H   UNL     1      32.461 -21.282 -16.983  0.00  0.00    +0.174 HD
ENDBRANCH   3  14
BRANCH   5  20
ATOM     18  O   UNL     1      37.622 -19.852 -20.216  0.00  0.00    -0.270 OA
ATOM     19  N   UNL     1      35.295 -19.602 -20.378  0.00  0.00    -0.280 N 
ATOM     20  C   UNL     1      36.476 -20.086 -19.797  0.00  0.00    +0.251 C 
ATOM     21  H   UNL     1      34.459 -19.871 -19.934  0.00  0.00    +0.155 HD
BRANCH  19  22
ATOM     22  C   UNL     1      35.146 -18.775 -21.519  0.00  0.00    +0.051 C 
ATOM     23  C   UNL     1      35.470 -17.420 -21.445  0.00  0.00    +0.018 C 
ATOM     24  C   UNL     1      34.675 -19.316 -22.715  0.00  0.00    +0.018 C 
ATOM     25  C   UNL     1      35.324 -16.606 -22.568  0.00  0.00    +0.038 C 
ATOM     26  C   UNL     1      34.529 -18.503 -23.839  0.00  0.00    +0.038 C 
ATOM     27  C   UNL     1      34.853 -17.147 -23.765  0.00  0.00    +0.145 C 
BRANCH  27  28
ATOM     28  O   UNL     1      34.711 -16.352 -24.861  0.00  0.00    -0.418 OA
BRANCH  28  32
ATOM     29 CL   UNL     1      33.762 -14.295 -26.174  0.00  0.00    +0.000 Cl
ATOM     30  F   UNL     1      32.517 -16.422 -25.472  0.00  0.00    -0.149 F 
ATOM     31  F   UNL     1      33.120 -15.093 -23.825  0.00  0.00    -0.149 F 
ATOM     32  C   UNL     1      33.503 -15.608 -25.019  0.00  0.00    +0.489 C 
ENDBRANCH  28  32
ENDBRANCH  27  28
ENDBRANCH  19  22
ENDBRANCH   5  20
BRANCH   8  33
ATOM     33  O   UNL     1      35.080 -25.874 -14.149  0.00  0.00    -0.383 OA
ATOM     34  H   UNL     1      34.653 -25.507 -14.939  0.00  0.00    +0.210 HD
ENDBRANCH   8  33
TORSDOF 6
ENDMDL
