MODEL 1
REMARK VINA RESULT:     -12.0      0.000      0.000
REMARK  Name = 45268539
REMARK  6 active torsions:
REMARK  status: ('A' for Active; 'I' for Inactive)
REMARK    1  A    between atoms: N_2  and  C_22
REMARK    2  A    between atoms: N_3  and  C_7
REMARK    3  A    between atoms: N_3  and  O_12
REMARK    4  A    between atoms: C_8  and  C_14
REMARK    5  A    between atoms: C_15  and  C_16
REMARK    6  A    between atoms: C_22  and  C_26
REMARK                            x       y       z     vdW  Elec       q    Type
REMARK                         _______ _______ _______ _____ _____    ______ ____
ROOT
ATOM      1  O   UNL     1      32.026 -23.802 -16.576  0.00  0.00    -0.273 OA
ATOM      2  N   UNL     1      34.172 -23.284 -15.696  0.00  0.00    -0.253 N 
ATOM      3  C   UNL     1      35.280 -22.586 -16.212  0.00  0.00    +0.052 C 
ATOM      4  C   UNL     1      35.010 -22.128 -17.502  0.00  0.00    +0.018 C 
ATOM      5  C   UNL     1      33.136 -23.315 -16.614  0.00  0.00    +0.252 C 
ATOM      6  C   UNL     1      33.661 -22.561 -17.812  0.00  0.00    +0.202 C 
ATOM      7  C   UNL     1      35.920 -21.411 -18.250  0.00  0.00    -0.001 C 
ATOM      8  C   UNL     1      36.503 -22.332 -15.619  0.00  0.00    +0.015 C 
ATOM      9  C   UNL     1      37.156 -21.150 -17.658  0.00  0.00    -0.000 C 
ATOM     10  C   UNL     1      37.445 -21.605 -16.357  0.00  0.00    +0.001 C 
ENDROOT
BRANCH   7  11
ATOM     11  C   UNL     1      35.645 -20.933 -19.593  0.00  0.00    -0.000 C 
ATOM     12  C   UNL     1      35.520 -19.631 -19.951  0.00  0.00    -0.000 C 
BRANCH  12  13
ATOM     13  C   UNL     1      35.259 -19.145 -21.317  0.00  0.00    -0.000 C 
ATOM     14  C   UNL     1      35.529 -17.817 -21.649  0.00  0.00    -0.000 C 
ATOM     15  C   UNL     1      34.742 -20.013 -22.279  0.00  0.00    -0.000 C 
ATOM     16  C   UNL     1      35.281 -17.357 -22.943  0.00  0.00    +0.000 C 
ATOM     17  C   UNL     1      34.495 -19.553 -23.572  0.00  0.00    +0.000 C 
ATOM     18  C   UNL     1      34.763 -18.225 -23.904  0.00  0.00    +0.000 C 
ENDBRANCH  12  13
ENDBRANCH   7  11
BRANCH   6  19
ATOM     19  N   UNL     1      32.983 -22.373 -18.888  0.00  0.00    -0.075 NA
BRANCH  19  20
ATOM     20  O   UNL     1      32.394 -21.107 -18.825  0.00  0.00    -0.294 OA
ATOM     21  H   UNL     1      31.847 -20.880 -18.098  0.00  0.00    +0.238 HD
ENDBRANCH  19  20
ENDBRANCH   6  19
BRANCH   2  22
ATOM     22  C   UNL     1      34.150 -23.877 -14.381  0.00  0.00    +0.128 C 
BRANCH  22  26
ATOM     23  F   UNL     1      36.959 -27.631 -15.670  0.00  0.00    -0.204 F 
ATOM     24  O   UNL     1      35.885 -23.485 -12.223  0.00  0.00    -0.448 OA
ATOM     25  O   UNL     1      37.514 -24.339 -10.680  0.00  0.00    -0.311 OA
ATOM     26  C   UNL     1      35.343 -24.754 -14.138  0.00  0.00    +0.034 C 
ATOM     27  C   UNL     1      36.194 -24.533 -13.054  0.00  0.00    +0.138 C 
ATOM     28  C   UNL     1      37.294 -25.370 -12.832  0.00  0.00    +0.043 C 
ATOM     29  C   UNL     1      35.604 -25.803 -15.020  0.00  0.00    +0.030 C 
ATOM     30  C   UNL     1      38.195 -25.120 -11.662  0.00  0.00    +0.176 C 
ATOM     31  C   UNL     1      37.554 -26.412 -13.728  0.00  0.00    +0.031 C 
ATOM     32  C   UNL     1      36.709 -26.629 -14.818  0.00  0.00    +0.140 C 
ATOM     33  C   UNL     1      36.924 -23.190 -11.284  0.00  0.00    +0.361 C 
ENDBRANCH  22  26
ENDBRANCH   2  22
TORSDOF 6
ENDMDL
MODEL 2
REMARK VINA RESULT:     -11.5      7.922     13.757
REMARK  Name = 45268539
REMARK  6 active torsions:
REMARK  status: ('A' for Active; 'I' for Inactive)
REMARK    1  A    between atoms: N_2  and  C_22
REMARK    2  A    between atoms: N_3  and  C_7
REMARK    3  A    between atoms: N_3  and  O_12
REMARK    4  A    between atoms: C_8  and  C_14
REMARK    5  A    between atoms: C_15  and  C_16
REMARK    6  A    between atoms: C_22  and  C_26
REMARK                            x       y       z     vdW  Elec       q    Type
REMARK                         _______ _______ _______ _____ _____    ______ ____
ROOT
ATOM      1  O   UNL     1      32.224 -11.867 -20.190  0.00  0.00    -0.273 OA
ATOM      2  N   UNL     1      32.581 -12.267 -22.506  0.00  0.00    -0.253 N 
ATOM      3  C   UNL     1      33.175 -13.327 -23.218  0.00  0.00    +0.052 C 
ATOM      4  C   UNL     1      33.627 -14.312 -22.339  0.00  0.00    +0.018 C 
ATOM      5  C   UNL     1      32.617 -12.507 -21.142  0.00  0.00    +0.252 C 
ATOM      6  C   UNL     1      33.300 -13.846 -21.006  0.00  0.00    +0.202 C 
ATOM      7  C   UNL     1      34.251 -15.466 -22.763  0.00  0.00    -0.001 C 
ATOM      8  C   UNL     1      33.340 -13.474 -24.583  0.00  0.00    +0.015 C 
ATOM      9  C   UNL     1      34.421 -15.622 -24.139  0.00  0.00    -0.000 C 
ATOM     10  C   UNL     1      33.970 -14.637 -25.040  0.00  0.00    +0.001 C 
ENDROOT
BRANCH   7  11
ATOM     11  C   UNL     1      34.725 -16.494 -21.854  0.00  0.00    -0.000 C 
ATOM     12  C   UNL     1      34.927 -17.795 -22.179  0.00  0.00    -0.000 C 
BRANCH  12  13
ATOM     13  C   UNL     1      35.425 -18.835 -21.261  0.00  0.00    -0.000 C 
ATOM     14  C   UNL     1      36.767 -18.845 -20.881  0.00  0.00    -0.000 C 
ATOM     15  C   UNL     1      34.553 -19.807 -20.771  0.00  0.00    -0.000 C 
ATOM     16  C   UNL     1      37.238 -19.830 -20.012  0.00  0.00    +0.000 C 
ATOM     17  C   UNL     1      35.024 -20.791 -19.902  0.00  0.00    +0.000 C 
ATOM     18  C   UNL     1      36.367 -20.803 -19.523  0.00  0.00    +0.000 C 
ENDBRANCH  12  13
ENDBRANCH   7  11
BRANCH   6  19
ATOM     19  N   UNL     1      33.525 -14.418 -19.877  0.00  0.00    -0.075 NA
BRANCH  19  20
ATOM     20  O   UNL     1      32.299 -14.652 -19.246  0.00  0.00    -0.294 OA
ATOM     21  H   UNL     1      32.092 -14.208 -18.447  0.00  0.00    +0.238 HD
ENDBRANCH  19  20
ENDBRANCH   6  19
BRANCH   2  22
ATOM     22  C   UNL     1      32.019 -11.100 -23.141  0.00  0.00    +0.128 C 
BRANCH  22  26
ATOM     23  F   UNL     1      36.468  -9.402 -24.126  0.00  0.00    -0.204 F 
ATOM     24  O   UNL     1      31.331  -8.495 -22.392  0.00  0.00    -0.448 OA
ATOM     25  O   UNL     1      31.970  -6.312 -21.624  0.00  0.00    -0.311 OA
ATOM     26  C   UNL     1      32.996  -9.962 -23.194  0.00  0.00    +0.034 C 
ATOM     27  C   UNL     1      32.624  -8.672 -22.816  0.00  0.00    +0.138 C 
ATOM     28  C   UNL     1      33.552  -7.624 -22.856  0.00  0.00    +0.043 C 
ATOM     29  C   UNL     1      34.297 -10.206 -23.635  0.00  0.00    +0.030 C 
ATOM     30  C   UNL     1      33.135  -6.245 -22.445  0.00  0.00    +0.176 C 
ATOM     31  C   UNL     1      34.851  -7.876 -23.311  0.00  0.00    +0.031 C 
ATOM     32  C   UNL     1      35.222  -9.164 -23.697  0.00  0.00    +0.140 C 
ATOM     33  C   UNL     1      30.972  -7.117 -22.248  0.00  0.00    +0.361 C 
ENDBRANCH  22  26
ENDBRANCH   2  22
TORSDOF 6
ENDMDL
MODEL 3
REMARK VINA RESULT:     -11.0      7.980     13.621
REMARK  Name = 45268539
REMARK  6 active torsions:
REMARK  status: ('A' for Active; 'I' for Inactive)
REMARK    1  A    between atoms: N_2  and  C_22
REMARK    2  A    between atoms: N_3  and  C_7
REMARK    3  A    between atoms: N_3  and  O_12
REMARK    4  A    between atoms: C_8  and  C_14
REMARK    5  A    between atoms: C_15  and  C_16
REMARK    6  A    between atoms: C_22  and  C_26
REMARK                            x       y       z     vdW  Elec       q    Type
REMARK                         _______ _______ _______ _____ _____    ______ ____
ROOT
ATOM      1  O   UNL     1      31.987 -11.967 -19.880  0.00  0.00    -0.273 OA
ATOM      2  N   UNL     1      32.391 -12.157 -22.215  0.00  0.00    -0.253 N 
ATOM      3  C   UNL     1      33.075 -13.107 -22.998  0.00  0.00    +0.052 C 
ATOM      4  C   UNL     1      33.602 -14.116 -22.191  0.00  0.00    +0.018 C 
ATOM      5  C   UNL     1      32.437 -12.497 -20.873  0.00  0.00    +0.252 C 
ATOM      6  C   UNL     1      33.228 -13.782 -20.830  0.00  0.00    +0.202 C 
ATOM      7  C   UNL     1      34.322 -15.179 -22.693  0.00  0.00    -0.001 C 
ATOM      8  C   UNL     1      33.261 -13.134 -24.368  0.00  0.00    +0.015 C 
ATOM      9  C   UNL     1      34.513 -15.214 -24.075  0.00  0.00    -0.000 C 
ATOM     10  C   UNL     1      33.989 -14.203 -24.904  0.00  0.00    +0.001 C 
ENDROOT
BRANCH   7  11
ATOM     11  C   UNL     1      34.874 -16.231 -21.859  0.00  0.00    -0.000 C 
ATOM     12  C   UNL     1      34.743 -17.561 -22.088  0.00  0.00    -0.000 C 
BRANCH  12  13
ATOM     13  C   UNL     1      35.317 -18.629 -21.250  0.00  0.00    -0.000 C 
ATOM     14  C   UNL     1      34.495 -19.634 -20.739  0.00  0.00    -0.000 C 
ATOM     15  C   UNL     1      36.683 -18.637 -20.970  0.00  0.00    -0.000 C 
ATOM     16  C   UNL     1      35.039 -20.645 -19.947  0.00  0.00    +0.000 C 
ATOM     17  C   UNL     1      37.227 -19.648 -20.178  0.00  0.00    +0.000 C 
ATOM     18  C   UNL     1      36.405 -20.652 -19.666  0.00  0.00    +0.000 C 
ENDBRANCH  12  13
ENDBRANCH   7  11
BRANCH   6  19
ATOM     19  N   UNL     1      33.492 -14.420 -19.745  0.00  0.00    -0.075 NA
BRANCH  19  20
ATOM     20  O   UNL     1      32.286 -14.774 -19.135  0.00  0.00    -0.294 OA
ATOM     21  H   UNL     1      31.515 -14.892 -19.654  0.00  0.00    +0.238 HD
ENDBRANCH  19  20
ENDBRANCH   6  19
BRANCH   2  22
ATOM     22  C   UNL     1      31.739 -10.995 -22.767  0.00  0.00    +0.128 C 
BRANCH  22  26
ATOM     23  F   UNL     1      31.344  -7.394 -19.522  0.00  0.00    -0.204 F 
ATOM     24  O   UNL     1      34.070  -9.746 -23.676  0.00  0.00    -0.448 OA
ATOM     25  O   UNL     1      35.418  -7.774 -23.916  0.00  0.00    -0.311 OA
ATOM     26  C   UNL     1      32.256  -9.720 -22.166  0.00  0.00    +0.034 C 
ATOM     27  C   UNL     1      33.424  -9.121 -22.639  0.00  0.00    +0.138 C 
ATOM     28  C   UNL     1      33.885  -7.923 -22.080  0.00  0.00    +0.043 C 
ATOM     29  C   UNL     1      31.555  -9.134 -21.113  0.00  0.00    +0.030 C 
ATOM     30  C   UNL     1      35.140  -7.293 -22.602  0.00  0.00    +0.176 C 
ATOM     31  C   UNL     1      33.181  -7.348 -21.017  0.00  0.00    +0.031 C 
ATOM     32  C   UNL     1      32.018  -7.951 -20.536  0.00  0.00    +0.140 C 
ATOM     33  C   UNL     1      35.366  -9.199 -23.942  0.00  0.00    +0.361 C 
ENDBRANCH  22  26
ENDBRANCH   2  22
TORSDOF 6
ENDMDL
MODEL 4
REMARK VINA RESULT:     -10.7      4.169     10.425
REMARK  Name = 45268539
REMARK  6 active torsions:
REMARK  status: ('A' for Active; 'I' for Inactive)
REMARK    1  A    between atoms: N_2  and  C_22
REMARK    2  A    between atoms: N_3  and  C_7
REMARK    3  A    between atoms: N_3  and  O_12
REMARK    4  A    between atoms: C_8  and  C_14
REMARK    5  A    between atoms: C_15  and  C_16
REMARK    6  A    between atoms: C_22  and  C_26
REMARK                            x       y       z     vdW  Elec       q    Type
REMARK                         _______ _______ _______ _____ _____    ______ ____
ROOT
ATOM      1  O   UNL     1      37.945 -18.586 -21.284  0.00  0.00    -0.273 OA
ATOM      2  N   UNL     1      35.616 -18.898 -21.640  0.00  0.00    -0.253 N 
ATOM      3  C   UNL     1      34.641 -19.682 -20.993  0.00  0.00    +0.052 C 
ATOM      4  C   UNL     1      35.211 -20.399 -19.941  0.00  0.00    +0.018 C 
ATOM      5  C   UNL     1      36.856 -19.063 -21.047  0.00  0.00    +0.252 C 
ATOM      6  C   UNL     1      36.617 -20.046 -19.926  0.00  0.00    +0.202 C 
ATOM      7  C   UNL     1      34.487 -21.250 -19.133  0.00  0.00    -0.001 C 
ATOM      8  C   UNL     1      33.293 -19.801 -21.275  0.00  0.00    +0.015 C 
ATOM      9  C   UNL     1      33.125 -21.375 -19.411  0.00  0.00    -0.000 C 
ATOM     10  C   UNL     1      32.534 -20.659 -20.470  0.00  0.00    +0.001 C 
ENDROOT
BRANCH   7  11
ATOM     11  C   UNL     1      35.074 -21.999 -18.038  0.00  0.00    -0.000 C 
ATOM     12  C   UNL     1      34.402 -22.456 -16.952  0.00  0.00    -0.000 C 
BRANCH  12  13
ATOM     13  C   UNL     1      34.994 -23.232 -15.848  0.00  0.00    -0.000 C 
ATOM     14  C   UNL     1      36.361 -23.140 -15.586  0.00  0.00    -0.000 C 
ATOM     15  C   UNL     1      34.188 -24.058 -15.065  0.00  0.00    -0.000 C 
ATOM     16  C   UNL     1      36.922 -23.875 -14.541  0.00  0.00    +0.000 C 
ATOM     17  C   UNL     1      34.749 -24.792 -14.020  0.00  0.00    +0.000 C 
ATOM     18  C   UNL     1      36.116 -24.701 -13.758  0.00  0.00    +0.000 C 
ENDBRANCH  12  13
ENDBRANCH   7  11
BRANCH   6  19
ATOM     19  N   UNL     1      37.541 -20.460 -19.133  0.00  0.00    -0.075 NA
BRANCH  19  20
ATOM     20  O   UNL     1      37.486 -19.707 -17.956  0.00  0.00    -0.294 OA
ATOM     21  H   UNL     1      37.562 -18.774 -17.993  0.00  0.00    +0.238 HD
ENDBRANCH  19  20
ENDBRANCH   6  19
BRANCH   2  22
ATOM     22  C   UNL     1      35.329 -18.045 -22.768  0.00  0.00    +0.128 C 
BRANCH  22  26
ATOM     23  F   UNL     1      34.889 -14.647 -19.317  0.00  0.00    -0.204 F 
ATOM     24  O   UNL     1      34.182 -16.211 -24.539  0.00  0.00    -0.448 OA
ATOM     25  O   UNL     1      32.815 -14.278 -24.939  0.00  0.00    -0.311 OA
ATOM     26  C   UNL     1      34.904 -16.671 -22.340  0.00  0.00    +0.034 C 
ATOM     27  C   UNL     1      34.336 -15.776 -23.247  0.00  0.00    +0.138 C 
ATOM     28  C   UNL     1      33.929 -14.503 -22.829  0.00  0.00    +0.043 C 
ATOM     29  C   UNL     1      35.089 -16.287 -21.012  0.00  0.00    +0.030 C 
ATOM     30  C   UNL     1      33.319 -13.555 -23.816  0.00  0.00    +0.176 C 
ATOM     31  C   UNL     1      34.129 -14.122 -21.498  0.00  0.00    +0.031 C 
ATOM     32  C   UNL     1      34.705 -15.014 -20.592  0.00  0.00    +0.140 C 
ATOM     33  C   UNL     1      33.812 -15.165 -25.443  0.00  0.00    +0.361 C 
ENDBRANCH  22  26
ENDBRANCH   2  22
TORSDOF 6
ENDMDL
MODEL 5
REMARK VINA RESULT:     -10.6      1.747      2.435
REMARK  Name = 45268539
REMARK  6 active torsions:
REMARK  status: ('A' for Active; 'I' for Inactive)
REMARK    1  A    between atoms: N_2  and  C_22
REMARK    2  A    between atoms: N_3  and  C_7
REMARK    3  A    between atoms: N_3  and  O_12
REMARK    4  A    between atoms: C_8  and  C_14
REMARK    5  A    between atoms: C_15  and  C_16
REMARK    6  A    between atoms: C_22  and  C_26
REMARK                            x       y       z     vdW  Elec       q    Type
REMARK                         _______ _______ _______ _____ _____    ______ ____
ROOT
ATOM      1  O   UNL     1      31.796 -23.920 -16.412  0.00  0.00    -0.273 OA
ATOM      2  N   UNL     1      33.992 -23.585 -15.567  0.00  0.00    -0.253 N 
ATOM      3  C   UNL     1      35.129 -22.928 -16.077  0.00  0.00    +0.052 C 
ATOM      4  C   UNL     1      34.855 -22.383 -17.331  0.00  0.00    +0.018 C 
ATOM      5  C   UNL     1      32.933 -23.501 -16.455  0.00  0.00    +0.252 C 
ATOM      6  C   UNL     1      33.474 -22.715 -17.625  0.00  0.00    +0.202 C 
ATOM      7  C   UNL     1      35.789 -21.682 -18.065  0.00  0.00    -0.001 C 
ATOM      8  C   UNL     1      36.380 -22.783 -15.506  0.00  0.00    +0.015 C 
ATOM      9  C   UNL     1      37.054 -21.531 -17.495  0.00  0.00    -0.000 C 
ATOM     10  C   UNL     1      37.347 -22.076 -16.230  0.00  0.00    +0.001 C 
ENDROOT
BRANCH   7  11
ATOM     11  C   UNL     1      35.511 -21.114 -19.371  0.00  0.00    -0.000 C 
ATOM     12  C   UNL     1      35.723 -19.822 -19.724  0.00  0.00    -0.000 C 
BRANCH  12  13
ATOM     13  C   UNL     1      35.456 -19.248 -21.056  0.00  0.00    -0.000 C 
ATOM     14  C   UNL     1      34.852 -20.027 -22.042  0.00  0.00    -0.000 C 
ATOM     15  C   UNL     1      35.808 -17.926 -21.328  0.00  0.00    -0.000 C 
ATOM     16  C   UNL     1      34.600 -19.484 -23.303  0.00  0.00    +0.000 C 
ATOM     17  C   UNL     1      35.556 -17.384 -22.588  0.00  0.00    +0.000 C 
ATOM     18  C   UNL     1      34.952 -18.162 -23.576  0.00  0.00    +0.000 C 
ENDBRANCH  12  13
ENDBRANCH   7  11
BRANCH   6  19
ATOM     19  N   UNL     1      32.782 -22.425 -18.669  0.00  0.00    -0.075 NA
BRANCH  19  20
ATOM     20  O   UNL     1      32.268 -21.134 -18.516  0.00  0.00    -0.294 OA
ATOM     21  H   UNL     1      31.342 -21.002 -18.459  0.00  0.00    +0.238 HD
ENDBRANCH  19  20
ENDBRANCH   6  19
BRANCH   2  22
ATOM     22  C   UNL     1      33.966 -24.248 -14.286  0.00  0.00    +0.128 C 
BRANCH  22  26
ATOM     23  F   UNL     1      37.086 -22.338 -11.083  0.00  0.00    -0.204 F 
ATOM     24  O   UNL     1      35.955 -26.110 -14.918  0.00  0.00    -0.448 OA
ATOM     25  O   UNL     1      38.271 -26.739 -14.991  0.00  0.00    -0.311 OA
ATOM     26  C   UNL     1      35.312 -24.245 -13.623  0.00  0.00    +0.034 C 
ATOM     27  C   UNL     1      36.285 -25.188 -13.957  0.00  0.00    +0.138 C 
ATOM     28  C   UNL     1      37.542 -25.161 -13.341  0.00  0.00    +0.043 C 
ATOM     29  C   UNL     1      35.587 -23.282 -12.652  0.00  0.00    +0.030 C 
ATOM     30  C   UNL     1      38.575 -26.181 -13.713  0.00  0.00    +0.176 C 
ATOM     31  C   UNL     1      37.804 -24.199 -12.360  0.00  0.00    +0.031 C 
ATOM     32  C   UNL     1      36.829 -23.261 -12.019  0.00  0.00    +0.140 C 
ATOM     33  C   UNL     1      36.912 -27.169 -15.031  0.00  0.00    +0.361 C 
ENDBRANCH  22  26
ENDBRANCH   2  22
TORSDOF 6
ENDMDL
MODEL 6
REMARK VINA RESULT:     -10.6     10.268     15.893
REMARK  Name = 45268539
REMARK  6 active torsions:
REMARK  status: ('A' for Active; 'I' for Inactive)
REMARK    1  A    between atoms: N_2  and  C_22
REMARK    2  A    between atoms: N_3  and  C_7
REMARK    3  A    between atoms: N_3  and  O_12
REMARK    4  A    between atoms: C_8  and  C_14
REMARK    5  A    between atoms: C_15  and  C_16
REMARK    6  A    between atoms: C_22  and  C_26
REMARK                            x       y       z     vdW  Elec       q    Type
REMARK                         _______ _______ _______ _____ _____    ______ ____
ROOT
ATOM      1  O   UNL     1      32.349  -9.755 -24.569  0.00  0.00    -0.273 OA
ATOM      2  N   UNL     1      31.952  -9.439 -22.247  0.00  0.00    -0.253 N 
ATOM      3  C   UNL     1      32.034 -10.296 -21.132  0.00  0.00    +0.052 C 
ATOM      4  C   UNL     1      32.430 -11.574 -21.527  0.00  0.00    +0.018 C 
ATOM      5  C   UNL     1      32.289 -10.109 -23.411  0.00  0.00    +0.252 C 
ATOM      6  C   UNL     1      32.608 -11.516 -22.965  0.00  0.00    +0.202 C 
ATOM      7  C   UNL     1      32.592 -12.617 -20.640  0.00  0.00    -0.001 C 
ATOM      8  C   UNL     1      31.780 -10.020 -19.801  0.00  0.00    +0.015 C 
ATOM      9  C   UNL     1      32.339 -12.346 -19.295  0.00  0.00    -0.000 C 
ATOM     10  C   UNL     1      31.937 -11.062 -18.879  0.00  0.00    +0.001 C 
ENDROOT
BRANCH   7  11
ATOM     11  C   UNL     1      33.004 -13.949 -21.046  0.00  0.00    -0.000 C 
ATOM     12  C   UNL     1      34.263 -14.305 -21.403  0.00  0.00    -0.000 C 
BRANCH  12  13
ATOM     13  C   UNL     1      34.684 -15.661 -21.798  0.00  0.00    -0.000 C 
ATOM     14  C   UNL     1      35.056 -16.587 -20.823  0.00  0.00    -0.000 C 
ATOM     15  C   UNL     1      34.710 -16.018 -23.146  0.00  0.00    -0.000 C 
ATOM     16  C   UNL     1      35.455 -17.871 -21.197  0.00  0.00    +0.000 C 
ATOM     17  C   UNL     1      35.109 -17.301 -23.519  0.00  0.00    +0.000 C 
ATOM     18  C   UNL     1      35.482 -18.227 -22.545  0.00  0.00    +0.000 C 
ENDBRANCH  12  13
ENDBRANCH   7  11
BRANCH   6  19
ATOM     19  N   UNL     1      32.967 -12.453 -23.769  0.00  0.00    -0.075 NA
BRANCH  19  20
ATOM     20  O   UNL     1      34.256 -12.173 -24.231  0.00  0.00    -0.294 OA
ATOM     21  H   UNL     1      34.575 -11.291 -24.223  0.00  0.00    +0.238 HD
ENDBRANCH  19  20
ENDBRANCH   6  19
BRANCH   2  22
ATOM     22  C   UNL     1      31.567  -8.052 -22.155  0.00  0.00    +0.128 C 
BRANCH  22  26
ATOM     23  F   UNL     1      36.181  -6.849 -23.109  0.00  0.00    -0.204 F 
ATOM     24  O   UNL     1      30.808  -5.843 -23.693  0.00  0.00    -0.448 OA
ATOM     25  O   UNL     1      31.308  -3.692 -24.635  0.00  0.00    -0.311 OA
ATOM     26  C   UNL     1      32.567  -7.146 -22.811  0.00  0.00    +0.034 C 
ATOM     27  C   UNL     1      32.159  -6.052 -23.575  0.00  0.00    +0.138 C 
ATOM     28  C   UNL     1      33.106  -5.206 -24.167  0.00  0.00    +0.043 C 
ATOM     29  C   UNL     1      33.927  -7.412 -22.654  0.00  0.00    +0.030 C 
ATOM     30  C   UNL     1      32.649  -4.034 -24.982  0.00  0.00    +0.176 C 
ATOM     31  C   UNL     1      34.467  -5.487 -24.014  0.00  0.00    +0.031 C 
ATOM     32  C   UNL     1      34.876  -6.587 -23.258  0.00  0.00    +0.140 C 
ATOM     33  C   UNL     1      30.478  -4.851 -24.670  0.00  0.00    +0.361 C 
ENDBRANCH  22  26
ENDBRANCH   2  22
TORSDOF 6
ENDMDL
MODEL 7
REMARK VINA RESULT:     -10.3      9.734     15.340
REMARK  Name = 45268539
REMARK  6 active torsions:
REMARK  status: ('A' for Active; 'I' for Inactive)
REMARK    1  A    between atoms: N_2  and  C_22
REMARK    2  A    between atoms: N_3  and  C_7
REMARK    3  A    between atoms: N_3  and  O_12
REMARK    4  A    between atoms: C_8  and  C_14
REMARK    5  A    between atoms: C_15  and  C_16
REMARK    6  A    between atoms: C_22  and  C_26
REMARK                            x       y       z     vdW  Elec       q    Type
REMARK                         _______ _______ _______ _____ _____    ______ ____
ROOT
ATOM      1  O   UNL     1      29.909 -11.077 -20.458  0.00  0.00    -0.273 OA
ATOM      2  N   UNL     1      31.220 -10.197 -22.235  0.00  0.00    -0.253 N 
ATOM      3  C   UNL     1      32.346 -10.680 -22.930  0.00  0.00    +0.052 C 
ATOM      4  C   UNL     1      32.727 -11.927 -22.435  0.00  0.00    +0.018 C 
ATOM      5  C   UNL     1      30.815 -11.098 -21.264  0.00  0.00    +0.252 C 
ATOM      6  C   UNL     1      31.790 -12.245 -21.374  0.00  0.00    +0.202 C 
ATOM      7  C   UNL     1      33.801 -12.635 -22.930  0.00  0.00    -0.001 C 
ATOM      8  C   UNL     1      33.049 -10.090 -23.963  0.00  0.00    +0.015 C 
ATOM      9  C   UNL     1      34.516 -12.046 -23.974  0.00  0.00    -0.000 C 
ATOM     10  C   UNL     1      34.145 -10.787 -24.485  0.00  0.00    +0.001 C 
ENDROOT
BRANCH   7  11
ATOM     11  C   UNL     1      34.203 -13.932 -22.419  0.00  0.00    -0.000 C 
ATOM     12  C   UNL     1      34.420 -15.039 -23.173  0.00  0.00    -0.000 C 
BRANCH  12  13
ATOM     13  C   UNL     1      34.845 -16.352 -22.655  0.00  0.00    -0.000 C 
ATOM     14  C   UNL     1      34.879 -17.458 -23.504  0.00  0.00    -0.000 C 
ATOM     15  C   UNL     1      35.215 -16.488 -21.317  0.00  0.00    -0.000 C 
ATOM     16  C   UNL     1      35.281 -18.701 -23.014  0.00  0.00    +0.000 C 
ATOM     17  C   UNL     1      35.617 -17.730 -20.828  0.00  0.00    +0.000 C 
ATOM     18  C   UNL     1      35.650 -18.837 -21.676  0.00  0.00    +0.000 C 
ENDBRANCH  12  13
ENDBRANCH   7  11
BRANCH   6  19
ATOM     19  N   UNL     1      31.746 -13.291 -20.628  0.00  0.00    -0.075 NA
BRANCH  19  20
ATOM     20  O   UNL     1      32.242 -12.956 -19.364  0.00  0.00    -0.294 OA
ATOM     21  H   UNL     1      31.957 -12.169 -18.943  0.00  0.00    +0.238 HD
ENDBRANCH  19  20
ENDBRANCH   6  19
BRANCH   2  22
ATOM     22  C   UNL     1      30.593  -8.930 -22.521  0.00  0.00    +0.128 C 
BRANCH  22  26
ATOM     23  F   UNL     1      33.520  -7.212 -19.038  0.00  0.00    -0.204 F 
ATOM     24  O   UNL     1      30.469  -6.322 -23.524  0.00  0.00    -0.448 OA
ATOM     25  O   UNL     1      30.661  -3.952 -23.191  0.00  0.00    -0.311 OA
ATOM     26  C   UNL     1      31.319  -7.785 -21.879  0.00  0.00    +0.034 C 
ATOM     27  C   UNL     1      31.241  -6.494 -22.402  0.00  0.00    +0.138 C 
ATOM     28  C   UNL     1      31.912  -5.433 -21.781  0.00  0.00    +0.043 C 
ATOM     29  C   UNL     1      32.089  -8.024 -20.741  0.00  0.00    +0.030 C 
ATOM     30  C   UNL     1      31.814  -4.053 -22.357  0.00  0.00    +0.176 C 
ATOM     31  C   UNL     1      32.691  -5.685 -20.647  0.00  0.00    +0.031 C 
ATOM     32  C   UNL     1      32.777  -6.977 -20.128  0.00  0.00    +0.140 C 
ATOM     33  C   UNL     1      30.628  -5.031 -24.122  0.00  0.00    +0.361 C 
ENDBRANCH  22  26
ENDBRANCH   2  22
TORSDOF 6
ENDMDL
MODEL 8
REMARK VINA RESULT:     -10.0      3.855      9.050
REMARK  Name = 45268539
REMARK  6 active torsions:
REMARK  status: ('A' for Active; 'I' for Inactive)
REMARK    1  A    between atoms: N_2  and  C_22
REMARK    2  A    between atoms: N_3  and  C_7
REMARK    3  A    between atoms: N_3  and  O_12
REMARK    4  A    between atoms: C_8  and  C_14
REMARK    5  A    between atoms: C_15  and  C_16
REMARK    6  A    between atoms: C_22  and  C_26
REMARK                            x       y       z     vdW  Elec       q    Type
REMARK                         _______ _______ _______ _____ _____    ______ ____
ROOT
ATOM      1  O   UNL     1      33.485 -20.374 -20.811  0.00  0.00    -0.273 OA
ATOM      2  N   UNL     1      35.531 -20.463 -19.605  0.00  0.00    -0.253 N 
ATOM      3  C   UNL     1      35.932 -21.147 -18.441  0.00  0.00    +0.052 C 
ATOM      4  C   UNL     1      34.878 -21.909 -17.936  0.00  0.00    +0.018 C 
ATOM      5  C   UNL     1      34.210 -20.744 -19.913  0.00  0.00    +0.252 C 
ATOM      6  C   UNL     1      33.757 -21.693 -18.830  0.00  0.00    +0.202 C 
ATOM      7  C   UNL     1      34.988 -22.683 -16.799  0.00  0.00    -0.001 C 
ATOM      8  C   UNL     1      37.159 -21.138 -17.804  0.00  0.00    +0.015 C 
ATOM      9  C   UNL     1      36.224 -22.679 -16.152  0.00  0.00    -0.000 C 
ATOM     10  C   UNL     1      37.298 -21.915 -16.648  0.00  0.00    +0.001 C 
ENDROOT
BRANCH   7  11
ATOM     11  C   UNL     1      33.895 -23.477 -16.268  0.00  0.00    -0.000 C 
ATOM     12  C   UNL     1      32.934 -23.022 -15.426  0.00  0.00    -0.000 C 
BRANCH  12  13
ATOM     13  C   UNL     1      31.814 -23.823 -14.901  0.00  0.00    -0.000 C 
ATOM     14  C   UNL     1      31.966 -24.540 -13.714  0.00  0.00    -0.000 C 
ATOM     15  C   UNL     1      30.601 -23.862 -15.589  0.00  0.00    -0.000 C 
ATOM     16  C   UNL     1      30.906 -25.298 -13.216  0.00  0.00    +0.000 C 
ATOM     17  C   UNL     1      29.542 -24.619 -15.091  0.00  0.00    +0.000 C 
ATOM     18  C   UNL     1      29.694 -25.338 -13.905  0.00  0.00    +0.000 C 
ENDBRANCH  12  13
ENDBRANCH   7  11
BRANCH   6  19
ATOM     19  N   UNL     1      32.571 -22.187 -18.766  0.00  0.00    -0.075 NA
BRANCH  19  20
ATOM     20  O   UNL     1      31.736 -21.256 -18.141  0.00  0.00    -0.294 OA
ATOM     21  H   UNL     1      31.810 -21.106 -17.219  0.00  0.00    +0.238 HD
ENDBRANCH  19  20
ENDBRANCH   6  19
BRANCH   2  22
ATOM     22  C   UNL     1      36.404 -19.594 -20.355  0.00  0.00    +0.128 C 
BRANCH  22  26
ATOM     23  F   UNL     1      34.736 -20.440 -24.844  0.00  0.00    -0.204 F 
ATOM     24  O   UNL     1      35.604 -16.936 -20.698  0.00  0.00    -0.448 OA
ATOM     25  O   UNL     1      35.075 -15.091 -22.140  0.00  0.00    -0.311 OA
ATOM     26  C   UNL     1      35.759 -19.104 -21.619  0.00  0.00    +0.034 C 
ATOM     27  C   UNL     1      35.368 -17.772 -21.761  0.00  0.00    +0.138 C 
ATOM     28  C   UNL     1      34.783 -17.326 -22.952  0.00  0.00    +0.043 C 
ATOM     29  C   UNL     1      35.545 -20.003 -22.663  0.00  0.00    +0.030 C 
ATOM     30  C   UNL     1      34.371 -15.892 -23.088  0.00  0.00    +0.176 C 
ATOM     31  C   UNL     1      34.562 -18.238 -23.990  0.00  0.00    +0.031 C 
ATOM     32  C   UNL     1      34.944 -19.572 -23.845  0.00  0.00    +0.140 C 
ATOM     33  C   UNL     1      34.970 -15.660 -20.837  0.00  0.00    +0.361 C 
ENDBRANCH  22  26
ENDBRANCH   2  22
TORSDOF 6
ENDMDL
MODEL 9
REMARK VINA RESULT:      -9.9      2.461      3.427
REMARK  Name = 45268539
REMARK  6 active torsions:
REMARK  status: ('A' for Active; 'I' for Inactive)
REMARK    1  A    between atoms: N_2  and  C_22
REMARK    2  A    between atoms: N_3  and  C_7
REMARK    3  A    between atoms: N_3  and  O_12
REMARK    4  A    between atoms: C_8  and  C_14
REMARK    5  A    between atoms: C_15  and  C_16
REMARK    6  A    between atoms: C_22  and  C_26
REMARK                            x       y       z     vdW  Elec       q    Type
REMARK                         _______ _______ _______ _____ _____    ______ ____
ROOT
ATOM      1  O   UNL     1      37.514 -22.849 -15.244  0.00  0.00    -0.273 OA
ATOM      2  N   UNL     1      35.199 -23.366 -15.405  0.00  0.00    -0.253 N 
ATOM      3  C   UNL     1      34.201 -23.025 -16.338  0.00  0.00    +0.052 C 
ATOM      4  C   UNL     1      34.731 -22.223 -17.348  0.00  0.00    +0.018 C 
ATOM      5  C   UNL     1      36.417 -22.808 -15.759  0.00  0.00    +0.252 C 
ATOM      6  C   UNL     1      36.136 -22.051 -17.034  0.00  0.00    +0.202 C 
ATOM      7  C   UNL     1      33.976 -21.741 -18.397  0.00  0.00    -0.001 C 
ATOM      8  C   UNL     1      32.864 -23.377 -16.349  0.00  0.00    +0.015 C 
ATOM      9  C   UNL     1      32.626 -22.092 -18.416  0.00  0.00    -0.000 C 
ATOM     10  C   UNL     1      32.075 -22.901 -17.403  0.00  0.00    +0.001 C 
ENDROOT
BRANCH   7  11
ATOM     11  C   UNL     1      34.522 -20.904 -19.451  0.00  0.00    -0.000 C 
ATOM     12  C   UNL     1      33.790 -20.158 -20.315  0.00  0.00    -0.000 C 
BRANCH  12  13
ATOM     13  C   UNL     1      34.344 -19.295 -21.374  0.00  0.00    -0.000 C 
ATOM     14  C   UNL     1      34.045 -19.553 -22.712  0.00  0.00    -0.000 C 
ATOM     15  C   UNL     1      35.166 -18.219 -21.038  0.00  0.00    -0.000 C 
ATOM     16  C   UNL     1      34.569 -18.736 -23.714  0.00  0.00    +0.000 C 
ATOM     17  C   UNL     1      35.690 -17.403 -22.040  0.00  0.00    +0.000 C 
ATOM     18  C   UNL     1      35.392 -17.661 -23.378  0.00  0.00    +0.000 C 
ENDBRANCH  12  13
ENDBRANCH   7  11
BRANCH   6  19
ATOM     19  N   UNL     1      37.029 -21.387 -17.679  0.00  0.00    -0.075 NA
BRANCH  19  20
ATOM     20  O   UNL     1      37.418 -20.294 -16.901  0.00  0.00    -0.294 OA
ATOM     21  H   UNL     1      36.773 -19.691 -16.584  0.00  0.00    +0.238 HD
ENDBRANCH  19  20
ENDBRANCH   6  19
BRANCH   2  22
ATOM     22  C   UNL     1      34.956 -24.189 -14.246  0.00  0.00    +0.128 C 
BRANCH  22  26
ATOM     23  F   UNL     1      37.315 -22.467 -10.358  0.00  0.00    -0.204 F 
ATOM     24  O   UNL     1      37.064 -25.997 -14.564  0.00  0.00    -0.448 OA
ATOM     25  O   UNL     1      39.356 -26.609 -14.195  0.00  0.00    -0.311 OA
ATOM     26  C   UNL     1      36.136 -24.220 -13.320  0.00  0.00    +0.034 C 
ATOM     27  C   UNL     1      37.173 -25.136 -13.501  0.00  0.00    +0.138 C 
ATOM     28  C   UNL     1      38.276 -25.142 -12.638  0.00  0.00    +0.043 C 
ATOM     29  C   UNL     1      36.188 -23.318 -12.257  0.00  0.00    +0.030 C 
ATOM     30  C   UNL     1      39.381 -26.131 -12.850  0.00  0.00    +0.176 C 
ATOM     31  C   UNL     1      38.313 -24.241 -11.569  0.00  0.00    +0.031 C 
ATOM     32  C   UNL     1      37.272 -23.331 -11.380  0.00  0.00    +0.140 C 
ATOM     33  C   UNL     1      38.043 -27.042 -14.541  0.00  0.00    +0.361 C 
ENDBRANCH  22  26
ENDBRANCH   2  22
TORSDOF 6
ENDMDL
