MODEL 1
REMARK VINA RESULT:     -11.9      0.000      0.000
REMARK  Name = 25114442
REMARK  7 active torsions:
REMARK  status: ('A' for Active; 'I' for Inactive)
REMARK    1  A    between atoms: C_3  and  C_15
REMARK    2  A    between atoms: C_3  and  C_18
REMARK    3  A    between atoms: C_6  and  C_8
REMARK    4  A    between atoms: C_15  and  O_16
REMARK    5  A    between atoms: C_18  and  O_19
REMARK    6  A    between atoms: O_19  and  C_20
REMARK    7  A    between atoms: C_28  and  O_30
REMARK                            x       y       z     vdW  Elec       q    Type
REMARK                         _______ _______ _______ _____ _____    ______ ____
ROOT
ATOM      1  O   UNL     1      32.137 -22.931 -12.235  0.00  0.00    -0.270 OA
ATOM      2  N   UNL     1      33.551 -23.802 -13.828  0.00  0.00    -0.275 N 
ATOM      3  C   UNL     1      35.372 -23.761 -14.760  0.00  0.00    +0.166 C 
ATOM      4  C   UNL     1      34.021 -24.425 -15.051  0.00  0.00    +0.110 C 
ATOM      5  C   UNL     1      34.880 -23.497 -13.332  0.00  0.00    +0.110 C 
ATOM      6  C   UNL     1      32.321 -23.469 -13.323  0.00  0.00    +0.249 C 
ENDROOT
BRANCH   6   8
ATOM      7  F   UNL     1      27.870 -24.596 -16.536  0.00  0.00    -0.204 F 
ATOM      8  C   UNL     1      31.148 -23.765 -14.168  0.00  0.00    +0.054 C 
ATOM      9  C   UNL     1      30.744 -22.855 -15.144  0.00  0.00    +0.007 C 
ATOM     10  C   UNL     1      30.446 -24.958 -13.993  0.00  0.00    +0.007 C 
ATOM     11  C   UNL     1      29.637 -23.135 -15.944  0.00  0.00    +0.030 C 
ATOM     12  C   UNL     1      29.337 -25.238 -14.793  0.00  0.00    +0.030 C 
ATOM     13  C   UNL     1      28.933 -24.327 -15.768  0.00  0.00    +0.140 C 
ENDBRANCH   6   8
BRANCH   3  15
ATOM     14  O   UNL     1      36.625 -25.891 -14.950  0.00  0.00    -0.250 OA
ATOM     15  C   UNL     1      36.624 -24.663 -14.901  0.00  0.00    +0.320 C 
BRANCH  15  16
ATOM     16  O   UNL     1      37.777 -23.941 -14.971  0.00  0.00    -0.480 OA
ATOM     17  H   UNL     1      38.130 -23.702 -15.804  0.00  0.00    +0.295 HD
ENDBRANCH  15  16
ENDBRANCH   3  15
BRANCH   3  18
ATOM     18  C   UNL     1      35.547 -22.472 -15.540  0.00  0.00    +0.219 C 
BRANCH  18  19
ATOM     19  O   UNL     1      36.132 -22.781 -16.804  0.00  0.00    -0.475 OA
BRANCH  19  20
ATOM     20  C   UNL     1      35.717 -22.049 -17.874  0.00  0.00    +0.139 C 
ATOM     21  C   UNL     1      36.599 -21.166 -18.498  0.00  0.00    +0.037 C 
ATOM     22  C   UNL     1      34.413 -22.179 -18.343  0.00  0.00    +0.037 C 
ATOM     23  C   UNL     1      36.186 -20.403 -19.603  0.00  0.00    +0.003 C 
ATOM     24  C   UNL     1      34.861 -20.536 -20.080  0.00  0.00    +0.003 C 
ATOM     25  C   UNL     1      33.986 -21.429 -19.439  0.00  0.00    +0.003 C 
ATOM     26  C   UNL     1      37.062 -19.511 -20.244  0.00  0.00    +0.003 C 
ATOM     27  C   UNL     1      34.450 -19.772 -21.184  0.00  0.00    +0.037 C 
ATOM     28  C   UNL     1      35.331 -18.890 -21.809  0.00  0.00    +0.139 C 
ATOM     29  C   UNL     1      36.635 -18.759 -21.340  0.00  0.00    +0.037 C 
BRANCH  28  30
ATOM     30  O   UNL     1      34.915 -18.156 -22.877  0.00  0.00    -0.471 OA
ATOM     31  C   UNL     1      34.201 -18.846 -23.900  0.00  0.00    +0.252 C 
ENDBRANCH  28  30
ENDBRANCH  19  20
ENDBRANCH  18  19
ENDBRANCH   3  18
TORSDOF 7
ENDMDL
MODEL 2
REMARK VINA RESULT:     -10.6      0.970      1.878
REMARK  Name = 25114442
REMARK  7 active torsions:
REMARK  status: ('A' for Active; 'I' for Inactive)
REMARK    1  A    between atoms: C_3  and  C_15
REMARK    2  A    between atoms: C_3  and  C_18
REMARK    3  A    between atoms: C_6  and  C_8
REMARK    4  A    between atoms: C_15  and  O_16
REMARK    5  A    between atoms: C_18  and  O_19
REMARK    6  A    between atoms: O_19  and  C_20
REMARK    7  A    between atoms: C_28  and  O_30
REMARK                            x       y       z     vdW  Elec       q    Type
REMARK                         _______ _______ _______ _____ _____    ______ ____
ROOT
ATOM      1  O   UNL     1      32.393 -22.750 -11.997  0.00  0.00    -0.270 OA
ATOM      2  N   UNL     1      33.767 -24.057 -13.301  0.00  0.00    -0.275 N 
ATOM      3  C   UNL     1      35.616 -24.381 -14.113  0.00  0.00    +0.166 C 
ATOM      4  C   UNL     1      34.214 -24.957 -14.346  0.00  0.00    +0.110 C 
ATOM      5  C   UNL     1      35.101 -23.787 -12.797  0.00  0.00    +0.110 C 
ATOM      6  C   UNL     1      32.561 -23.513 -12.944  0.00  0.00    +0.249 C 
ENDROOT
BRANCH   6   8
ATOM      7  F   UNL     1      28.135 -24.827 -16.122  0.00  0.00    -0.204 F 
ATOM      8  C   UNL     1      31.396 -23.860 -13.781  0.00  0.00    +0.054 C 
ATOM      9  C   UNL     1      30.668 -25.019 -13.517  0.00  0.00    +0.007 C 
ATOM     10  C   UNL     1      31.023 -23.026 -14.836  0.00  0.00    +0.007 C 
ATOM     11  C   UNL     1      29.566 -25.346 -14.307  0.00  0.00    +0.030 C 
ATOM     12  C   UNL     1      29.921 -23.354 -15.627  0.00  0.00    +0.030 C 
ATOM     13  C   UNL     1      29.193 -24.513 -15.362  0.00  0.00    +0.140 C 
ENDBRANCH   6   8
BRANCH   3  15
ATOM     14  O   UNL     1      37.075 -26.041 -12.991  0.00  0.00    -0.250 OA
ATOM     15  C   UNL     1      36.770 -25.409 -14.000  0.00  0.00    +0.320 C 
BRANCH  15  16
ATOM     16  O   UNL     1      37.448 -25.558 -15.172  0.00  0.00    -0.480 OA
ATOM     17  H   UNL     1      37.351 -24.923 -15.853  0.00  0.00    +0.295 HD
ENDBRANCH  15  16
ENDBRANCH   3  15
BRANCH   3  18
ATOM     18  C   UNL     1      35.956 -23.300 -15.121  0.00  0.00    +0.219 C 
BRANCH  18  19
ATOM     19  O   UNL     1      35.172 -23.508 -16.295  0.00  0.00    -0.475 OA
BRANCH  19  20
ATOM     20  C   UNL     1      35.319 -22.609 -17.306  0.00  0.00    +0.139 C 
ATOM     21  C   UNL     1      34.221 -22.260 -18.093  0.00  0.00    +0.037 C 
ATOM     22  C   UNL     1      36.565 -22.039 -17.554  0.00  0.00    +0.037 C 
ATOM     23  C   UNL     1      34.357 -21.334 -19.141  0.00  0.00    +0.003 C 
ATOM     24  C   UNL     1      35.623 -20.754 -19.393  0.00  0.00    +0.003 C 
ATOM     25  C   UNL     1      36.717 -21.117 -18.590  0.00  0.00    +0.003 C 
ATOM     26  C   UNL     1      33.262 -20.971 -19.943  0.00  0.00    +0.003 C 
ATOM     27  C   UNL     1      35.757 -19.828 -20.440  0.00  0.00    +0.037 C 
ATOM     28  C   UNL     1      34.659 -19.479 -21.227  0.00  0.00    +0.139 C 
ATOM     29  C   UNL     1      33.414 -20.050 -20.980  0.00  0.00    +0.037 C 
BRANCH  28  30
ATOM     30  O   UNL     1      34.808 -18.582 -22.240  0.00  0.00    -0.471 OA
ATOM     31  C   UNL     1      35.934 -17.709 -22.174  0.00  0.00    +0.252 C 
ENDBRANCH  28  30
ENDBRANCH  19  20
ENDBRANCH  18  19
ENDBRANCH   3  18
TORSDOF 7
ENDMDL
MODEL 3
REMARK VINA RESULT:     -10.2      5.681      9.384
REMARK  Name = 25114442
REMARK  7 active torsions:
REMARK  status: ('A' for Active; 'I' for Inactive)
REMARK    1  A    between atoms: C_3  and  C_15
REMARK    2  A    between atoms: C_3  and  C_18
REMARK    3  A    between atoms: C_6  and  C_8
REMARK    4  A    between atoms: C_15  and  O_16
REMARK    5  A    between atoms: C_18  and  O_19
REMARK    6  A    between atoms: O_19  and  C_20
REMARK    7  A    between atoms: C_28  and  O_30
REMARK                            x       y       z     vdW  Elec       q    Type
REMARK                         _______ _______ _______ _____ _____    ______ ____
ROOT
ATOM      1  O   UNL     1      37.547 -19.505 -19.941  0.00  0.00    -0.270 OA
ATOM      2  N   UNL     1      35.866 -18.962 -21.415  0.00  0.00    -0.275 N 
ATOM      3  C   UNL     1      34.972 -17.562 -22.610  0.00  0.00    +0.166 C 
ATOM      4  C   UNL     1      34.574 -18.942 -22.074  0.00  0.00    +0.110 C 
ATOM      5  C   UNL     1      36.417 -17.873 -22.201  0.00  0.00    +0.110 C 
ATOM      6  C   UNL     1      36.397 -19.639 -20.349  0.00  0.00    +0.249 C 
ENDROOT
BRANCH   6   8
ATOM      7  F   UNL     1      33.006 -23.194 -17.651  0.00  0.00    -0.204 F 
ATOM      8  C   UNL     1      35.504 -20.574 -19.638  0.00  0.00    +0.054 C 
ATOM      9  C   UNL     1      34.135 -20.570 -19.904  0.00  0.00    +0.007 C 
ATOM     10  C   UNL     1      36.029 -21.464 -18.701  0.00  0.00    +0.007 C 
ATOM     11  C   UNL     1      33.291 -21.454 -19.234  0.00  0.00    +0.030 C 
ATOM     12  C   UNL     1      35.185 -22.349 -18.029  0.00  0.00    +0.030 C 
ATOM     13  C   UNL     1      33.816 -22.344 -18.296  0.00  0.00    +0.140 C 
ENDBRANCH   6   8
BRANCH   3  15
ATOM     14  O   UNL     1      33.988 -17.978 -24.846  0.00  0.00    -0.250 OA
ATOM     15  C   UNL     1      34.722 -17.312 -24.119  0.00  0.00    +0.320 C 
BRANCH  15  16
ATOM     16  O   UNL     1      35.418 -16.240 -24.589  0.00  0.00    -0.480 OA
ATOM     17  H   UNL     1      35.076 -15.735 -25.299  0.00  0.00    +0.295 HD
ENDBRANCH  15  16
ENDBRANCH   3  15
BRANCH   3  18
ATOM     18  C   UNL     1      34.383 -16.441 -21.775  0.00  0.00    +0.219 C 
BRANCH  18  19
ATOM     19  O   UNL     1      34.877 -15.197 -22.268  0.00  0.00    -0.475 OA
BRANCH  19  20
ATOM     20  C   UNL     1      34.055 -14.117 -22.159  0.00  0.00    +0.139 C 
ATOM     21  C   UNL     1      34.141 -13.081 -23.089  0.00  0.00    +0.037 C 
ATOM     22  C   UNL     1      33.132 -14.047 -21.120  0.00  0.00    +0.037 C 
ATOM     23  C   UNL     1      33.301 -11.959 -22.990  0.00  0.00    +0.003 C 
ATOM     24  C   UNL     1      32.361 -11.888 -21.935  0.00  0.00    +0.003 C 
ATOM     25  C   UNL     1      32.289 -12.941 -21.008  0.00  0.00    +0.003 C 
ATOM     26  C   UNL     1      33.373 -10.907 -23.918  0.00  0.00    +0.003 C 
ATOM     27  C   UNL     1      31.522 -10.767 -21.838  0.00  0.00    +0.037 C 
ATOM     28  C   UNL     1      31.607  -9.731 -22.767  0.00  0.00    +0.139 C 
ATOM     29  C   UNL     1      32.531  -9.799 -23.805  0.00  0.00    +0.037 C 
BRANCH  28  30
ATOM     30  O   UNL     1      30.787  -8.649 -22.656  0.00  0.00    -0.471 OA
ATOM     31  C   UNL     1      30.809  -7.707 -23.727  0.00  0.00    +0.252 C 
ENDBRANCH  28  30
ENDBRANCH  19  20
ENDBRANCH  18  19
ENDBRANCH   3  18
TORSDOF 7
ENDMDL
MODEL 4
REMARK VINA RESULT:     -10.1      4.571      9.885
REMARK  Name = 25114442
REMARK  7 active torsions:
REMARK  status: ('A' for Active; 'I' for Inactive)
REMARK    1  A    between atoms: C_3  and  C_15
REMARK    2  A    between atoms: C_3  and  C_18
REMARK    3  A    between atoms: C_6  and  C_8
REMARK    4  A    between atoms: C_15  and  O_16
REMARK    5  A    between atoms: C_18  and  O_19
REMARK    6  A    between atoms: O_19  and  C_20
REMARK    7  A    between atoms: C_28  and  O_30
REMARK                            x       y       z     vdW  Elec       q    Type
REMARK                         _______ _______ _______ _____ _____    ______ ____
ROOT
ATOM      1  O   UNL     1      34.058 -16.595 -25.107  0.00  0.00    -0.270 OA
ATOM      2  N   UNL     1      35.169 -16.895 -23.114  0.00  0.00    -0.275 N 
ATOM      3  C   UNL     1      35.855 -18.171 -21.670  0.00  0.00    +0.166 C 
ATOM      4  C   UNL     1      35.675 -16.652 -21.777  0.00  0.00    +0.110 C 
ATOM      5  C   UNL     1      35.682 -18.250 -23.191  0.00  0.00    +0.110 C 
ATOM      6  C   UNL     1      34.378 -16.198 -23.990  0.00  0.00    +0.249 C 
ENDROOT
BRANCH   6   8
ATOM      7  F   UNL     1      32.430 -11.236 -22.260  0.00  0.00    -0.204 F 
ATOM      8  C   UNL     1      33.864 -14.892 -23.534  0.00  0.00    +0.054 C 
ATOM      9  C   UNL     1      33.796 -14.607 -22.171  0.00  0.00    +0.007 C 
ATOM     10  C   UNL     1      33.448 -13.942 -24.467  0.00  0.00    +0.007 C 
ATOM     11  C   UNL     1      33.312 -13.372 -21.740  0.00  0.00    +0.030 C 
ATOM     12  C   UNL     1      32.963 -12.707 -24.036  0.00  0.00    +0.030 C 
ATOM     13  C   UNL     1      32.896 -12.422 -22.673  0.00  0.00    +0.140 C 
ENDBRANCH   6   8
BRANCH   3  15
ATOM     14  O   UNL     1      38.237 -18.851 -21.755  0.00  0.00    -0.250 OA
ATOM     15  C   UNL     1      37.212 -18.663 -21.104  0.00  0.00    +0.320 C 
BRANCH  15  16
ATOM     16  O   UNL     1      37.165 -18.878 -19.760  0.00  0.00    -0.480 OA
ATOM     17  H   UNL     1      36.782 -18.236 -19.197  0.00  0.00    +0.295 HD
ENDBRANCH  15  16
ENDBRANCH   3  15
BRANCH   3  18
ATOM     18  C   UNL     1      34.699 -18.825 -20.939  0.00  0.00    +0.219 C 
BRANCH  18  19
ATOM     19  O   UNL     1      34.853 -20.242 -21.018  0.00  0.00    -0.475 OA
BRANCH  19  20
ATOM     20  C   UNL     1      34.707 -20.946 -19.863  0.00  0.00    +0.139 C 
ATOM     21  C   UNL     1      35.806 -21.148 -19.027  0.00  0.00    +0.037 C 
ATOM     22  C   UNL     1      33.463 -21.465 -19.516  0.00  0.00    +0.037 C 
ATOM     23  C   UNL     1      35.672 -21.873 -17.832  0.00  0.00    +0.003 C 
ATOM     24  C   UNL     1      34.408 -22.401 -17.479  0.00  0.00    +0.003 C 
ATOM     25  C   UNL     1      33.312 -22.188 -18.332  0.00  0.00    +0.003 C 
ATOM     26  C   UNL     1      36.768 -22.086 -16.978  0.00  0.00    +0.003 C 
ATOM     27  C   UNL     1      34.275 -23.125 -16.283  0.00  0.00    +0.037 C 
ATOM     28  C   UNL     1      35.374 -23.327 -15.448  0.00  0.00    +0.139 C 
ATOM     29  C   UNL     1      36.618 -22.809 -15.794  0.00  0.00    +0.037 C 
BRANCH  28  30
ATOM     30  O   UNL     1      35.228 -24.034 -14.293  0.00  0.00    -0.471 OA
ATOM     31  C   UNL     1      35.777 -25.351 -14.266  0.00  0.00    +0.252 C 
ENDBRANCH  28  30
ENDBRANCH  19  20
ENDBRANCH  18  19
ENDBRANCH   3  18
TORSDOF 7
ENDMDL
MODEL 5
REMARK VINA RESULT:      -9.7      4.661      9.538
REMARK  Name = 25114442
REMARK  7 active torsions:
REMARK  status: ('A' for Active; 'I' for Inactive)
REMARK    1  A    between atoms: C_3  and  C_15
REMARK    2  A    between atoms: C_3  and  C_18
REMARK    3  A    between atoms: C_6  and  C_8
REMARK    4  A    between atoms: C_15  and  O_16
REMARK    5  A    between atoms: C_18  and  O_19
REMARK    6  A    between atoms: O_19  and  C_20
REMARK    7  A    between atoms: C_28  and  O_30
REMARK                            x       y       z     vdW  Elec       q    Type
REMARK                         _______ _______ _______ _____ _____    ______ ____
ROOT
ATOM      1  O   UNL     1      33.932 -14.966 -24.167  0.00  0.00    -0.270 OA
ATOM      2  N   UNL     1      34.931 -16.104 -22.434  0.00  0.00    -0.275 N 
ATOM      3  C   UNL     1      35.652 -17.865 -21.684  0.00  0.00    +0.166 C 
ATOM      4  C   UNL     1      35.316 -16.492 -21.090  0.00  0.00    +0.110 C 
ATOM      5  C   UNL     1      35.592 -17.224 -23.076  0.00  0.00    +0.110 C 
ATOM      6  C   UNL     1      34.130 -15.127 -22.966  0.00  0.00    +0.249 C 
ENDROOT
BRANCH   6   8
ATOM      7  F   UNL     1      31.531 -11.721 -19.352  0.00  0.00    -0.204 F 
ATOM      8  C   UNL     1      33.447 -14.230 -22.014  0.00  0.00    +0.054 C 
ATOM      9  C   UNL     1      33.008 -12.974 -22.432  0.00  0.00    +0.007 C 
ATOM     10  C   UNL     1      33.238 -14.639 -20.697  0.00  0.00    +0.007 C 
ATOM     11  C   UNL     1      32.361 -12.126 -21.534  0.00  0.00    +0.030 C 
ATOM     12  C   UNL     1      32.591 -13.791 -19.798  0.00  0.00    +0.030 C 
ATOM     13  C   UNL     1      32.152 -12.535 -20.216  0.00  0.00    +0.140 C 
ENDBRANCH   6   8
BRANCH   3  15
ATOM     14  O   UNL     1      37.361 -18.743 -20.118  0.00  0.00    -0.250 OA
ATOM     15  C   UNL     1      37.013 -18.479 -21.266  0.00  0.00    +0.320 C 
BRANCH  15  16
ATOM     16  O   UNL     1      37.826 -18.710 -22.334  0.00  0.00    -0.480 OA
ATOM     17  H   UNL     1      38.606 -19.218 -22.228  0.00  0.00    +0.295 HD
ENDBRANCH  15  16
ENDBRANCH   3  15
BRANCH   3  18
ATOM     18  C   UNL     1      34.528 -18.860 -21.476  0.00  0.00    +0.219 C 
BRANCH  18  19
ATOM     19  O   UNL     1      35.093 -20.112 -21.087  0.00  0.00    -0.475 OA
BRANCH  19  20
ATOM     20  C   UNL     1      34.493 -20.768 -20.055  0.00  0.00    +0.139 C 
ATOM     21  C   UNL     1      35.273 -21.378 -19.072  0.00  0.00    +0.037 C 
ATOM     22  C   UNL     1      33.105 -20.831 -19.984  0.00  0.00    +0.037 C 
ATOM     23  C   UNL     1      34.670 -22.059 -18.002  0.00  0.00    +0.003 C 
ATOM     24  C   UNL     1      33.258 -22.123 -17.928  0.00  0.00    +0.003 C 
ATOM     25  C   UNL     1      32.490 -21.503 -18.927  0.00  0.00    +0.003 C 
ATOM     26  C   UNL     1      35.439 -22.678 -17.002  0.00  0.00    +0.003 C 
ATOM     27  C   UNL     1      32.657 -22.804 -16.857  0.00  0.00    +0.037 C 
ATOM     28  C   UNL     1      33.436 -23.414 -15.874  0.00  0.00    +0.139 C 
ATOM     29  C   UNL     1      34.824 -23.352 -15.946  0.00  0.00    +0.037 C 
BRANCH  28  30
ATOM     30  O   UNL     1      32.836 -24.072 -14.844  0.00  0.00    -0.471 OA
ATOM     31  C   UNL     1      31.975 -23.310 -14.000  0.00  0.00    +0.252 C 
ENDBRANCH  28  30
ENDBRANCH  19  20
ENDBRANCH  18  19
ENDBRANCH   3  18
TORSDOF 7
ENDMDL
MODEL 6
REMARK VINA RESULT:      -9.5      4.403      9.911
REMARK  Name = 25114442
REMARK  7 active torsions:
REMARK  status: ('A' for Active; 'I' for Inactive)
REMARK    1  A    between atoms: C_3  and  C_15
REMARK    2  A    between atoms: C_3  and  C_18
REMARK    3  A    between atoms: C_6  and  C_8
REMARK    4  A    between atoms: C_15  and  O_16
REMARK    5  A    between atoms: C_18  and  O_19
REMARK    6  A    between atoms: O_19  and  C_20
REMARK    7  A    between atoms: C_28  and  O_30
REMARK                            x       y       z     vdW  Elec       q    Type
REMARK                         _______ _______ _______ _____ _____    ______ ____
ROOT
ATOM      1  O   UNL     1      34.257 -17.761 -25.119  0.00  0.00    -0.270 OA
ATOM      2  N   UNL     1      35.288 -17.632 -23.065  0.00  0.00    -0.275 N 
ATOM      3  C   UNL     1      35.853 -18.558 -21.331  0.00  0.00    +0.166 C 
ATOM      4  C   UNL     1      35.768 -17.101 -21.803  0.00  0.00    +0.110 C 
ATOM      5  C   UNL     1      35.721 -18.990 -22.796  0.00  0.00    +0.110 C 
ATOM      6  C   UNL     1      34.567 -17.125 -24.115  0.00  0.00    +0.249 C 
ENDROOT
BRANCH   6   8
ATOM      7  F   UNL     1      32.863 -11.803 -23.694  0.00  0.00    -0.204 F 
ATOM      8  C   UNL     1      34.119 -15.724 -24.005  0.00  0.00    +0.054 C 
ATOM      9  C   UNL     1      33.393 -15.140 -25.043  0.00  0.00    +0.007 C 
ATOM     10  C   UNL     1      34.420 -14.983 -22.861  0.00  0.00    +0.007 C 
ATOM     11  C   UNL     1      32.969 -13.816 -24.938  0.00  0.00    +0.030 C 
ATOM     12  C   UNL     1      33.996 -13.658 -22.757  0.00  0.00    +0.030 C 
ATOM     13  C   UNL     1      33.270 -13.075 -23.795  0.00  0.00    +0.140 C 
ENDBRANCH   6   8
BRANCH   3  15
ATOM     14  O   UNL     1      37.242 -19.400 -19.459  0.00  0.00    -0.250 OA
ATOM     15  C   UNL     1      37.160 -18.969 -20.607  0.00  0.00    +0.320 C 
BRANCH  15  16
ATOM     16  O   UNL     1      38.261 -18.804 -21.392  0.00  0.00    -0.480 OA
ATOM     17  H   UNL     1      38.294 -18.102 -22.011  0.00  0.00    +0.295 HD
ENDBRANCH  15  16
ENDBRANCH   3  15
BRANCH   3  18
ATOM     18  C   UNL     1      34.639 -18.958 -20.516  0.00  0.00    +0.219 C 
BRANCH  18  19
ATOM     19  O   UNL     1      34.424 -20.359 -20.676  0.00  0.00    -0.475 OA
BRANCH  19  20
ATOM     20  C   UNL     1      34.347 -21.107 -19.541  0.00  0.00    +0.139 C 
ATOM     21  C   UNL     1      33.104 -21.371 -18.964  0.00  0.00    +0.037 C 
ATOM     22  C   UNL     1      35.507 -21.606 -18.956  0.00  0.00    +0.037 C 
ATOM     23  C   UNL     1      33.007 -22.140 -17.793  0.00  0.00    +0.003 C 
ATOM     24  C   UNL     1      34.186 -22.648 -17.198  0.00  0.00    +0.003 C 
ATOM     25  C   UNL     1      35.429 -22.372 -17.792  0.00  0.00    +0.003 C 
ATOM     26  C   UNL     1      31.764 -22.416 -17.200  0.00  0.00    +0.003 C 
ATOM     27  C   UNL     1      34.088 -23.417 -16.027  0.00  0.00    +0.037 C 
ATOM     28  C   UNL     1      32.846 -23.681 -15.451  0.00  0.00    +0.139 C 
ATOM     29  C   UNL     1      31.685 -23.181 -16.035  0.00  0.00    +0.037 C 
BRANCH  28  30
ATOM     30  O   UNL     1      32.768 -24.427 -14.314  0.00  0.00    -0.471 OA
ATOM     31  C   UNL     1      31.838 -24.000 -13.321  0.00  0.00    +0.252 C 
ENDBRANCH  28  30
ENDBRANCH  19  20
ENDBRANCH  18  19
ENDBRANCH   3  18
TORSDOF 7
ENDMDL
MODEL 7
REMARK VINA RESULT:      -9.2     10.386     15.201
REMARK  Name = 25114442
REMARK  7 active torsions:
REMARK  status: ('A' for Active; 'I' for Inactive)
REMARK    1  A    between atoms: C_3  and  C_15
REMARK    2  A    between atoms: C_3  and  C_18
REMARK    3  A    between atoms: C_6  and  C_8
REMARK    4  A    between atoms: C_15  and  O_16
REMARK    5  A    between atoms: C_18  and  O_19
REMARK    6  A    between atoms: O_19  and  C_20
REMARK    7  A    between atoms: C_28  and  O_30
REMARK                            x       y       z     vdW  Elec       q    Type
REMARK                         _______ _______ _______ _____ _____    ______ ____
ROOT
ATOM      1  O   UNL     1      33.055  -5.813 -21.010  0.00  0.00    -0.270 OA
ATOM      2  N   UNL     1      32.002  -7.709 -21.781  0.00  0.00    -0.275 N 
ATOM      3  C   UNL     1      31.876  -9.751 -21.809  0.00  0.00    +0.166 C 
ATOM      4  C   UNL     1      31.275  -8.617 -22.648  0.00  0.00    +0.110 C 
ATOM      5  C   UNL     1      32.260  -8.704 -20.757  0.00  0.00    +0.110 C 
ATOM      6  C   UNL     1      32.438  -6.414 -21.885  0.00  0.00    +0.249 C 
ENDROOT
BRANCH   6   8
ATOM      7  F   UNL     1      31.375  -3.749 -26.700  0.00  0.00    -0.204 F 
ATOM      8  C   UNL     1      32.157  -5.713 -23.153  0.00  0.00    +0.054 C 
ATOM      9  C   UNL     1      30.954  -5.028 -23.320  0.00  0.00    +0.007 C 
ATOM     10  C   UNL     1      33.097  -5.734 -24.184  0.00  0.00    +0.007 C 
ATOM     11  C   UNL     1      30.690  -4.364 -24.518  0.00  0.00    +0.030 C 
ATOM     12  C   UNL     1      32.832  -5.071 -25.382  0.00  0.00    +0.030 C 
ATOM     13  C   UNL     1      31.629  -4.386 -25.549  0.00  0.00    +0.140 C 
ENDBRANCH   6   8
BRANCH   3  15
ATOM     14  O   UNL     1      30.812 -11.324 -20.216  0.00  0.00    -0.250 OA
ATOM     15  C   UNL     1      30.895 -10.860 -21.351  0.00  0.00    +0.320 C 
BRANCH  15  16
ATOM     16  O   UNL     1      30.094 -11.293 -22.363  0.00  0.00    -0.480 OA
ATOM     17  H   UNL     1      29.199 -11.021 -22.402  0.00  0.00    +0.295 HD
ENDBRANCH  15  16
ENDBRANCH   3  15
BRANCH   3  18
ATOM     18  C   UNL     1      33.099 -10.355 -22.470  0.00  0.00    +0.219 C 
BRANCH  18  19
ATOM     19  O   UNL     1      32.685 -11.469 -23.261  0.00  0.00    -0.475 OA
BRANCH  19  20
ATOM     20  C   UNL     1      33.275 -12.667 -22.999  0.00  0.00    +0.139 C 
ATOM     21  C   UNL     1      33.303 -13.659 -23.980  0.00  0.00    +0.037 C 
ATOM     22  C   UNL     1      33.849 -12.903 -21.753  0.00  0.00    +0.037 C 
ATOM     23  C   UNL     1      33.907 -14.901 -23.725  0.00  0.00    +0.003 C 
ATOM     24  C   UNL     1      34.491 -15.141 -22.459  0.00  0.00    +0.003 C 
ATOM     25  C   UNL     1      34.454 -14.131 -21.483  0.00  0.00    +0.003 C 
ATOM     26  C   UNL     1      33.944 -15.911 -24.702  0.00  0.00    +0.003 C 
ATOM     27  C   UNL     1      35.095 -16.384 -22.206  0.00  0.00    +0.037 C 
ATOM     28  C   UNL     1      35.123 -17.375 -23.186  0.00  0.00    +0.139 C 
ATOM     29  C   UNL     1      34.548 -17.140 -24.432  0.00  0.00    +0.037 C 
BRANCH  28  30
ATOM     30  O   UNL     1      35.710 -18.575 -22.923  0.00  0.00    -0.471 OA
ATOM     31  C   UNL     1      35.024 -19.451 -22.030  0.00  0.00    +0.252 C 
ENDBRANCH  28  30
ENDBRANCH  19  20
ENDBRANCH  18  19
ENDBRANCH   3  18
TORSDOF 7
ENDMDL
MODEL 8
REMARK VINA RESULT:      -9.1      3.740      7.243
REMARK  Name = 25114442
REMARK  7 active torsions:
REMARK  status: ('A' for Active; 'I' for Inactive)
REMARK    1  A    between atoms: C_3  and  C_15
REMARK    2  A    between atoms: C_3  and  C_18
REMARK    3  A    between atoms: C_6  and  C_8
REMARK    4  A    between atoms: C_15  and  O_16
REMARK    5  A    between atoms: C_18  and  O_19
REMARK    6  A    between atoms: O_19  and  C_20
REMARK    7  A    between atoms: C_28  and  O_30
REMARK                            x       y       z     vdW  Elec       q    Type
REMARK                         _______ _______ _______ _____ _____    ______ ____
ROOT
ATOM      1  O   UNL     1      36.230 -25.742 -15.258  0.00  0.00    -0.270 OA
ATOM      2  N   UNL     1      36.214 -24.377 -13.405  0.00  0.00    -0.275 N 
ATOM      3  C   UNL     1      35.535 -24.009 -11.511  0.00  0.00    +0.166 C 
ATOM      4  C   UNL     1      36.264 -23.186 -12.579  0.00  0.00    +0.110 C 
ATOM      5  C   UNL     1      35.892 -25.269 -12.306  0.00  0.00    +0.110 C 
ATOM      6  C   UNL     1      36.299 -24.626 -14.750  0.00  0.00    +0.249 C 
ENDROOT
BRANCH   6   8
ATOM      7  F   UNL     1      36.913 -20.194 -18.125  0.00  0.00    -0.204 F 
ATOM      8  C   UNL     1      36.460 -23.458 -15.637  0.00  0.00    +0.054 C 
ATOM      9  C   UNL     1      37.624 -22.693 -15.578  0.00  0.00    +0.007 C 
ATOM     10  C   UNL     1      35.449 -23.123 -16.538  0.00  0.00    +0.007 C 
ATOM     11  C   UNL     1      37.777 -21.590 -16.418  0.00  0.00    +0.030 C 
ATOM     12  C   UNL     1      35.602 -22.019 -17.378  0.00  0.00    +0.030 C 
ATOM     13  C   UNL     1      36.766 -21.253 -17.318  0.00  0.00    +0.140 C 
ENDBRANCH   6   8
BRANCH   3  15
ATOM     14  O   UNL     1      37.034 -23.206  -9.707  0.00  0.00    -0.250 OA
ATOM     15  C   UNL     1      36.101 -23.919 -10.071  0.00  0.00    +0.320 C 
BRANCH  15  16
ATOM     16  O   UNL     1      35.443 -24.738  -9.204  0.00  0.00    -0.480 OA
ATOM     17  H   UNL     1      35.734 -24.812  -8.317  0.00  0.00    +0.295 HD
ENDBRANCH  15  16
ENDBRANCH   3  15
BRANCH   3  18
ATOM     18  C   UNL     1      34.042 -23.745 -11.518  0.00  0.00    +0.219 C 
BRANCH  18  19
ATOM     19  O   UNL     1      33.407 -24.739 -12.322  0.00  0.00    -0.475 OA
BRANCH  19  20
ATOM     20  C   UNL     1      32.530 -24.304 -13.267  0.00  0.00    +0.139 C 
ATOM     21  C   UNL     1      31.308 -24.955 -13.435  0.00  0.00    +0.037 C 
ATOM     22  C   UNL     1      32.854 -23.211 -14.067  0.00  0.00    +0.037 C 
ATOM     23  C   UNL     1      30.391 -24.518 -14.406  0.00  0.00    +0.003 C 
ATOM     24  C   UNL     1      30.720 -23.407 -15.219  0.00  0.00    +0.003 C 
ATOM     25  C   UNL     1      31.955 -22.764 -15.036  0.00  0.00    +0.003 C 
ATOM     26  C   UNL     1      29.156 -25.161 -14.588  0.00  0.00    +0.003 C 
ATOM     27  C   UNL     1      29.803 -22.972 -16.189  0.00  0.00    +0.037 C 
ATOM     28  C   UNL     1      28.581 -23.622 -16.356  0.00  0.00    +0.139 C 
ATOM     29  C   UNL     1      28.257 -24.715 -15.558  0.00  0.00    +0.037 C 
BRANCH  28  30
ATOM     30  O   UNL     1      27.704 -23.188 -17.304  0.00  0.00    -0.471 OA
ATOM     31  C   UNL     1      26.827 -22.124 -16.938  0.00  0.00    +0.252 C 
ENDBRANCH  28  30
ENDBRANCH  19  20
ENDBRANCH  18  19
ENDBRANCH   3  18
TORSDOF 7
ENDMDL
MODEL 9
REMARK VINA RESULT:      -9.0     11.380     15.855
REMARK  Name = 25114442
REMARK  7 active torsions:
REMARK  status: ('A' for Active; 'I' for Inactive)
REMARK    1  A    between atoms: C_3  and  C_15
REMARK    2  A    between atoms: C_3  and  C_18
REMARK    3  A    between atoms: C_6  and  C_8
REMARK    4  A    between atoms: C_15  and  O_16
REMARK    5  A    between atoms: C_18  and  O_19
REMARK    6  A    between atoms: O_19  and  C_20
REMARK    7  A    between atoms: C_28  and  O_30
REMARK                            x       y       z     vdW  Elec       q    Type
REMARK                         _______ _______ _______ _____ _____    ______ ____
ROOT
ATOM      1  O   UNL     1      34.198  -6.145 -23.553  0.00  0.00    -0.270 OA
ATOM      2  N   UNL     1      32.777  -6.881 -21.899  0.00  0.00    -0.275 N 
ATOM      3  C   UNL     1      32.015  -8.438 -20.813  0.00  0.00    +0.166 C 
ATOM      4  C   UNL     1      31.628  -6.969 -21.017  0.00  0.00    +0.110 C 
ATOM      5  C   UNL     1      33.380  -8.115 -21.432  0.00  0.00    +0.110 C 
ATOM      6  C   UNL     1      33.154  -6.042 -22.915  0.00  0.00    +0.249 C 
ENDROOT
BRANCH   6   8
ATOM      7  F   UNL     1      29.594  -1.928 -24.261  0.00  0.00    -0.204 F 
ATOM      8  C   UNL     1      32.218  -4.958 -23.270  0.00  0.00    +0.054 C 
ATOM      9  C   UNL     1      31.479  -5.034 -24.451  0.00  0.00    +0.007 C 
ATOM     10  C   UNL     1      32.070  -3.859 -22.424  0.00  0.00    +0.007 C 
ATOM     11  C   UNL     1      30.593  -4.011 -24.786  0.00  0.00    +0.030 C 
ATOM     12  C   UNL     1      31.184  -2.835 -22.759  0.00  0.00    +0.030 C 
ATOM     13  C   UNL     1      30.445  -2.911 -23.940  0.00  0.00    +0.140 C 
ENDBRANCH   6   8
BRANCH   3  15
ATOM     14  O   UNL     1      33.026  -9.198 -18.682  0.00  0.00    -0.250 OA
ATOM     15  C   UNL     1      32.025  -8.948 -19.349  0.00  0.00    +0.320 C 
BRANCH  15  16
ATOM     16  O   UNL     1      30.769  -9.101 -18.846  0.00  0.00    -0.480 OA
ATOM     17  H   UNL     1      30.525  -8.664 -18.054  0.00  0.00    +0.295 HD
ENDBRANCH  15  16
ENDBRANCH   3  15
BRANCH   3  18
ATOM     18  C   UNL     1      31.203  -9.363 -21.699  0.00  0.00    +0.219 C 
BRANCH  18  19
ATOM     19  O   UNL     1      31.081 -10.627 -21.048  0.00  0.00    -0.475 OA
BRANCH  19  20
ATOM     20  C   UNL     1      31.903 -11.625 -21.475  0.00  0.00    +0.139 C 
ATOM     21  C   UNL     1      32.368 -12.579 -20.569  0.00  0.00    +0.037 C 
ATOM     22  C   UNL     1      32.281 -11.692 -22.813  0.00  0.00    +0.037 C 
ATOM     23  C   UNL     1      33.217 -13.615 -20.992  0.00  0.00    +0.003 C 
ATOM     24  C   UNL     1      33.601 -13.683 -22.353  0.00  0.00    +0.003 C 
ATOM     25  C   UNL     1      33.123 -12.714 -23.251  0.00  0.00    +0.003 C 
ATOM     26  C   UNL     1      33.693 -14.584 -20.094  0.00  0.00    +0.003 C 
ATOM     27  C   UNL     1      34.449 -14.719 -22.775  0.00  0.00    +0.037 C 
ATOM     28  C   UNL     1      34.914 -15.673 -21.870  0.00  0.00    +0.139 C 
ATOM     29  C   UNL     1      34.537 -15.606 -20.532  0.00  0.00    +0.037 C 
BRANCH  28  30
ATOM     30  O   UNL     1      35.738 -16.669 -22.296  0.00  0.00    -0.471 OA
ATOM     31  C   UNL     1      35.600 -17.940 -21.663  0.00  0.00    +0.252 C 
ENDBRANCH  28  30
ENDBRANCH  19  20
ENDBRANCH  18  19
ENDBRANCH   3  18
TORSDOF 7
ENDMDL
