MODEL 1
REMARK VINA RESULT:     -10.6      0.000      0.000
REMARK  Name = 11338127
REMARK  7 active torsions:
REMARK  status: ('A' for Active; 'I' for Inactive)
REMARK    1  A    between atoms: N_1  and  C_8
REMARK    2  A    between atoms: C_3  and  N_20
REMARK    3  A    between atoms: C_4  and  C_24
REMARK    4  A    between atoms: C_6  and  C_15
REMARK    5  A    between atoms: N_14  and  C_17
REMARK    6  A    between atoms: C_24  and  C_25
REMARK    7  A    between atoms: C_28  and  C_32
REMARK                            x       y       z     vdW  Elec       q    Type
REMARK                         _______ _______ _______ _____ _____    ______ ____
ROOT
ATOM      1  N   UNL     1      35.396 -19.290 -20.730  0.00  0.00    -0.177 N 
ATOM      2  N   UNL     1      36.655 -19.491 -20.302  0.00  0.00    -0.171 NA
ATOM      3  C   UNL     1      34.496 -20.189 -20.238  0.00  0.00    +0.122 C 
ATOM      4  C   UNL     1      35.232 -21.002 -19.455  0.00  0.00    +0.088 C 
ATOM      5  C   UNL     1      36.538 -20.559 -19.510  0.00  0.00    +0.124 C 
ENDROOT
BRANCH   1   8
ATOM      6  C   UNL     1      34.635 -15.897 -21.915  0.00  0.00    +0.055 C 
ATOM      7  C   UNL     1      34.903 -16.968 -21.064  0.00  0.00    +0.021 C 
ATOM      8  C   UNL     1      35.128 -18.231 -21.599  0.00  0.00    +0.071 C 
ATOM      9  C   UNL     1      34.593 -16.096 -23.295  0.00  0.00    +0.004 C 
ATOM     10  C   UNL     1      35.089 -18.438 -22.973  0.00  0.00    -0.006 C 
ATOM     11  C   UNL     1      34.821 -17.367 -23.824  0.00  0.00    -0.003 C 
ATOM     12  C   UNL     1      35.328 -19.787 -23.570  0.00  0.00    +0.032 C 
BRANCH   6  15
ATOM     13  O   UNL     1      35.014 -14.128 -20.385  0.00  0.00    -0.270 OA
ATOM     14  N   UNL     1      33.396 -13.814 -21.984  0.00  0.00    -0.302 N 
ATOM     15  C   UNL     1      34.396 -14.572 -21.366  0.00  0.00    +0.246 C 
ATOM     16  H   UNL     1      32.925 -14.197 -22.760  0.00  0.00    +0.150 HD
BRANCH  14  17
ATOM     17  C   UNL     1      33.023 -12.493 -21.533  0.00  0.00    +0.072 C 
ATOM     18  C   UNL     1      31.696 -11.920 -21.886  0.00  0.00    +0.021 C 
ATOM     19  C   UNL     1      31.993 -12.322 -20.471  0.00  0.00    +0.021 C 
ENDBRANCH  14  17
ENDBRANCH   6  15
ENDBRANCH   1   8
BRANCH   3  20
ATOM     20  N   UNL     1      33.185 -20.142 -20.560  0.00  0.00    -0.344 N 
ATOM     21  H   UNL     1      32.775 -19.290 -20.833  0.00  0.00    +0.144 HD
ATOM     22  H   UNL     1      32.639 -20.961 -20.522  0.00  0.00    +0.144 HD
ENDBRANCH   3  20
BRANCH   4  24
ATOM     23  O   UNL     1      33.850 -22.899 -19.196  0.00  0.00    -0.286 OA
ATOM     24  C   UNL     1      34.701 -22.150 -18.692  0.00  0.00    +0.200 C 
BRANCH  24  25
ATOM     25  C   UNL     1      35.152 -22.420 -17.336  0.00  0.00    +0.040 C 
ATOM     26  C   UNL     1      34.289 -23.022 -16.421  0.00  0.00    +0.013 C 
ATOM     27  C   UNL     1      36.449 -22.077 -16.951  0.00  0.00    +0.003 C 
ATOM     28  C   UNL     1      34.721 -23.282 -15.121  0.00  0.00    +0.069 C 
ATOM     29  C   UNL     1      36.881 -22.336 -15.651  0.00  0.00    +0.001 C 
ATOM     30  C   UNL     1      36.017 -22.938 -14.735  0.00  0.00    +0.010 C 
BRANCH  28  32
ATOM     31  N   UNL     1      33.120 -24.400 -13.419  0.00  0.00    -0.191 NA
ATOM     32  C   UNL     1      33.838 -23.898 -14.183  0.00  0.00    +0.100 C 
ENDBRANCH  28  32
ENDBRANCH  24  25
ENDBRANCH   4  24
TORSDOF 7
ENDMDL
MODEL 2
REMARK VINA RESULT:     -10.2      4.628      7.809
REMARK  Name = 11338127
REMARK  7 active torsions:
REMARK  status: ('A' for Active; 'I' for Inactive)
REMARK    1  A    between atoms: N_1  and  C_8
REMARK    2  A    between atoms: C_3  and  N_20
REMARK    3  A    between atoms: C_4  and  C_24
REMARK    4  A    between atoms: C_6  and  C_15
REMARK    5  A    between atoms: N_14  and  C_17
REMARK    6  A    between atoms: C_24  and  C_25
REMARK    7  A    between atoms: C_28  and  C_32
REMARK                            x       y       z     vdW  Elec       q    Type
REMARK                         _______ _______ _______ _____ _____    ______ ____
ROOT
ATOM      1  N   UNL     1      33.447 -13.048 -22.495  0.00  0.00    -0.177 N 
ATOM      2  N   UNL     1      34.422 -13.440 -21.657  0.00  0.00    -0.171 NA
ATOM      3  C   UNL     1      33.258 -13.888 -23.552  0.00  0.00    +0.122 C 
ATOM      4  C   UNL     1      34.166 -14.865 -23.368  0.00  0.00    +0.088 C 
ATOM      5  C   UNL     1      34.861 -14.572 -22.212  0.00  0.00    +0.124 C 
ENDROOT
BRANCH   1   8
ATOM      6  C   UNL     1      32.187  -9.615 -22.850  0.00  0.00    +0.055 C 
ATOM      7  C   UNL     1      32.882 -10.798 -23.099  0.00  0.00    +0.021 C 
ATOM      8  C   UNL     1      32.744 -11.872 -22.227  0.00  0.00    +0.071 C 
ATOM      9  C   UNL     1      31.359  -9.514 -21.732  0.00  0.00    +0.004 C 
ATOM     10  C   UNL     1      31.921 -11.780 -21.112  0.00  0.00    -0.006 C 
ATOM     11  C   UNL     1      31.226 -10.597 -20.863  0.00  0.00    -0.003 C 
ATOM     12  C   UNL     1      31.757 -12.923 -20.161  0.00  0.00    +0.032 C 
BRANCH   6  15
ATOM     13  O   UNL     1      31.385  -8.047 -24.436  0.00  0.00    -0.270 OA
ATOM     14  N   UNL     1      33.602  -7.920 -23.851  0.00  0.00    -0.302 N 
ATOM     15  C   UNL     1      32.326  -8.485 -23.755  0.00  0.00    +0.246 C 
ATOM     16  H   UNL     1      34.326  -8.292 -23.297  0.00  0.00    +0.150 HD
BRANCH  14  17
ATOM     17  C   UNL     1      33.903  -6.813 -24.730  0.00  0.00    +0.072 C 
ATOM     18  C   UNL     1      33.765  -5.410 -24.253  0.00  0.00    +0.021 C 
ATOM     19  C   UNL     1      35.124  -5.989 -24.513  0.00  0.00    +0.021 C 
ENDBRANCH  14  17
ENDBRANCH   6  15
ENDBRANCH   1   8
BRANCH   3  20
ATOM     20  N   UNL     1      32.321 -13.654 -24.497  0.00  0.00    -0.344 N 
ATOM     21  H   UNL     1      32.114 -12.730 -24.767  0.00  0.00    +0.144 HD
ATOM     22  H   UNL     1      31.846 -14.408 -24.918  0.00  0.00    +0.144 HD
ENDBRANCH   3  20
BRANCH   4  24
ATOM     23  O   UNL     1      34.240 -15.895 -25.492  0.00  0.00    -0.286 OA
ATOM     24  C   UNL     1      34.356 -16.025 -24.263  0.00  0.00    +0.200 C 
BRANCH  24  25
ATOM     25  C   UNL     1      34.670 -17.340 -23.727  0.00  0.00    +0.040 C 
ATOM     26  C   UNL     1      35.508 -17.459 -22.619  0.00  0.00    +0.013 C 
ATOM     27  C   UNL     1      34.131 -18.482 -24.321  0.00  0.00    +0.003 C 
ATOM     28  C   UNL     1      35.808 -18.720 -22.104  0.00  0.00    +0.069 C 
ATOM     29  C   UNL     1      34.432 -19.743 -23.806  0.00  0.00    +0.001 C 
ATOM     30  C   UNL     1      35.271 -19.862 -22.698  0.00  0.00    +0.010 C 
BRANCH  28  32
ATOM     31  N   UNL     1      37.366 -18.945 -20.046  0.00  0.00    -0.191 NA
ATOM     32  C   UNL     1      36.667 -18.843 -20.969  0.00  0.00    +0.100 C 
ENDBRANCH  28  32
ENDBRANCH  24  25
ENDBRANCH   4  24
TORSDOF 7
ENDMDL
MODEL 3
REMARK VINA RESULT:     -10.0      2.120      9.014
REMARK  Name = 11338127
REMARK  7 active torsions:
REMARK  status: ('A' for Active; 'I' for Inactive)
REMARK    1  A    between atoms: N_1  and  C_8
REMARK    2  A    between atoms: C_3  and  N_20
REMARK    3  A    between atoms: C_4  and  C_24
REMARK    4  A    between atoms: C_6  and  C_15
REMARK    5  A    between atoms: N_14  and  C_17
REMARK    6  A    between atoms: C_24  and  C_25
REMARK    7  A    between atoms: C_28  and  C_32
REMARK                            x       y       z     vdW  Elec       q    Type
REMARK                         _______ _______ _______ _____ _____    ______ ____
ROOT
ATOM      1  N   UNL     1      35.161 -18.155 -21.873  0.00  0.00    -0.177 N 
ATOM      2  N   UNL     1      34.902 -18.413 -23.166  0.00  0.00    -0.171 NA
ATOM      3  C   UNL     1      35.055 -16.836 -21.542  0.00  0.00    +0.122 C 
ATOM      4  C   UNL     1      34.710 -16.230 -22.694  0.00  0.00    +0.088 C 
ATOM      5  C   UNL     1      34.623 -17.207 -23.665  0.00  0.00    +0.124 C 
ENDROOT
BRANCH   1   8
ATOM      6  C   UNL     1      34.798 -21.034 -19.619  0.00  0.00    +0.055 C 
ATOM      7  C   UNL     1      34.481 -19.979 -20.475  0.00  0.00    +0.021 C 
ATOM      8  C   UNL     1      35.499 -19.205 -21.017  0.00  0.00    +0.071 C 
ATOM      9  C   UNL     1      36.131 -21.307 -19.313  0.00  0.00    +0.004 C 
ATOM     10  C   UNL     1      36.830 -19.471 -20.719  0.00  0.00    -0.006 C 
ATOM     11  C   UNL     1      37.147 -20.525 -19.863  0.00  0.00    -0.003 C 
ATOM     12  C   UNL     1      37.942 -18.651 -21.292  0.00  0.00    +0.032 C 
BRANCH   6  15
ATOM     13  O   UNL     1      32.612 -21.947 -19.554  0.00  0.00    -0.270 OA
ATOM     14  N   UNL     1      34.045 -22.508 -17.848  0.00  0.00    -0.302 N 
ATOM     15  C   UNL     1      33.740 -21.849 -19.045  0.00  0.00    +0.246 C 
ATOM     16  H   UNL     1      34.949 -22.408 -17.471  0.00  0.00    +0.150 HD
BRANCH  14  17
ATOM     17  C   UNL     1      33.088 -23.329 -17.141  0.00  0.00    +0.072 C 
ATOM     18  C   UNL     1      33.098 -23.391 -15.655  0.00  0.00    +0.021 C 
ATOM     19  C   UNL     1      31.978 -22.699 -16.374  0.00  0.00    +0.021 C 
ENDBRANCH  14  17
ENDBRANCH   6  15
ENDBRANCH   1   8
BRANCH   3  20
ATOM     20  N   UNL     1      35.281 -16.390 -20.286  0.00  0.00    -0.344 N 
ATOM     21  H   UNL     1      34.668 -15.736 -19.879  0.00  0.00    +0.144 HD
ATOM     22  H   UNL     1      36.057 -16.720 -19.778  0.00  0.00    +0.144 HD
ENDBRANCH   3  20
BRANCH   4  24
ATOM     23  O   UNL     1      35.095 -14.134 -23.710  0.00  0.00    -0.286 OA
ATOM     24  C   UNL     1      34.476 -14.780 -22.851  0.00  0.00    +0.200 C 
BRANCH  24  25
ATOM     25  C   UNL     1      33.528 -14.079 -21.999  0.00  0.00    +0.040 C 
ATOM     26  C   UNL     1      32.920 -12.907 -22.450  0.00  0.00    +0.013 C 
ATOM     27  C   UNL     1      33.225 -14.579 -20.732  0.00  0.00    +0.003 C 
ATOM     28  C   UNL     1      32.010 -12.235 -21.635  0.00  0.00    +0.069 C 
ATOM     29  C   UNL     1      32.316 -13.906 -19.917  0.00  0.00    +0.001 C 
ATOM     30  C   UNL     1      31.708 -12.734 -20.367  0.00  0.00    +0.010 C 
BRANCH  28  32
ATOM     31  N   UNL     1      30.882 -10.057 -22.469  0.00  0.00    -0.191 NA
ATOM     32  C   UNL     1      31.388 -11.034 -22.095  0.00  0.00    +0.100 C 
ENDBRANCH  28  32
ENDBRANCH  24  25
ENDBRANCH   4  24
TORSDOF 7
ENDMDL
MODEL 4
REMARK VINA RESULT:      -9.8      2.936      9.937
REMARK  Name = 11338127
REMARK  7 active torsions:
REMARK  status: ('A' for Active; 'I' for Inactive)
REMARK    1  A    between atoms: N_1  and  C_8
REMARK    2  A    between atoms: C_3  and  N_20
REMARK    3  A    between atoms: C_4  and  C_24
REMARK    4  A    between atoms: C_6  and  C_15
REMARK    5  A    between atoms: N_14  and  C_17
REMARK    6  A    between atoms: C_24  and  C_25
REMARK    7  A    between atoms: C_28  and  C_32
REMARK                            x       y       z     vdW  Elec       q    Type
REMARK                         _______ _______ _______ _____ _____    ______ ____
ROOT
ATOM      1  N   UNL     1      35.431 -22.082 -17.848  0.00  0.00    -0.177 N 
ATOM      2  N   UNL     1      34.746 -22.533 -18.913  0.00  0.00    -0.171 NA
ATOM      3  C   UNL     1      36.202 -20.988 -18.111  0.00  0.00    +0.122 C 
ATOM      4  C   UNL     1      35.989 -20.738 -19.417  0.00  0.00    +0.088 C 
ATOM      5  C   UNL     1      35.103 -21.687 -19.883  0.00  0.00    +0.124 C 
ENDROOT
BRANCH   1   8
ATOM      6  C   UNL     1      36.343 -23.649 -14.653  0.00  0.00    +0.055 C 
ATOM      7  C   UNL     1      36.449 -22.997 -15.881  0.00  0.00    +0.021 C 
ATOM      8  C   UNL     1      35.303 -22.738 -16.622  0.00  0.00    +0.071 C 
ATOM      9  C   UNL     1      35.091 -24.038 -14.175  0.00  0.00    +0.004 C 
ATOM     10  C   UNL     1      34.052 -23.119 -16.153  0.00  0.00    -0.006 C 
ATOM     11  C   UNL     1      33.946 -23.772 -14.925  0.00  0.00    -0.003 C 
ATOM     12  C   UNL     1      32.805 -22.850 -16.933  0.00  0.00    +0.032 C 
BRANCH   6  15
ATOM     13  O   UNL     1      37.962 -23.158 -12.994  0.00  0.00    -0.270 OA
ATOM     14  N   UNL     1      38.217 -25.110 -14.176  0.00  0.00    -0.302 N 
ATOM     15  C   UNL     1      37.536 -23.927 -13.870  0.00  0.00    +0.246 C 
ATOM     16  H   UNL     1      37.852 -25.698 -14.876  0.00  0.00    +0.150 HD
BRANCH  14  17
ATOM     17  C   UNL     1      39.436 -25.508 -13.506  0.00  0.00    +0.072 C 
ATOM     18  C   UNL     1      40.358 -26.490 -14.137  0.00  0.00    +0.021 C 
ATOM     19  C   UNL     1      40.758 -25.050 -14.015  0.00  0.00    +0.021 C 
ENDBRANCH  14  17
ENDBRANCH   6  15
ENDBRANCH   1   8
BRANCH   3  20
ATOM     20  N   UNL     1      36.959 -20.398 -17.161  0.00  0.00    -0.344 N 
ATOM     21  H   UNL     1      36.801 -20.599 -16.210  0.00  0.00    +0.144 HD
ATOM     22  H   UNL     1      37.671 -19.768 -17.420  0.00  0.00    +0.144 HD
ENDBRANCH   3  20
BRANCH   4  24
ATOM     23  O   UNL     1      37.721 -19.192 -19.850  0.00  0.00    -0.286 OA
ATOM     24  C   UNL     1      36.610 -19.635 -20.180  0.00  0.00    +0.200 C 
BRANCH  24  25
ATOM     25  C   UNL     1      35.933 -19.040 -21.321  0.00  0.00    +0.040 C 
ATOM     26  C   UNL     1      35.803 -17.654 -21.410  0.00  0.00    +0.013 C 
ATOM     27  C   UNL     1      35.415 -19.856 -22.328  0.00  0.00    +0.003 C 
ATOM     28  C   UNL     1      35.154 -17.083 -22.504  0.00  0.00    +0.069 C 
ATOM     29  C   UNL     1      34.766 -19.285 -23.422  0.00  0.00    +0.001 C 
ATOM     30  C   UNL     1      34.635 -17.898 -23.510  0.00  0.00    +0.010 C 
BRANCH  28  32
ATOM     31  N   UNL     1      34.909 -14.510 -22.670  0.00  0.00    -0.191 NA
ATOM     32  C   UNL     1      35.019 -15.664 -22.595  0.00  0.00    +0.100 C 
ENDBRANCH  28  32
ENDBRANCH  24  25
ENDBRANCH   4  24
TORSDOF 7
ENDMDL
MODEL 5
REMARK VINA RESULT:      -9.7      1.350      2.038
REMARK  Name = 11338127
REMARK  7 active torsions:
REMARK  status: ('A' for Active; 'I' for Inactive)
REMARK    1  A    between atoms: N_1  and  C_8
REMARK    2  A    between atoms: C_3  and  N_20
REMARK    3  A    between atoms: C_4  and  C_24
REMARK    4  A    between atoms: C_6  and  C_15
REMARK    5  A    between atoms: N_14  and  C_17
REMARK    6  A    between atoms: C_24  and  C_25
REMARK    7  A    between atoms: C_28  and  C_32
REMARK                            x       y       z     vdW  Elec       q    Type
REMARK                         _______ _______ _______ _____ _____    ______ ____
ROOT
ATOM      1  N   UNL     1      34.651 -19.348 -21.027  0.00  0.00    -0.177 N 
ATOM      2  N   UNL     1      33.478 -19.955 -20.780  0.00  0.00    -0.171 NA
ATOM      3  C   UNL     1      35.690 -19.831 -20.286  0.00  0.00    +0.122 C 
ATOM      4  C   UNL     1      35.136 -20.798 -19.530  0.00  0.00    +0.088 C 
ATOM      5  C   UNL     1      33.794 -20.856 -19.847  0.00  0.00    +0.124 C 
ENDROOT
BRANCH   1   8
ATOM      6  C   UNL     1      34.690 -15.968 -22.468  0.00  0.00    +0.055 C 
ATOM      7  C   UNL     1      34.634 -17.006 -21.538  0.00  0.00    +0.021 C 
ATOM      8  C   UNL     1      34.708 -18.323 -21.975  0.00  0.00    +0.071 C 
ATOM      9  C   UNL     1      34.819 -16.255 -23.827  0.00  0.00    +0.004 C 
ATOM     10  C   UNL     1      34.838 -18.618 -23.326  0.00  0.00    -0.006 C 
ATOM     11  C   UNL     1      34.894 -17.580 -24.255  0.00  0.00    -0.003 C 
ATOM     12  C   UNL     1      34.921 -20.028 -23.817  0.00  0.00    +0.032 C 
BRANCH   6  15
ATOM     13  O   UNL     1      34.852 -14.239 -20.856  0.00  0.00    -0.270 OA
ATOM     14  N   UNL     1      34.212 -13.647 -22.980  0.00  0.00    -0.302 N 
ATOM     15  C   UNL     1      34.611 -14.586 -22.023  0.00  0.00    +0.246 C 
ATOM     16  H   UNL     1      34.029 -13.956 -23.897  0.00  0.00    +0.150 HD
BRANCH  14  17
ATOM     17  C   UNL     1      34.058 -12.242 -22.681  0.00  0.00    +0.072 C 
ATOM     18  C   UNL     1      34.051 -11.233 -23.775  0.00  0.00    +0.021 C 
ATOM     19  C   UNL     1      32.791 -11.535 -23.018  0.00  0.00    +0.021 C 
ENDBRANCH  14  17
ENDBRANCH   6  15
ENDBRANCH   1   8
BRANCH   3  20
ATOM     20  N   UNL     1      36.943 -19.341 -20.400  0.00  0.00    -0.344 N 
ATOM     21  H   UNL     1      37.083 -18.383 -20.583  0.00  0.00    +0.144 HD
ATOM     22  H   UNL     1      37.718 -19.940 -20.300  0.00  0.00    +0.144 HD
ENDBRANCH   3  20
BRANCH   4  24
ATOM     23  O   UNL     1      37.095 -21.775 -18.643  0.00  0.00    -0.286 OA
ATOM     24  C   UNL     1      35.866 -21.627 -18.549  0.00  0.00    +0.200 C 
BRANCH  24  25
ATOM     25  C   UNL     1      35.164 -22.294 -17.464  0.00  0.00    +0.040 C 
ATOM     26  C   UNL     1      35.782 -22.443 -16.221  0.00  0.00    +0.013 C 
ATOM     27  C   UNL     1      33.874 -22.784 -17.664  0.00  0.00    +0.003 C 
ATOM     28  C   UNL     1      35.109 -23.081 -15.180  0.00  0.00    +0.069 C 
ATOM     29  C   UNL     1      33.201 -23.423 -16.623  0.00  0.00    +0.001 C 
ATOM     30  C   UNL     1      33.819 -23.572 -15.381  0.00  0.00    +0.010 C 
BRANCH  28  32
ATOM     31  N   UNL     1      36.254 -23.360 -12.874  0.00  0.00    -0.191 NA
ATOM     32  C   UNL     1      35.740 -23.235 -13.908  0.00  0.00    +0.100 C 
ENDBRANCH  28  32
ENDBRANCH  24  25
ENDBRANCH   4  24
TORSDOF 7
ENDMDL
MODEL 6
REMARK VINA RESULT:      -9.6      3.835     11.621
REMARK  Name = 11338127
REMARK  7 active torsions:
REMARK  status: ('A' for Active; 'I' for Inactive)
REMARK    1  A    between atoms: N_1  and  C_8
REMARK    2  A    between atoms: C_3  and  N_20
REMARK    3  A    between atoms: C_4  and  C_24
REMARK    4  A    between atoms: C_6  and  C_15
REMARK    5  A    between atoms: N_14  and  C_17
REMARK    6  A    between atoms: C_24  and  C_25
REMARK    7  A    between atoms: C_28  and  C_32
REMARK                            x       y       z     vdW  Elec       q    Type
REMARK                         _______ _______ _______ _____ _____    ______ ____
ROOT
ATOM      1  N   UNL     1      33.472 -12.739 -23.333  0.00  0.00    -0.177 N 
ATOM      2  N   UNL     1      34.205 -11.792 -23.943  0.00  0.00    -0.171 NA
ATOM      3  C   UNL     1      32.393 -12.252 -22.656  0.00  0.00    +0.122 C 
ATOM      4  C   UNL     1      32.451 -10.921 -22.853  0.00  0.00    +0.088 C 
ATOM      5  C   UNL     1      33.558 -10.665 -23.636  0.00  0.00    +0.124 C 
ENDROOT
BRANCH   1   8
ATOM      6  C   UNL     1      34.737 -16.057 -22.388  0.00  0.00    +0.055 C 
ATOM      7  C   UNL     1      34.348 -14.720 -22.306  0.00  0.00    +0.021 C 
ATOM      8  C   UNL     1      33.857 -14.078 -23.436  0.00  0.00    +0.071 C 
ATOM      9  C   UNL     1      34.632 -16.741 -23.599  0.00  0.00    +0.004 C 
ATOM     10  C   UNL     1      33.748 -14.751 -24.646  0.00  0.00    -0.006 C 
ATOM     11  C   UNL     1      34.137 -16.088 -24.728  0.00  0.00    -0.003 C 
ATOM     12  C   UNL     1      33.222 -14.080 -25.874  0.00  0.00    +0.032 C 
BRANCH   6  15
ATOM     13  O   UNL     1      35.225 -16.240 -20.077  0.00  0.00    -0.270 OA
ATOM     14  N   UNL     1      35.828 -17.996 -21.427  0.00  0.00    -0.302 N 
ATOM     15  C   UNL     1      35.254 -16.739 -21.213  0.00  0.00    +0.246 C 
ATOM     16  H   UNL     1      35.835 -18.363 -22.341  0.00  0.00    +0.150 HD
BRANCH  14  17
ATOM     17  C   UNL     1      36.412 -18.782 -20.363  0.00  0.00    +0.072 C 
ATOM     18  C   UNL     1      35.939 -20.168 -20.100  0.00  0.00    +0.021 C 
ATOM     19  C   UNL     1      37.303 -19.932 -20.678  0.00  0.00    +0.021 C 
ENDBRANCH  14  17
ENDBRANCH   6  15
ENDBRANCH   1   8
BRANCH   3  20
ATOM     20  N   UNL     1      31.543 -13.057 -21.982  0.00  0.00    -0.344 N 
ATOM     21  H   UNL     1      31.896 -13.733 -21.358  0.00  0.00    +0.144 HD
ATOM     22  H   UNL     1      30.571 -12.968 -22.113  0.00  0.00    +0.144 HD
ENDBRANCH   3  20
BRANCH   4  24
ATOM     23  O   UNL     1      30.340 -10.300 -21.996  0.00  0.00    -0.286 OA
ATOM     24  C   UNL     1      31.485  -9.942 -22.311  0.00  0.00    +0.200 C 
BRANCH  24  25
ATOM     25  C   UNL     1      31.850  -8.544 -22.147  0.00  0.00    +0.040 C 
ATOM     26  C   UNL     1      31.208  -7.563 -22.903  0.00  0.00    +0.013 C 
ATOM     27  C   UNL     1      32.841  -8.183 -21.234  0.00  0.00    +0.003 C 
ATOM     28  C   UNL     1      31.556  -6.222 -22.746  0.00  0.00    +0.069 C 
ATOM     29  C   UNL     1      33.189  -6.842 -21.077  0.00  0.00    +0.001 C 
ATOM     30  C   UNL     1      32.547  -5.861 -21.833  0.00  0.00    +0.010 C 
BRANCH  28  32
ATOM     31  N   UNL     1      30.365  -4.399 -24.150  0.00  0.00    -0.191 NA
ATOM     32  C   UNL     1      30.900  -5.217 -23.520  0.00  0.00    +0.100 C 
ENDBRANCH  28  32
ENDBRANCH  24  25
ENDBRANCH   4  24
TORSDOF 7
ENDMDL
MODEL 7
REMARK VINA RESULT:      -9.5      6.042     11.320
REMARK  Name = 11338127
REMARK  7 active torsions:
REMARK  status: ('A' for Active; 'I' for Inactive)
REMARK    1  A    between atoms: N_1  and  C_8
REMARK    2  A    between atoms: C_3  and  N_20
REMARK    3  A    between atoms: C_4  and  C_24
REMARK    4  A    between atoms: C_6  and  C_15
REMARK    5  A    between atoms: N_14  and  C_17
REMARK    6  A    between atoms: C_24  and  C_25
REMARK    7  A    between atoms: C_28  and  C_32
REMARK                            x       y       z     vdW  Elec       q    Type
REMARK                         _______ _______ _______ _____ _____    ______ ____
ROOT
ATOM      1  N   UNL     1      33.203  -8.371 -22.920  0.00  0.00    -0.177 N 
ATOM      2  N   UNL     1      34.502  -8.476 -23.246  0.00  0.00    -0.171 NA
ATOM      3  C   UNL     1      32.540  -9.563 -22.903  0.00  0.00    +0.122 C 
ATOM      4  C   UNL     1      33.478 -10.469 -23.239  0.00  0.00    +0.088 C 
ATOM      5  C   UNL     1      34.660  -9.787 -23.442  0.00  0.00    +0.124 C 
ENDROOT
BRANCH   1   8
ATOM      6  C   UNL     1      31.643  -5.084 -23.430  0.00  0.00    +0.055 C 
ATOM      7  C   UNL     1      32.185  -6.342 -23.690  0.00  0.00    +0.021 C 
ATOM      8  C   UNL     1      32.665  -7.113 -22.638  0.00  0.00    +0.071 C 
ATOM      9  C   UNL     1      31.584  -4.606 -22.121  0.00  0.00    +0.004 C 
ATOM     10  C   UNL     1      32.609  -6.646 -21.331  0.00  0.00    -0.006 C 
ATOM     11  C   UNL     1      32.067  -5.388 -21.071  0.00  0.00    -0.003 C 
ATOM     12  C   UNL     1      33.119  -7.459 -20.184  0.00  0.00    +0.032 C 
BRANCH   6  15
ATOM     13  O   UNL     1      30.050  -3.676 -24.476  0.00  0.00    -0.270 OA
ATOM     14  N   UNL     1      31.940  -4.203 -25.669  0.00  0.00    -0.302 N 
ATOM     15  C   UNL     1      31.139  -4.268 -24.523  0.00  0.00    +0.246 C 
ATOM     16  H   UNL     1      32.798  -4.685 -25.673  0.00  0.00    +0.150 HD
BRANCH  14  17
ATOM     17  C   UNL     1      31.559  -3.459 -26.848  0.00  0.00    +0.072 C 
ATOM     18  C   UNL     1      32.556  -2.616 -27.563  0.00  0.00    +0.021 C 
ATOM     19  C   UNL     1      32.044  -3.878 -28.192  0.00  0.00    +0.021 C 
ENDBRANCH  14  17
ENDBRANCH   6  15
ENDBRANCH   1   8
BRANCH   3  20
ATOM     20  N   UNL     1      31.227  -9.651 -22.598  0.00  0.00    -0.344 N 
ATOM     21  H   UNL     1      30.630  -8.888 -22.769  0.00  0.00    +0.144 HD
ATOM     22  H   UNL     1      30.868 -10.480 -22.205  0.00  0.00    +0.144 HD
ENDBRANCH   3  20
BRANCH   4  24
ATOM     23  O   UNL     1      33.116 -12.449 -24.475  0.00  0.00    -0.286 OA
ATOM     24  C   UNL     1      33.246 -11.923 -23.359  0.00  0.00    +0.200 C 
BRANCH  24  25
ATOM     25  C   UNL     1      33.153 -12.766 -22.176  0.00  0.00    +0.040 C 
ATOM     26  C   UNL     1      33.961 -13.897 -22.061  0.00  0.00    +0.013 C 
ATOM     27  C   UNL     1      32.256 -12.442 -21.157  0.00  0.00    +0.003 C 
ATOM     28  C   UNL     1      33.872 -14.704 -20.928  0.00  0.00    +0.069 C 
ATOM     29  C   UNL     1      32.168 -13.249 -20.024  0.00  0.00    +0.001 C 
ATOM     30  C   UNL     1      32.976 -14.381 -19.909  0.00  0.00    +0.010 C 
BRANCH  28  32
ATOM     31  N   UNL     1      35.371 -16.806 -20.712  0.00  0.00    -0.191 NA
ATOM     32  C   UNL     1      34.699 -15.864 -20.809  0.00  0.00    +0.100 C 
ENDBRANCH  28  32
ENDBRANCH  24  25
ENDBRANCH   4  24
TORSDOF 7
ENDMDL
MODEL 8
REMARK VINA RESULT:      -9.4      5.802     10.437
REMARK  Name = 11338127
REMARK  7 active torsions:
REMARK  status: ('A' for Active; 'I' for Inactive)
REMARK    1  A    between atoms: N_1  and  C_8
REMARK    2  A    between atoms: C_3  and  N_20
REMARK    3  A    between atoms: C_4  and  C_24
REMARK    4  A    between atoms: C_6  and  C_15
REMARK    5  A    between atoms: N_14  and  C_17
REMARK    6  A    between atoms: C_24  and  C_25
REMARK    7  A    between atoms: C_28  and  C_32
REMARK                            x       y       z     vdW  Elec       q    Type
REMARK                         _______ _______ _______ _____ _____    ______ ____
ROOT
ATOM      1  N   UNL     1      31.970  -9.780 -22.245  0.00  0.00    -0.177 N 
ATOM      2  N   UNL     1      30.964 -10.590 -21.871  0.00  0.00    -0.171 NA
ATOM      3  C   UNL     1      33.026 -10.436 -22.806  0.00  0.00    +0.122 C 
ATOM      4  C   UNL     1      32.662 -11.732 -22.785  0.00  0.00    +0.088 C 
ATOM      5  C   UNL     1      31.408 -11.802 -22.213  0.00  0.00    +0.124 C 
ENDROOT
BRANCH   1   8
ATOM      6  C   UNL     1      31.491  -6.205 -22.943  0.00  0.00    +0.055 C 
ATOM      7  C   UNL     1      31.609  -7.582 -23.130  0.00  0.00    +0.021 C 
ATOM      8  C   UNL     1      31.856  -8.404 -22.037  0.00  0.00    +0.071 C 
ATOM      9  C   UNL     1      31.621  -5.661 -21.666  0.00  0.00    +0.004 C 
ATOM     10  C   UNL     1      31.986  -7.870 -20.761  0.00  0.00    -0.006 C 
ATOM     11  C   UNL     1      31.868  -6.494 -20.575  0.00  0.00    -0.003 C 
ATOM     12  C   UNL     1      32.252  -8.736 -19.571  0.00  0.00    +0.032 C 
BRANCH   6  15
ATOM     13  O   UNL     1      30.193  -4.670 -24.198  0.00  0.00    -0.270 OA
ATOM     14  N   UNL     1      32.218  -5.306 -25.074  0.00  0.00    -0.302 N 
ATOM     15  C   UNL     1      31.234  -5.336 -24.080  0.00  0.00    +0.246 C 
ATOM     16  H   UNL     1      33.032  -5.847 -24.949  0.00  0.00    +0.150 HD
BRANCH  14  17
ATOM     17  C   UNL     1      32.092  -4.515 -26.277  0.00  0.00    +0.072 C 
ATOM     18  C   UNL     1      33.038  -3.399 -26.550  0.00  0.00    +0.021 C 
ATOM     19  C   UNL     1      33.088  -4.651 -27.375  0.00  0.00    +0.021 C 
ENDBRANCH  14  17
ENDBRANCH   6  15
ENDBRANCH   1   8
BRANCH   3  20
ATOM     20  N   UNL     1      34.127  -9.784 -23.241  0.00  0.00    -0.344 N 
ATOM     21  H   UNL     1      34.066  -9.176 -24.013  0.00  0.00    +0.144 HD
ATOM     22  H   UNL     1      34.989  -9.916 -22.785  0.00  0.00    +0.144 HD
ENDBRANCH   3  20
BRANCH   4  24
ATOM     23  O   UNL     1      33.777 -12.920 -24.494  0.00  0.00    -0.286 OA
ATOM     24  C   UNL     1      33.485 -12.850 -23.291  0.00  0.00    +0.200 C 
BRANCH  24  25
ATOM     25  C   UNL     1      33.959 -13.895 -22.396  0.00  0.00    +0.040 C 
ATOM     26  C   UNL     1      34.404 -15.110 -22.917  0.00  0.00    +0.013 C 
ATOM     27  C   UNL     1      33.969 -13.682 -21.017  0.00  0.00    +0.003 C 
ATOM     28  C   UNL     1      34.859 -16.111 -22.061  0.00  0.00    +0.069 C 
ATOM     29  C   UNL     1      34.424 -14.683 -20.161  0.00  0.00    +0.001 C 
ATOM     30  C   UNL     1      34.869 -15.899 -20.682  0.00  0.00    +0.010 C 
BRANCH  28  32
ATOM     31  N   UNL     1      35.685 -18.369 -23.026  0.00  0.00    -0.191 NA
ATOM     32  C   UNL     1      35.315 -17.356 -22.593  0.00  0.00    +0.100 C 
ENDBRANCH  28  32
ENDBRANCH  24  25
ENDBRANCH   4  24
TORSDOF 7
ENDMDL
MODEL 9
REMARK VINA RESULT:      -9.3      2.686      9.182
REMARK  Name = 11338127
REMARK  7 active torsions:
REMARK  status: ('A' for Active; 'I' for Inactive)
REMARK    1  A    between atoms: N_1  and  C_8
REMARK    2  A    between atoms: C_3  and  N_20
REMARK    3  A    between atoms: C_4  and  C_24
REMARK    4  A    between atoms: C_6  and  C_15
REMARK    5  A    between atoms: N_14  and  C_17
REMARK    6  A    between atoms: C_24  and  C_25
REMARK    7  A    between atoms: C_28  and  C_32
REMARK                            x       y       z     vdW  Elec       q    Type
REMARK                         _______ _______ _______ _____ _____    ______ ____
ROOT
ATOM      1  N   UNL     1      35.705 -22.074 -17.527  0.00  0.00    -0.177 N 
ATOM      2  N   UNL     1      35.077 -22.647 -18.568  0.00  0.00    -0.171 NA
ATOM      3  C   UNL     1      36.399 -20.946 -17.855  0.00  0.00    +0.122 C 
ATOM      4  C   UNL     1      36.194 -20.803 -19.179  0.00  0.00    +0.088 C 
ATOM      5  C   UNL     1      35.389 -21.846 -19.589  0.00  0.00    +0.124 C 
ENDROOT
BRANCH   1   8
ATOM      6  C   UNL     1      34.212 -23.440 -14.461  0.00  0.00    +0.055 C 
ATOM      7  C   UNL     1      34.337 -22.864 -15.725  0.00  0.00    +0.021 C 
ATOM      8  C   UNL     1      35.602 -22.651 -16.260  0.00  0.00    +0.071 C 
ATOM      9  C   UNL     1      35.352 -23.799 -13.742  0.00  0.00    +0.004 C 
ATOM     10  C   UNL     1      36.742 -23.007 -15.552  0.00  0.00    -0.006 C 
ATOM     11  C   UNL     1      36.617 -23.583 -14.288  0.00  0.00    -0.003 C 
ATOM     12  C   UNL     1      38.113 -22.788 -16.108  0.00  0.00    +0.032 C 
BRANCH   6  15
ATOM     13  O   UNL     1      32.705 -24.369 -12.886  0.00  0.00    -0.270 OA
ATOM     14  N   UNL     1      31.819 -23.067 -14.557  0.00  0.00    -0.302 N 
ATOM     15  C   UNL     1      32.893 -23.665 -13.891  0.00  0.00    +0.246 C 
ATOM     16  H   UNL     1      32.003 -22.514 -15.351  0.00  0.00    +0.150 HD
BRANCH  14  17
ATOM     17  C   UNL     1      30.447 -23.225 -14.129  0.00  0.00    +0.072 C 
ATOM     18  C   UNL     1      29.326 -22.807 -15.015  0.00  0.00    +0.021 C 
ATOM     19  C   UNL     1      29.579 -24.262 -14.751  0.00  0.00    +0.021 C 
ENDBRANCH  14  17
ENDBRANCH   6  15
ENDBRANCH   1   8
BRANCH   3  20
ATOM     20  N   UNL     1      37.092 -20.237 -16.938  0.00  0.00    -0.344 N 
ATOM     21  H   UNL     1      36.943 -20.395 -15.978  0.00  0.00    +0.144 HD
ATOM     22  H   UNL     1      37.749 -19.563 -17.230  0.00  0.00    +0.144 HD
ENDBRANCH   3  20
BRANCH   4  24
ATOM     23  O   UNL     1      37.851 -19.214 -19.734  0.00  0.00    -0.286 OA
ATOM     24  C   UNL     1      36.748 -19.713 -20.008  0.00  0.00    +0.200 C 
BRANCH  24  25
ATOM     25  C   UNL     1      36.012 -19.194 -21.150  0.00  0.00    +0.040 C 
ATOM     26  C   UNL     1      35.898 -17.816 -21.339  0.00  0.00    +0.013 C 
ATOM     27  C   UNL     1      35.420 -20.073 -22.057  0.00  0.00    +0.003 C 
ATOM     28  C   UNL     1      35.193 -17.318 -22.434  0.00  0.00    +0.069 C 
ATOM     29  C   UNL     1      34.716 -19.575 -23.152  0.00  0.00    +0.001 C 
ATOM     30  C   UNL     1      34.601 -18.197 -23.341  0.00  0.00    +0.010 C 
BRANCH  28  32
ATOM     31  N   UNL     1      34.980 -14.760 -22.786  0.00  0.00    -0.191 NA
ATOM     32  C   UNL     1      35.076 -15.908 -22.628  0.00  0.00    +0.100 C 
ENDBRANCH  28  32
ENDBRANCH  24  25
ENDBRANCH   4  24
TORSDOF 7
ENDMDL
