MODEL 1
REMARK VINA RESULT:     -11.6      0.000      0.000
REMARK  Name = 42628063
REMARK  6 active torsions:
REMARK  status: ('A' for Active; 'I' for Inactive)
REMARK    1  A    between atoms: C_1  and  N_3
REMARK    2  A    between atoms: C_1  and  C_21
REMARK    3  A    between atoms: C_4  and  N_10
REMARK    4  A    between atoms: C_11  and  C_15
REMARK    5  A    between atoms: N_20  and  C_24
REMARK    6  A    between atoms: C_27  and  N_31
REMARK                            x       y       z     vdW  Elec       q    Type
REMARK                         _______ _______ _______ _____ _____    ______ ____
ROOT
ATOM      1  C   UNL     1      36.173 -20.388 -20.263  0.00  0.00    +0.010 C 
ENDROOT
BRANCH   1   3
ATOM      2  F   UNL     1      33.545 -22.340 -17.209  0.00  0.00    -0.238 F 
ATOM      3  N   UNL     1      35.619 -20.865 -19.005  0.00  0.00    +0.396 N 
ATOM      4  C   UNL     1      35.849 -21.961 -16.976  0.00  0.00    +0.082 C 
ATOM      5  C   UNL     1      34.745 -22.658 -17.765  0.00  0.00    +0.156 C 
ATOM      6  C   UNL     1      36.655 -21.218 -18.034  0.00  0.00    -0.054 C 
ATOM      7  C   UNL     1      34.816 -22.081 -19.173  0.00  0.00    -0.039 C 
ATOM      8  H   UNL     1      35.049 -20.087 -18.675  0.00  0.00    -0.079 HD
BRANCH   4  10
ATOM      9  O   UNL     1      35.339 -22.912 -14.316  0.00  0.00    -0.270 OA
ATOM     10  N   UNL     1      36.661 -22.874 -16.221  0.00  0.00    -0.302 N 
ATOM     11  C   UNL     1      36.334 -23.282 -14.932  0.00  0.00    +0.252 C 
ATOM     12  H   UNL     1      37.482 -23.227 -16.633  0.00  0.00    +0.150 HD
BRANCH  11  15
ATOM     13 CL   UNL     1      40.829 -26.290 -13.775  0.00  0.00    -0.075 Cl
ATOM     14  S   UNL     1      38.827 -24.465 -14.989  0.00  0.00    -0.071 S 
ATOM     15  C   UNL     1      37.291 -24.211 -14.277  0.00  0.00    +0.084 C 
ATOM     16  C   UNL     1      37.129 -24.941 -13.121  0.00  0.00    +0.012 C 
ATOM     17  C   UNL     1      38.282 -25.721 -12.815  0.00  0.00    +0.019 C 
ATOM     18  C   UNL     1      39.281 -25.555 -13.749  0.00  0.00    +0.087 C 
ENDBRANCH  11  15
ENDBRANCH   4  10
ENDBRANCH   1   3
BRANCH   1  21
ATOM     19  O   UNL     1      34.166 -19.636 -21.370  0.00  0.00    -0.277 OA
ATOM     20  N   UNL     1      35.799 -18.075 -20.732  0.00  0.00    -0.284 N 
ATOM     21  C   UNL     1      35.244 -19.345 -20.862  0.00  0.00    +0.205 C 
ATOM     22  H   UNL     1      36.677 -18.026 -20.290  0.00  0.00    +0.155 HD
BRANCH  20  24
ATOM     23  F   UNL     1      35.523 -17.465 -23.438  0.00  0.00    -0.203 F 
ATOM     24  C   UNL     1      35.247 -16.844 -21.161  0.00  0.00    +0.078 C 
ATOM     25  C   UNL     1      35.122 -16.569 -22.524  0.00  0.00    +0.155 C 
ATOM     26  C   UNL     1      34.827 -15.904 -20.220  0.00  0.00    +0.018 C 
ATOM     27  C   UNL     1      34.157 -14.418 -22.003  0.00  0.00    +0.061 C 
ATOM     28  C   UNL     1      34.578 -15.357 -22.944  0.00  0.00    +0.046 C 
ATOM     29  C   UNL     1      34.282 -14.692 -20.641  0.00  0.00    +0.017 C 
BRANCH  27  31
ATOM     30  O   UNL     1      31.775 -13.189 -20.917  0.00  0.00    -0.269 OA
ATOM     31  N   UNL     1      33.591 -13.157 -22.440  0.00  0.00    -0.233 N 
ATOM     32  C   UNL     1      32.391 -12.678 -21.852  0.00  0.00    +0.257 C 
ATOM     33  C   UNL     1      34.229 -12.395 -23.421  0.00  0.00    +0.072 C 
ATOM     34  C   UNL     1      31.850 -11.393 -22.394  0.00  0.00    +0.059 C 
ATOM     35  C   UNL     1      33.743 -11.231 -23.865  0.00  0.00    +0.017 C 
ATOM     36  C   UNL     1      32.513 -10.722 -23.338  0.00  0.00    +0.006 C 
ENDBRANCH  27  31
ENDBRANCH  20  24
ENDBRANCH   1  21
TORSDOF 6
ENDMDL
MODEL 2
REMARK VINA RESULT:     -11.2      7.383     13.873
REMARK  Name = 42628063
REMARK  6 active torsions:
REMARK  status: ('A' for Active; 'I' for Inactive)
REMARK    1  A    between atoms: C_1  and  N_3
REMARK    2  A    between atoms: C_1  and  C_21
REMARK    3  A    between atoms: C_4  and  N_10
REMARK    4  A    between atoms: C_11  and  C_15
REMARK    5  A    between atoms: N_20  and  C_24
REMARK    6  A    between atoms: C_27  and  N_31
REMARK                            x       y       z     vdW  Elec       q    Type
REMARK                         _______ _______ _______ _____ _____    ______ ____
ROOT
ATOM      1  C   UNL     1      33.708 -11.915 -24.115  0.00  0.00    +0.010 C 
ENDROOT
BRANCH   1   3
ATOM      2  F   UNL     1      30.158 -11.079 -21.519  0.00  0.00    -0.238 F 
ATOM      3  N   UNL     1      32.487 -11.341 -23.570  0.00  0.00    +0.396 N 
ATOM      4  C   UNL     1      31.234  -9.512 -22.895  0.00  0.00    +0.082 C 
ATOM      5  C   UNL     1      31.356 -10.463 -21.708  0.00  0.00    +0.156 C 
ATOM      6  C   UNL     1      32.391  -9.901 -23.808  0.00  0.00    -0.054 C 
ATOM      7  C   UNL     1      32.395 -11.499 -22.114  0.00  0.00    -0.039 C 
ATOM      8  H   UNL     1      31.742 -11.849 -24.046  0.00  0.00    -0.079 HD
BRANCH   4  10
ATOM      9  O   UNL     1      30.454  -7.259 -24.494  0.00  0.00    -0.270 OA
ATOM     10  N   UNL     1      31.290  -8.128 -22.512  0.00  0.00    -0.302 N 
ATOM     11  C   UNL     1      30.889  -7.099 -23.357  0.00  0.00    +0.252 C 
ATOM     12  H   UNL     1      31.625  -7.900 -21.616  0.00  0.00    +0.150 HD
BRANCH  11  15
ATOM     13 CL   UNL     1      32.300  -1.786 -22.747  0.00  0.00    -0.075 Cl
ATOM     14  S   UNL     1      31.945  -4.573 -23.705  0.00  0.00    -0.071 S 
ATOM     15  C   UNL     1      31.032  -5.720 -22.821  0.00  0.00    +0.084 C 
ATOM     16  C   UNL     1      30.514  -5.187 -21.662  0.00  0.00    +0.012 C 
ATOM     17  C   UNL     1      30.874  -3.818 -21.495  0.00  0.00    +0.019 C 
ATOM     18  C   UNL     1      31.651  -3.357 -22.536  0.00  0.00    +0.087 C 
ENDBRANCH  11  15
ENDBRANCH   4  10
ENDBRANCH   1   3
BRANCH   1  21
ATOM     19  O   UNL     1      33.074 -14.182 -24.647  0.00  0.00    -0.277 OA
ATOM     20  N   UNL     1      34.471 -13.764 -22.807  0.00  0.00    -0.284 N 
ATOM     21  C   UNL     1      33.694 -13.421 -23.911  0.00  0.00    +0.205 C 
ATOM     22  H   UNL     1      34.904 -13.020 -22.331  0.00  0.00    +0.155 HD
BRANCH  20  24
ATOM     23  F   UNL     1      34.401 -14.278 -20.068  0.00  0.00    -0.203 F 
ATOM     24  C   UNL     1      34.711 -15.060 -22.290  0.00  0.00    +0.078 C 
ATOM     25  C   UNL     1      34.668 -15.284 -20.913  0.00  0.00    +0.155 C 
ATOM     26  C   UNL     1      34.991 -16.114 -23.159  0.00  0.00    +0.018 C 
ATOM     27  C   UNL     1      35.184 -17.615 -21.276  0.00  0.00    +0.061 C 
ATOM     28  C   UNL     1      34.905 -16.561 -20.407  0.00  0.00    +0.046 C 
ATOM     29  C   UNL     1      35.227 -17.392 -22.652  0.00  0.00    +0.017 C 
BRANCH  27  31
ATOM     30  O   UNL     1      37.787 -18.710 -20.651  0.00  0.00    -0.269 OA
ATOM     31  N   UNL     1      35.430 -18.944 -20.749  0.00  0.00    -0.233 N 
ATOM     32  C   UNL     1      36.762 -19.379 -20.521  0.00  0.00    +0.257 C 
ATOM     33  C   UNL     1      34.365 -19.794 -20.443  0.00  0.00    +0.072 C 
ATOM     34  C   UNL     1      36.929 -20.778 -20.021  0.00  0.00    +0.059 C 
ATOM     35  C   UNL     1      34.539 -21.030 -19.965  0.00  0.00    +0.017 C 
ATOM     36  C   UNL     1      35.862 -21.537 -19.755  0.00  0.00    +0.006 C 
ENDBRANCH  27  31
ENDBRANCH  20  24
ENDBRANCH   1  21
TORSDOF 6
ENDMDL
MODEL 3
REMARK VINA RESULT:     -10.9      1.016      1.326
REMARK  Name = 42628063
REMARK  6 active torsions:
REMARK  status: ('A' for Active; 'I' for Inactive)
REMARK    1  A    between atoms: C_1  and  N_3
REMARK    2  A    between atoms: C_1  and  C_21
REMARK    3  A    between atoms: C_4  and  N_10
REMARK    4  A    between atoms: C_11  and  C_15
REMARK    5  A    between atoms: N_20  and  C_24
REMARK    6  A    between atoms: C_27  and  N_31
REMARK                            x       y       z     vdW  Elec       q    Type
REMARK                         _______ _______ _______ _____ _____    ______ ____
ROOT
ATOM      1  C   UNL     1      36.284 -19.845 -20.563  0.00  0.00    +0.010 C 
ENDROOT
BRANCH   1   3
ATOM      2  F   UNL     1      33.409 -22.008 -17.898  0.00  0.00    -0.238 F 
ATOM      3  N   UNL     1      35.635 -20.429 -19.399  0.00  0.00    +0.396 N 
ATOM      4  C   UNL     1      35.703 -21.733 -17.484  0.00  0.00    +0.082 C 
ATOM      5  C   UNL     1      34.634 -22.309 -18.408  0.00  0.00    +0.156 C 
ATOM      6  C   UNL     1      36.596 -20.913 -18.407  0.00  0.00    -0.054 C 
ATOM      7  C   UNL     1      34.813 -21.594 -19.741  0.00  0.00    -0.039 C 
ATOM      8  H   UNL     1      35.066 -19.670 -19.027  0.00  0.00    -0.079 HD
BRANCH   4  10
ATOM      9  O   UNL     1      35.168 -22.711 -14.839  0.00  0.00    -0.270 OA
ATOM     10  N   UNL     1      36.439 -22.745 -16.779  0.00  0.00    -0.302 N 
ATOM     11  C   UNL     1      36.106 -23.158 -15.493  0.00  0.00    +0.252 C 
ATOM     12  H   UNL     1      37.210 -23.165 -17.224  0.00  0.00    +0.150 HD
BRANCH  11  15
ATOM     13 CL   UNL     1      40.536 -26.000 -13.794  0.00  0.00    -0.075 Cl
ATOM     14  S   UNL     1      38.680 -24.000 -14.963  0.00  0.00    -0.071 S 
ATOM     15  C   UNL     1      36.981 -24.198 -14.892  0.00  0.00    +0.084 C 
ATOM     16  C   UNL     1      36.622 -25.361 -14.248  0.00  0.00    +0.012 C 
ATOM     17  C   UNL     1      37.757 -26.101 -13.808  0.00  0.00    +0.019 C 
ATOM     18  C   UNL     1      38.941 -25.474 -14.131  0.00  0.00    +0.087 C 
ENDBRANCH  11  15
ENDBRANCH   4  10
ENDBRANCH   1   3
BRANCH   1  21
ATOM     19  O   UNL     1      34.478 -19.148 -22.003  0.00  0.00    -0.277 OA
ATOM     20  N   UNL     1      35.648 -17.549 -20.744  0.00  0.00    -0.284 N 
ATOM     21  C   UNL     1      35.353 -18.830 -21.204  0.00  0.00    +0.205 C 
ATOM     22  H   UNL     1      36.385 -17.478 -20.096  0.00  0.00    +0.155 HD
BRANCH  20  24
ATOM     23  F   UNL     1      35.424 -16.745 -23.404  0.00  0.00    -0.203 F 
ATOM     24  C   UNL     1      35.010 -16.336 -21.100  0.00  0.00    +0.078 C 
ATOM     25  C   UNL     1      34.915 -15.962 -22.441  0.00  0.00    +0.155 C 
ATOM     26  C   UNL     1      34.477 -15.514 -20.108  0.00  0.00    +0.018 C 
ATOM     27  C   UNL     1      33.752 -13.946 -21.797  0.00  0.00    +0.061 C 
ATOM     28  C   UNL     1      34.286 -14.768 -22.789  0.00  0.00    +0.046 C 
ATOM     29  C   UNL     1      33.847 -14.319 -20.456  0.00  0.00    +0.017 C 
BRANCH  27  31
ATOM     30  O   UNL     1      34.458 -12.280 -24.054  0.00  0.00    -0.269 OA
ATOM     31  N   UNL     1      33.098 -12.703 -22.159  0.00  0.00    -0.233 N 
ATOM     32  C   UNL     1      33.566 -11.955 -23.270  0.00  0.00    +0.257 C 
ATOM     33  C   UNL     1      31.995 -12.245 -21.435  0.00  0.00    +0.072 C 
ATOM     34  C   UNL     1      32.865 -10.663 -23.546  0.00  0.00    +0.059 C 
ATOM     35  C   UNL     1      31.364 -11.102 -21.721  0.00  0.00    +0.017 C 
ATOM     36  C   UNL     1      31.820 -10.286 -22.806  0.00  0.00    +0.006 C 
ENDBRANCH  27  31
ENDBRANCH  20  24
ENDBRANCH   1  21
TORSDOF 6
ENDMDL
MODEL 4
REMARK VINA RESULT:     -10.5      7.467     14.474
REMARK  Name = 42628063
REMARK  6 active torsions:
REMARK  status: ('A' for Active; 'I' for Inactive)
REMARK    1  A    between atoms: C_1  and  N_3
REMARK    2  A    between atoms: C_1  and  C_21
REMARK    3  A    between atoms: C_4  and  N_10
REMARK    4  A    between atoms: C_11  and  C_15
REMARK    5  A    between atoms: N_20  and  C_24
REMARK    6  A    between atoms: C_27  and  N_31
REMARK                            x       y       z     vdW  Elec       q    Type
REMARK                         _______ _______ _______ _____ _____    ______ ____
ROOT
ATOM      1  C   UNL     1      33.581 -11.797 -24.022  0.00  0.00    +0.010 C 
ENDROOT
BRANCH   1   3
ATOM      2  F   UNL     1      31.526  -8.952 -21.243  0.00  0.00    -0.238 F 
ATOM      3  N   UNL     1      32.714 -10.760 -23.483  0.00  0.00    +0.396 N 
ATOM      4  C   UNL     1      31.847  -8.612 -23.543  0.00  0.00    +0.082 C 
ATOM      5  C   UNL     1      32.502  -8.817 -22.180  0.00  0.00    +0.156 C 
ATOM      6  C   UNL     1      32.489  -9.670 -24.432  0.00  0.00    -0.054 C 
ATOM      7  C   UNL     1      33.279 -10.123 -22.289  0.00  0.00    -0.039 C 
ATOM      8  H   UNL     1      31.847 -11.251 -23.267  0.00  0.00    -0.079 HD
BRANCH   4  10
ATOM      9  O   UNL     1      30.408  -6.252 -22.768  0.00  0.00    -0.270 OA
ATOM     10  N   UNL     1      32.033  -7.285 -24.061  0.00  0.00    -0.302 N 
ATOM     11  C   UNL     1      31.287  -6.196 -23.624  0.00  0.00    +0.252 C 
ATOM     12  H   UNL     1      32.718  -7.140 -24.752  0.00  0.00    +0.150 HD
BRANCH  11  15
ATOM     13 CL   UNL     1      33.835  -2.100 -26.329  0.00  0.00    -0.075 Cl
ATOM     14  S   UNL     1      33.121  -4.651 -24.989  0.00  0.00    -0.071 S 
ATOM     15  C   UNL     1      31.584  -4.895 -24.276  0.00  0.00    +0.084 C 
ATOM     16  C   UNL     1      30.771  -3.791 -24.408  0.00  0.00    +0.012 C 
ATOM     17  C   UNL     1      31.420  -2.729 -25.103  0.00  0.00    +0.019 C 
ATOM     18  C   UNL     1      32.704  -3.064 -25.477  0.00  0.00    +0.087 C 
ENDBRANCH  11  15
ENDBRANCH   4  10
ENDBRANCH   1   3
BRANCH   1  21
ATOM     19  O   UNL     1      32.283 -13.380 -22.746  0.00  0.00    -0.277 OA
ATOM     20  N   UNL     1      34.530 -13.846 -23.240  0.00  0.00    -0.284 N 
ATOM     21  C   UNL     1      33.361 -13.090 -23.255  0.00  0.00    +0.205 C 
ATOM     22  H   UNL     1      35.305 -13.459 -23.707  0.00  0.00    +0.155 HD
BRANCH  20  24
ATOM     23  F   UNL     1      34.966 -16.144 -24.758  0.00  0.00    -0.203 F 
ATOM     24  C   UNL     1      34.734 -15.108 -22.632  0.00  0.00    +0.078 C 
ATOM     25  C   UNL     1      34.949 -16.239 -23.420  0.00  0.00    +0.155 C 
ATOM     26  C   UNL     1      34.718 -15.221 -21.242  0.00  0.00    +0.018 C 
ATOM     27  C   UNL     1      35.135 -17.593 -21.429  0.00  0.00    +0.061 C 
ATOM     28  C   UNL     1      35.150 -17.481 -22.819  0.00  0.00    +0.046 C 
ATOM     29  C   UNL     1      34.919 -16.463 -20.640  0.00  0.00    +0.017 C 
BRANCH  27  31
ATOM     30  O   UNL     1      37.703 -18.697 -20.688  0.00  0.00    -0.269 OA
ATOM     31  N   UNL     1      35.343 -18.885 -20.803  0.00  0.00    -0.233 N 
ATOM     32  C   UNL     1      36.661 -19.331 -20.525  0.00  0.00    +0.257 C 
ATOM     33  C   UNL     1      34.255 -19.686 -20.451  0.00  0.00    +0.072 C 
ATOM     34  C   UNL     1      36.789 -20.694 -19.922  0.00  0.00    +0.059 C 
ATOM     35  C   UNL     1      34.394 -20.888 -19.882  0.00  0.00    +0.017 C 
ATOM     36  C   UNL     1      35.702 -21.407 -19.617  0.00  0.00    +0.006 C 
ENDBRANCH  27  31
ENDBRANCH  20  24
ENDBRANCH   1  21
TORSDOF 6
ENDMDL
MODEL 5
REMARK VINA RESULT:     -10.4      3.994      4.295
REMARK  Name = 42628063
REMARK  6 active torsions:
REMARK  status: ('A' for Active; 'I' for Inactive)
REMARK    1  A    between atoms: C_1  and  N_3
REMARK    2  A    between atoms: C_1  and  C_21
REMARK    3  A    between atoms: C_4  and  N_10
REMARK    4  A    between atoms: C_11  and  C_15
REMARK    5  A    between atoms: N_20  and  C_24
REMARK    6  A    between atoms: C_27  and  N_31
REMARK                            x       y       z     vdW  Elec       q    Type
REMARK                         _______ _______ _______ _____ _____    ______ ____
ROOT
ATOM      1  C   UNL     1      35.999 -19.660 -20.449  0.00  0.00    +0.010 C 
ENDROOT
BRANCH   1   3
ATOM      2  F   UNL     1      34.716 -23.910 -19.872  0.00  0.00    -0.238 F 
ATOM      3  N   UNL     1      35.193 -20.862 -20.300  0.00  0.00    +0.396 N 
ATOM      4  C   UNL     1      33.445 -22.018 -19.311  0.00  0.00    +0.082 C 
ATOM      5  C   UNL     1      34.727 -22.810 -19.072  0.00  0.00    +0.156 C 
ATOM      6  C   UNL     1      33.926 -20.605 -19.614  0.00  0.00    -0.054 C 
ATOM      7  C   UNL     1      35.865 -21.891 -19.498  0.00  0.00    -0.039 C 
ATOM      8  H   UNL     1      35.041 -21.178 -21.257  0.00  0.00    -0.079 HD
BRANCH   4  10
ATOM      9  O   UNL     1      33.607 -23.768 -17.041  0.00  0.00    -0.270 OA
ATOM     10  N   UNL     1      32.547 -22.055 -18.190  0.00  0.00    -0.302 N 
ATOM     11  C   UNL     1      32.704 -22.941 -17.130  0.00  0.00    +0.252 C 
ATOM     12  H   UNL     1      31.790 -21.426 -18.171  0.00  0.00    +0.150 HD
BRANCH  11  15
ATOM     13 CL   UNL     1      27.881 -22.556 -14.450  0.00  0.00    -0.075 Cl
ATOM     14  S   UNL     1      30.029 -22.703 -16.494  0.00  0.00    -0.071 S 
ATOM     15  C   UNL     1      31.677 -22.869 -16.059  0.00  0.00    +0.084 C 
ATOM     16  C   UNL     1      31.849 -22.920 -14.693  0.00  0.00    +0.012 C 
ATOM     17  C   UNL     1      30.611 -22.821 -13.994  0.00  0.00    +0.019 C 
ATOM     18  C   UNL     1      29.540 -22.698 -14.853  0.00  0.00    +0.087 C 
ENDBRANCH  11  15
ENDBRANCH   4  10
ENDBRANCH   1   3
BRANCH   1  21
ATOM     19  O   UNL     1      34.455 -18.902 -22.141  0.00  0.00    -0.277 OA
ATOM     20  N   UNL     1      35.472 -17.344 -20.709  0.00  0.00    -0.284 N 
ATOM     21  C   UNL     1      35.209 -18.614 -21.217  0.00  0.00    +0.205 C 
ATOM     22  H   UNL     1      36.104 -17.298 -19.956  0.00  0.00    +0.155 HD
BRANCH  20  24
ATOM     23  F   UNL     1      35.524 -16.607 -23.397  0.00  0.00    -0.203 F 
ATOM     24  C   UNL     1      34.935 -16.111 -21.149  0.00  0.00    +0.078 C 
ATOM     25  C   UNL     1      34.976 -15.771 -22.502  0.00  0.00    +0.155 C 
ATOM     26  C   UNL     1      34.363 -15.233 -20.228  0.00  0.00    +0.018 C 
ATOM     27  C   UNL     1      33.874 -13.679 -22.012  0.00  0.00    +0.061 C 
ATOM     28  C   UNL     1      34.446 -14.556 -22.933  0.00  0.00    +0.046 C 
ATOM     29  C   UNL     1      33.832 -14.017 -20.659  0.00  0.00    +0.017 C 
BRANCH  27  31
ATOM     30  O   UNL     1      31.493 -12.424 -20.953  0.00  0.00    -0.269 OA
ATOM     31  N   UNL     1      33.323 -12.415 -22.460  0.00  0.00    -0.233 N 
ATOM     32  C   UNL     1      32.122 -11.923 -21.885  0.00  0.00    +0.257 C 
ATOM     33  C   UNL     1      33.976 -11.663 -23.439  0.00  0.00    +0.072 C 
ATOM     34  C   UNL     1      31.597 -10.636 -22.437  0.00  0.00    +0.059 C 
ATOM     35  C   UNL     1      33.504 -10.498 -23.893  0.00  0.00    +0.017 C 
ATOM     36  C   UNL     1      32.274  -9.975 -23.379  0.00  0.00    +0.006 C 
ENDBRANCH  27  31
ENDBRANCH  20  24
ENDBRANCH   1  21
TORSDOF 6
ENDMDL
MODEL 6
REMARK VINA RESULT:     -10.4      4.747     11.833
REMARK  Name = 42628063
REMARK  6 active torsions:
REMARK  status: ('A' for Active; 'I' for Inactive)
REMARK    1  A    between atoms: C_1  and  N_3
REMARK    2  A    between atoms: C_1  and  C_21
REMARK    3  A    between atoms: C_4  and  N_10
REMARK    4  A    between atoms: C_11  and  C_15
REMARK    5  A    between atoms: N_20  and  C_24
REMARK    6  A    between atoms: C_27  and  N_31
REMARK                            x       y       z     vdW  Elec       q    Type
REMARK                         _______ _______ _______ _____ _____    ______ ____
ROOT
ATOM      1  C   UNL     1      33.617 -20.525 -20.857  0.00  0.00    +0.010 C 
ENDROOT
BRANCH   1   3
ATOM      2  F   UNL     1      37.352 -18.280 -21.881  0.00  0.00    -0.238 F 
ATOM      3  N   UNL     1      34.644 -19.498 -20.943  0.00  0.00    +0.396 N 
ATOM      4  C   UNL     1      35.289 -17.306 -21.333  0.00  0.00    +0.082 C 
ATOM      5  C   UNL     1      36.060 -18.203 -22.297  0.00  0.00    +0.156 C 
ATOM      6  C   UNL     1      34.085 -18.145 -20.921  0.00  0.00    -0.054 C 
ATOM      7  C   UNL     1      35.414 -19.578 -22.189  0.00  0.00    -0.039 C 
ATOM      8  H   UNL     1      35.234 -19.671 -20.130  0.00  0.00    -0.079 HD
BRANCH   4  10
ATOM      9  O   UNL     1      34.088 -15.077 -19.982  0.00  0.00    -0.270 OA
ATOM     10  N   UNL     1      34.898 -16.055 -21.922  0.00  0.00    -0.302 N 
ATOM     11  C   UNL     1      34.321 -15.026 -21.186  0.00  0.00    +0.252 C 
ATOM     12  H   UNL     1      35.046 -15.921 -22.886  0.00  0.00    +0.150 HD
BRANCH  11  15
ATOM     13 CL   UNL     1      31.860 -10.338 -22.786  0.00  0.00    -0.075 Cl
ATOM     14  S   UNL     1      32.688 -12.808 -21.362  0.00  0.00    -0.071 S 
ATOM     15  C   UNL     1      33.951 -13.805 -21.947  0.00  0.00    +0.084 C 
ATOM     16  C   UNL     1      34.496 -13.318 -23.114  0.00  0.00    +0.012 C 
ATOM     17  C   UNL     1      33.867 -12.110 -23.536  0.00  0.00    +0.019 C 
ATOM     18  C   UNL     1      32.866 -11.720 -22.672  0.00  0.00    +0.087 C 
ENDBRANCH  11  15
ENDBRANCH   4  10
ENDBRANCH   1   3
BRANCH   1  21
ATOM     19  O   UNL     1      32.526 -20.991 -18.756  0.00  0.00    -0.277 OA
ATOM     20  N   UNL     1      34.775 -21.595 -19.061  0.00  0.00    -0.284 N 
ATOM     21  C   UNL     1      33.547 -21.053 -19.434  0.00  0.00    +0.205 C 
ATOM     22  H   UNL     1      35.488 -21.564 -19.738  0.00  0.00    +0.155 HD
BRANCH  20  24
ATOM     23  F   UNL     1      37.186 -21.020 -17.786  0.00  0.00    -0.203 F 
ATOM     24  C   UNL     1      35.116 -22.185 -17.821  0.00  0.00    +0.078 C 
ATOM     25  C   UNL     1      36.331 -21.877 -17.208  0.00  0.00    +0.155 C 
ATOM     26  C   UNL     1      34.235 -23.078 -17.210  0.00  0.00    +0.018 C 
ATOM     27  C   UNL     1      35.783 -23.351 -15.376  0.00  0.00    +0.061 C 
ATOM     28  C   UNL     1      36.665 -22.459 -15.987  0.00  0.00    +0.046 C 
ATOM     29  C   UNL     1      34.569 -23.661 -15.988  0.00  0.00    +0.017 C 
BRANCH  27  31
ATOM     30  O   UNL     1      36.801 -26.036 -15.027  0.00  0.00    -0.269 OA
ATOM     31  N   UNL     1      36.130 -23.958 -14.105  0.00  0.00    -0.233 N 
ATOM     32  C   UNL     1      36.583 -25.302 -14.063  0.00  0.00    +0.257 C 
ATOM     33  C   UNL     1      36.044 -23.222 -12.922  0.00  0.00    +0.072 C 
ATOM     34  C   UNL     1      36.875 -25.865 -12.709  0.00  0.00    +0.059 C 
ATOM     35  C   UNL     1      36.342 -23.738 -11.724  0.00  0.00    +0.017 C 
ATOM     36  C   UNL     1      36.763 -25.102 -11.618  0.00  0.00    +0.006 C 
ENDBRANCH  27  31
ENDBRANCH  20  24
ENDBRANCH   1  21
TORSDOF 6
ENDMDL
MODEL 7
REMARK VINA RESULT:     -10.4      4.843     11.994
REMARK  Name = 42628063
REMARK  6 active torsions:
REMARK  status: ('A' for Active; 'I' for Inactive)
REMARK    1  A    between atoms: C_1  and  N_3
REMARK    2  A    between atoms: C_1  and  C_21
REMARK    3  A    between atoms: C_4  and  N_10
REMARK    4  A    between atoms: C_11  and  C_15
REMARK    5  A    between atoms: N_20  and  C_24
REMARK    6  A    between atoms: C_27  and  N_31
REMARK                            x       y       z     vdW  Elec       q    Type
REMARK                         _______ _______ _______ _____ _____    ______ ____
ROOT
ATOM      1  C   UNL     1      34.886 -20.268 -21.085  0.00  0.00    +0.010 C 
ENDROOT
BRANCH   1   3
ATOM      2  F   UNL     1      35.880 -16.924 -23.891  0.00  0.00    -0.238 F 
ATOM      3  N   UNL     1      35.277 -18.975 -21.626  0.00  0.00    +0.396 N 
ATOM      4  C   UNL     1      35.083 -16.667 -21.698  0.00  0.00    +0.082 C 
ATOM      5  C   UNL     1      34.811 -17.207 -23.099  0.00  0.00    +0.156 C 
ATOM      6  C   UNL     1      34.844 -17.861 -20.782  0.00  0.00    -0.054 C 
ATOM      7  C   UNL     1      34.685 -18.716 -22.943  0.00  0.00    -0.039 C 
ATOM      8  H   UNL     1      36.294 -19.028 -21.680  0.00  0.00    -0.079 HD
BRANCH   4  10
ATOM      9  O   UNL     1      34.886 -14.180 -23.117  0.00  0.00    -0.270 OA
ATOM     10  N   UNL     1      34.249 -15.548 -21.356  0.00  0.00    -0.302 N 
ATOM     11  C   UNL     1      34.219 -14.377 -22.106  0.00  0.00    +0.252 C 
ATOM     12  H   UNL     1      33.676 -15.613 -20.559  0.00  0.00    +0.150 HD
BRANCH  11  15
ATOM     13 CL   UNL     1      31.127  -9.804 -21.770  0.00  0.00    -0.075 Cl
ATOM     14  S   UNL     1      32.914 -12.006 -22.646  0.00  0.00    -0.071 S 
ATOM     15  C   UNL     1      33.322 -13.303 -21.606  0.00  0.00    +0.084 C 
ATOM     16  C   UNL     1      32.730 -13.180 -20.368  0.00  0.00    +0.012 C 
ATOM     17  C   UNL     1      31.932 -12.003 -20.272  0.00  0.00    +0.019 C 
ATOM     18  C   UNL     1      31.944 -11.273 -21.441  0.00  0.00    +0.087 C 
ENDBRANCH  11  15
ENDBRANCH   4  10
ENDBRANCH   1   3
BRANCH   1  21
ATOM     19  O   UNL     1      36.746 -19.985 -19.576  0.00  0.00    -0.277 OA
ATOM     20  N   UNL     1      35.048 -21.520 -19.056  0.00  0.00    -0.284 N 
ATOM     21  C   UNL     1      35.690 -20.555 -19.828  0.00  0.00    +0.205 C 
ATOM     22  H   UNL     1      34.199 -21.868 -19.411  0.00  0.00    +0.155 HD
BRANCH  20  24
ATOM     23  F   UNL     1      33.305 -22.938 -17.405  0.00  0.00    -0.203 F 
ATOM     24  C   UNL     1      35.473 -22.057 -17.817  0.00  0.00    +0.078 C 
ATOM     25  C   UNL     1      34.576 -22.762 -17.014  0.00  0.00    +0.155 C 
ATOM     26  C   UNL     1      36.792 -21.880 -17.399  0.00  0.00    +0.018 C 
ATOM     27  C   UNL     1      36.316 -23.114 -15.377  0.00  0.00    +0.061 C 
ATOM     28  C   UNL     1      34.997 -23.290 -15.794  0.00  0.00    +0.046 C 
ATOM     29  C   UNL     1      37.214 -22.409 -16.179  0.00  0.00    +0.017 C 
BRANCH  27  31
ATOM     30  O   UNL     1      37.117 -25.857 -14.930  0.00  0.00    -0.269 OA
ATOM     31  N   UNL     1      36.755 -23.663 -14.108  0.00  0.00    -0.233 N 
ATOM     32  C   UNL     1      37.084 -25.040 -14.010  0.00  0.00    +0.257 C 
ATOM     33  C   UNL     1      36.878 -22.842 -12.985  0.00  0.00    +0.072 C 
ATOM     34  C   UNL     1      37.482 -25.534 -12.655  0.00  0.00    +0.059 C 
ATOM     35  C   UNL     1      37.269 -23.301 -11.792  0.00  0.00    +0.017 C 
ATOM     36  C   UNL     1      37.572 -24.691 -11.624  0.00  0.00    +0.006 C 
ENDBRANCH  27  31
ENDBRANCH  20  24
ENDBRANCH   1  21
TORSDOF 6
ENDMDL
MODEL 8
REMARK VINA RESULT:     -10.3      3.558      5.519
REMARK  Name = 42628063
REMARK  6 active torsions:
REMARK  status: ('A' for Active; 'I' for Inactive)
REMARK    1  A    between atoms: C_1  and  N_3
REMARK    2  A    between atoms: C_1  and  C_21
REMARK    3  A    between atoms: C_4  and  N_10
REMARK    4  A    between atoms: C_11  and  C_15
REMARK    5  A    between atoms: N_20  and  C_24
REMARK    6  A    between atoms: C_27  and  N_31
REMARK                            x       y       z     vdW  Elec       q    Type
REMARK                         _______ _______ _______ _____ _____    ______ ____
ROOT
ATOM      1  C   UNL     1      34.476 -16.683 -23.960  0.00  0.00    +0.010 C 
ENDROOT
BRANCH   1   3
ATOM      2  F   UNL     1      37.671 -18.485 -21.393  0.00  0.00    -0.238 F 
ATOM      3  N   UNL     1      35.305 -17.630 -23.229  0.00  0.00    +0.396 N 
ATOM      4  C   UNL     1      35.537 -19.396 -21.747  0.00  0.00    +0.082 C 
ATOM      5  C   UNL     1      36.349 -18.221 -21.210  0.00  0.00    +0.156 C 
ATOM      6  C   UNL     1      34.536 -18.757 -22.700  0.00  0.00    -0.054 C 
ATOM      7  C   UNL     1      35.953 -17.023 -22.062  0.00  0.00    -0.039 C 
ATOM      8  H   UNL     1      35.992 -17.938 -23.917  0.00  0.00    -0.079 HD
BRANCH   4  10
ATOM      9  O   UNL     1      36.813 -21.066 -19.792  0.00  0.00    -0.270 OA
ATOM     10  N   UNL     1      34.890 -20.151 -20.710  0.00  0.00    -0.302 N 
ATOM     11  C   UNL     1      35.592 -20.937 -19.803  0.00  0.00    +0.252 C 
ATOM     12  H   UNL     1      33.910 -20.109 -20.638  0.00  0.00    +0.150 HD
BRANCH  11  15
ATOM     13 CL   UNL     1      34.009 -23.782 -15.332  0.00  0.00    -0.075 Cl
ATOM     14  S   UNL     1      35.533 -22.297 -17.402  0.00  0.00    -0.071 S 
ATOM     15  C   UNL     1      34.775 -21.675 -18.805  0.00  0.00    +0.084 C 
ATOM     16  C   UNL     1      33.426 -21.952 -18.831  0.00  0.00    +0.012 C 
ATOM     17  C   UNL     1      33.008 -22.686 -17.683  0.00  0.00    +0.019 C 
ATOM     18  C   UNL     1      34.055 -22.941 -16.824  0.00  0.00    +0.087 C 
ENDBRANCH  11  15
ENDBRANCH   4  10
ENDBRANCH   1   3
BRANCH   1  21
ATOM     19  O   UNL     1      35.354 -15.047 -22.420  0.00  0.00    -0.277 OA
ATOM     20  N   UNL     1      33.454 -14.538 -23.702  0.00  0.00    -0.284 N 
ATOM     21  C   UNL     1      34.503 -15.338 -23.254  0.00  0.00    +0.205 C 
ATOM     22  H   UNL     1      32.866 -14.934 -24.384  0.00  0.00    +0.155 HD
BRANCH  20  24
ATOM     23  F   UNL     1      32.043 -14.044 -21.349  0.00  0.00    -0.203 F 
ATOM     24  C   UNL     1      33.138 -13.221 -23.292  0.00  0.00    +0.078 C 
ATOM     25  C   UNL     1      32.430 -13.008 -22.108  0.00  0.00    +0.155 C 
ATOM     26  C   UNL     1      33.533 -12.135 -24.072  0.00  0.00    +0.018 C 
ATOM     27  C   UNL     1      32.516 -10.624 -22.486  0.00  0.00    +0.061 C 
ATOM     28  C   UNL     1      32.119 -11.710 -21.705  0.00  0.00    +0.046 C 
ATOM     29  C   UNL     1      33.223 -10.837 -23.669  0.00  0.00    +0.017 C 
BRANCH  27  31
ATOM     30  O   UNL     1      31.428  -8.559 -24.194  0.00  0.00    -0.269 OA
ATOM     31  N   UNL     1      32.192  -9.274 -22.067  0.00  0.00    -0.233 N 
ATOM     32  C   UNL     1      31.700  -8.338 -23.014  0.00  0.00    +0.257 C 
ATOM     33  C   UNL     1      32.341  -8.890 -20.733  0.00  0.00    +0.072 C 
ATOM     34  C   UNL     1      31.436  -6.955 -22.509  0.00  0.00    +0.059 C 
ATOM     35  C   UNL     1      32.066  -7.656 -20.298  0.00  0.00    +0.017 C 
ATOM     36  C   UNL     1      31.607  -6.659 -21.219  0.00  0.00    +0.006 C 
ENDBRANCH  27  31
ENDBRANCH  20  24
ENDBRANCH   1  21
TORSDOF 6
ENDMDL
MODEL 9
REMARK VINA RESULT:     -10.2      4.220      6.868
REMARK  Name = 42628063
REMARK  6 active torsions:
REMARK  status: ('A' for Active; 'I' for Inactive)
REMARK    1  A    between atoms: C_1  and  N_3
REMARK    2  A    between atoms: C_1  and  C_21
REMARK    3  A    between atoms: C_4  and  N_10
REMARK    4  A    between atoms: C_11  and  C_15
REMARK    5  A    between atoms: N_20  and  C_24
REMARK    6  A    between atoms: C_27  and  N_31
REMARK                            x       y       z     vdW  Elec       q    Type
REMARK                         _______ _______ _______ _____ _____    ______ ____
ROOT
ATOM      1  C   UNL     1      34.164 -15.186 -24.408  0.00  0.00    +0.010 C 
ENDROOT
BRANCH   1   3
ATOM      2  F   UNL     1      35.210 -14.579 -20.098  0.00  0.00    -0.238 F 
ATOM      3  N   UNL     1      34.780 -15.306 -23.096  0.00  0.00    +0.396 N 
ATOM      4  C   UNL     1      35.466 -16.585 -21.289  0.00  0.00    +0.082 C 
ATOM      5  C   UNL     1      34.500 -15.522 -20.774  0.00  0.00    +0.156 C 
ATOM      6  C   UNL     1      35.157 -16.684 -22.778  0.00  0.00    -0.054 C 
ATOM      7  C   UNL     1      33.880 -14.892 -22.014  0.00  0.00    -0.039 C 
ATOM      8  H   UNL     1      35.598 -14.700 -23.151  0.00  0.00    -0.079 HD
BRANCH   4  10
ATOM      9  O   UNL     1      37.422 -18.679 -21.126  0.00  0.00    -0.270 OA
ATOM     10  N   UNL     1      35.316 -17.848 -20.622  0.00  0.00    -0.302 N 
ATOM     11  C   UNL     1      36.323 -18.807 -20.594  0.00  0.00    +0.252 C 
ATOM     12  H   UNL     1      34.467 -18.043 -20.164  0.00  0.00    +0.150 HD
BRANCH  11  15
ATOM     13 CL   UNL     1      33.660 -23.243 -18.638  0.00  0.00    -0.075 Cl
ATOM     14  S   UNL     1      34.423 -20.720 -20.004  0.00  0.00    -0.071 S 
ATOM     15  C   UNL     1      36.003 -20.072 -19.883  0.00  0.00    +0.084 C 
ATOM     16  C   UNL     1      36.824 -20.852 -19.099  0.00  0.00    +0.012 C 
ATOM     17  C   UNL     1      36.146 -21.998 -18.589  0.00  0.00    +0.019 C 
ATOM     18  C   UNL     1      34.833 -22.049 -19.005  0.00  0.00    +0.087 C 
ENDBRANCH  11  15
ENDBRANCH   4  10
ENDBRANCH   1   3
BRANCH   1  21
ATOM     19  O   UNL     1      32.599 -13.626 -25.376  0.00  0.00    -0.277 OA
ATOM     20  N   UNL     1      33.825 -13.015 -23.470  0.00  0.00    -0.284 N 
ATOM     21  C   UNL     1      33.425 -13.862 -24.501  0.00  0.00    +0.205 C 
ATOM     22  H   UNL     1      34.500 -13.373 -22.850  0.00  0.00    +0.155 HD
BRANCH  20  24
ATOM     23  F   UNL     1      31.512 -12.534 -21.990  0.00  0.00    -0.203 F 
ATOM     24  C   UNL     1      33.372 -11.699 -23.210  0.00  0.00    +0.078 C 
ATOM     25  C   UNL     1      32.210 -11.492 -22.465  0.00  0.00    +0.155 C 
ATOM     26  C   UNL     1      34.089 -10.608 -23.700  0.00  0.00    +0.018 C 
ATOM     27  C   UNL     1      32.484  -9.104 -22.699  0.00  0.00    +0.061 C 
ATOM     28  C   UNL     1      31.767 -10.196 -22.210  0.00  0.00    +0.046 C 
ATOM     29  C   UNL     1      33.646  -9.310 -23.444  0.00  0.00    +0.017 C 
BRANCH  27  31
ATOM     30  O   UNL     1      30.699  -7.585 -24.393  0.00  0.00    -0.269 OA
ATOM     31  N   UNL     1      32.023  -7.755 -22.434  0.00  0.00    -0.233 N 
ATOM     32  C   UNL     1      31.176  -7.101 -23.367  0.00  0.00    +0.257 C 
ATOM     33  C   UNL     1      32.387  -7.100 -21.256  0.00  0.00    +0.072 C 
ATOM     34  C   UNL     1      30.785  -5.695 -23.039  0.00  0.00    +0.059 C 
ATOM     35  C   UNL     1      31.997  -5.854 -20.970  0.00  0.00    +0.017 C 
ATOM     36  C   UNL     1      31.177  -5.130 -21.895  0.00  0.00    +0.006 C 
ENDBRANCH  27  31
ENDBRANCH  20  24
ENDBRANCH   1  21
TORSDOF 6
ENDMDL
