MODEL 1
REMARK VINA RESULT:     -10.8      0.000      0.000
REMARK  Name = 21066087
REMARK  4 active torsions:
REMARK  status: ('A' for Active; 'I' for Inactive)
REMARK    1  A    between atoms: C_4  and  N_18
REMARK    2  A    between atoms: C_5  and  C_12
REMARK    3  A    between atoms: N_18  and  C_20
REMARK    4  A    between atoms: C_20  and  C_22
REMARK                            x       y       z     vdW  Elec       q    Type
REMARK                         _______ _______ _______ _____ _____    ______ ____
ROOT
ATOM      1  N   UNL     1      31.957 -23.941 -14.908  0.00  0.00    -0.152 N 
ATOM      2  N   UNL     1      33.235 -24.621 -12.983  0.00  0.00    -0.389 NA
ATOM      3  N   UNL     1      30.678 -23.991 -15.375  0.00  0.00    -0.174 NA
ATOM      4  C   UNL     1      33.081 -23.379 -15.535  0.00  0.00    +0.126 C 
ATOM      5  C   UNL     1      34.274 -24.087 -13.557  0.00  0.00    +0.136 C 
ATOM      6  C   UNL     1      32.055 -24.549 -13.655  0.00  0.00    +0.190 C 
ATOM      7  C   UNL     1      34.264 -23.430 -14.902  0.00  0.00    +0.064 C 
ATOM      8  C   UNL     1      30.792 -24.995 -13.337  0.00  0.00    +0.125 C 
ATOM      9  C   UNL     1      29.995 -24.625 -14.425  0.00  0.00    +0.101 C 
ENDROOT
BRANCH   5  12
ATOM     10 CL   UNL     1      36.439 -25.878 -14.746  0.00  0.00    -0.081 Cl
ATOM     11 CL   UNL     1      39.208 -25.882 -13.121  0.00  0.00    -0.081 Cl
ATOM     12  C   UNL     1      35.584 -24.138 -12.857  0.00  0.00    +0.041 C 
ATOM     13  C   UNL     1      36.644 -24.922 -13.311  0.00  0.00    +0.071 C 
ATOM     14  C   UNL     1      35.734 -23.363 -11.706  0.00  0.00    +0.003 C 
ATOM     15  C   UNL     1      37.854 -24.933 -12.615  0.00  0.00    +0.068 C 
ATOM     16  C   UNL     1      36.942 -23.374 -11.010  0.00  0.00    +0.001 C 
ATOM     17  C   UNL     1      38.002 -24.158 -11.465  0.00  0.00    +0.012 C 
ENDBRANCH   5  12
BRANCH   4  18
ATOM     18  N   UNL     1      32.899 -22.817 -16.768  0.00  0.00    -0.316 N 
ATOM     19  H   UNL     1      32.294 -22.044 -16.844  0.00  0.00    +0.148 HD
BRANCH  18  20
ATOM     20  C   UNL     1      33.549 -23.296 -17.959  0.00  0.00    +0.115 C 
BRANCH  20  22
ATOM     21  N   UNL     1      35.203 -20.019 -20.196  0.00  0.00    -0.242 NA
ATOM     22  C   UNL     1      34.128 -22.150 -18.741  0.00  0.00    +0.000 C 
ATOM     23  C   UNL     1      35.500 -21.930 -18.744  0.00  0.00    +0.018 C 
ATOM     24  C   UNL     1      33.292 -21.306 -19.464  0.00  0.00    +0.018 C 
ATOM     25  C   UNL     1      35.984 -20.861 -19.481  0.00  0.00    +0.099 C 
ATOM     26  C   UNL     1      33.874 -20.265 -20.168  0.00  0.00    +0.099 C 
ENDBRANCH  20  22
ENDBRANCH  18  20
ENDBRANCH   4  18
TORSDOF 4
ENDMDL
MODEL 2
REMARK VINA RESULT:     -10.3      1.351      2.061
REMARK  Name = 21066087
REMARK  4 active torsions:
REMARK  status: ('A' for Active; 'I' for Inactive)
REMARK    1  A    between atoms: C_4  and  N_18
REMARK    2  A    between atoms: C_5  and  C_12
REMARK    3  A    between atoms: N_18  and  C_20
REMARK    4  A    between atoms: C_20  and  C_22
REMARK                            x       y       z     vdW  Elec       q    Type
REMARK                         _______ _______ _______ _____ _____    ______ ____
ROOT
ATOM      1  N   UNL     1      32.108 -23.346 -15.384  0.00  0.00    -0.152 N 
ATOM      2  N   UNL     1      33.369 -24.573 -13.739  0.00  0.00    -0.389 NA
ATOM      3  N   UNL     1      30.846 -22.872 -15.583  0.00  0.00    -0.174 NA
ATOM      4  C   UNL     1      33.216 -23.228 -16.239  0.00  0.00    +0.126 C 
ATOM      5  C   UNL     1      34.400 -24.452 -14.524  0.00  0.00    +0.136 C 
ATOM      6  C   UNL     1      32.203 -24.014 -14.162  0.00  0.00    +0.190 C 
ATOM      7  C   UNL     1      34.384 -23.768 -15.856  0.00  0.00    +0.064 C 
ATOM      8  C   UNL     1      30.955 -23.953 -13.584  0.00  0.00    +0.125 C 
ATOM      9  C   UNL     1      30.169 -23.244 -14.499  0.00  0.00    +0.101 C 
ENDROOT
BRANCH   5  12
ATOM     10 CL   UNL     1      35.832 -23.159 -12.161  0.00  0.00    -0.081 Cl
ATOM     11 CL   UNL     1      38.616 -24.547 -11.367  0.00  0.00    -0.081 Cl
ATOM     12  C   UNL     1      35.696 -25.043 -14.101  0.00  0.00    +0.041 C 
ATOM     13  C   UNL     1      36.436 -24.533 -13.034  0.00  0.00    +0.071 C 
ATOM     14  C   UNL     1      36.167 -26.148 -14.811  0.00  0.00    +0.003 C 
ATOM     15  C   UNL     1      37.647 -25.127 -12.677  0.00  0.00    +0.068 C 
ATOM     16  C   UNL     1      37.378 -26.741 -14.455  0.00  0.00    +0.001 C 
ATOM     17  C   UNL     1      38.118 -26.231 -13.388  0.00  0.00    +0.012 C 
ENDBRANCH   5  12
BRANCH   4  18
ATOM     18  N   UNL     1      33.030 -22.573 -17.424  0.00  0.00    -0.316 N 
ATOM     19  H   UNL     1      32.409 -21.810 -17.443  0.00  0.00    +0.148 HD
BRANCH  18  20
ATOM     20  C   UNL     1      33.699 -22.941 -18.644  0.00  0.00    +0.115 C 
BRANCH  20  22
ATOM     21  N   UNL     1      35.695 -19.540 -20.355  0.00  0.00    -0.242 NA
ATOM     22  C   UNL     1      34.397 -21.751 -19.242  0.00  0.00    +0.000 C 
ATOM     23  C   UNL     1      33.669 -20.789 -19.931  0.00  0.00    +0.018 C 
ATOM     24  C   UNL     1      35.774 -21.611 -19.109  0.00  0.00    +0.018 C 
ATOM     25  C   UNL     1      34.358 -19.712 -20.464  0.00  0.00    +0.099 C 
ATOM     26  C   UNL     1      36.369 -20.497 -19.678  0.00  0.00    +0.099 C 
ENDBRANCH  20  22
ENDBRANCH  18  20
ENDBRANCH   4  18
TORSDOF 4
ENDMDL
MODEL 3
REMARK VINA RESULT:     -10.1     13.100     16.623
REMARK  Name = 21066087
REMARK  4 active torsions:
REMARK  status: ('A' for Active; 'I' for Inactive)
REMARK    1  A    between atoms: C_4  and  N_18
REMARK    2  A    between atoms: C_5  and  C_12
REMARK    3  A    between atoms: N_18  and  C_20
REMARK    4  A    between atoms: C_20  and  C_22
REMARK                            x       y       z     vdW  Elec       q    Type
REMARK                         _______ _______ _______ _____ _____    ______ ____
ROOT
ATOM      1  N   UNL     1      32.011 -10.443 -20.854  0.00  0.00    -0.152 N 
ATOM      2  N   UNL     1      32.542  -8.132 -21.273  0.00  0.00    -0.389 NA
ATOM      3  N   UNL     1      31.481 -11.225 -19.871  0.00  0.00    -0.174 NA
ATOM      4  C   UNL     1      32.476 -10.847 -22.115  0.00  0.00    +0.126 C 
ATOM      5  C   UNL     1      32.960  -8.503 -22.449  0.00  0.00    +0.136 C 
ATOM      6  C   UNL     1      32.055  -9.106 -20.458  0.00  0.00    +0.190 C 
ATOM      7  C   UNL     1      32.964  -9.914 -22.949  0.00  0.00    +0.064 C 
ATOM      8  C   UNL     1      31.536  -9.056 -19.184  0.00  0.00    +0.125 C 
ATOM      9  C   UNL     1      31.203 -10.381 -18.879  0.00  0.00    +0.101 C 
ENDROOT
BRANCH   5  12
ATOM     10 CL   UNL     1      30.974  -7.083 -24.277  0.00  0.00    -0.081 Cl
ATOM     11 CL   UNL     1      32.282  -4.886 -26.219  0.00  0.00    -0.081 Cl
ATOM     12  C   UNL     1      33.497  -7.472 -23.376  0.00  0.00    +0.041 C 
ATOM     13  C   UNL     1      32.680  -6.761 -24.255  0.00  0.00    +0.071 C 
ATOM     14  C   UNL     1      34.869  -7.224 -23.345  0.00  0.00    +0.003 C 
ATOM     15  C   UNL     1      33.235  -5.804 -25.105  0.00  0.00    +0.068 C 
ATOM     16  C   UNL     1      35.425  -6.268 -24.195  0.00  0.00    +0.001 C 
ATOM     17  C   UNL     1      34.607  -5.557 -25.074  0.00  0.00    +0.012 C 
ENDBRANCH   5  12
BRANCH   4  18
ATOM     18  N   UNL     1      32.410 -12.178 -22.416  0.00  0.00    -0.316 N 
ATOM     19  H   UNL     1      31.643 -12.501 -22.941  0.00  0.00    +0.148 HD
BRANCH  18  20
ATOM     20  C   UNL     1      33.407 -13.131 -22.004  0.00  0.00    +0.115 C 
BRANCH  20  22
ATOM     21  N   UNL     1      34.174 -15.965 -25.145  0.00  0.00    -0.242 NA
ATOM     22  C   UNL     1      33.675 -14.122 -23.103  0.00  0.00    +0.000 C 
ATOM     23  C   UNL     1      33.051 -13.982 -24.337  0.00  0.00    +0.018 C 
ATOM     24  C   UNL     1      34.548 -15.182 -22.888  0.00  0.00    +0.018 C 
ATOM     25  C   UNL     1      33.331 -14.921 -25.316  0.00  0.00    +0.099 C 
ATOM     26  C   UNL     1      34.762 -16.068 -23.932  0.00  0.00    +0.099 C 
ENDBRANCH  20  22
ENDBRANCH  18  20
ENDBRANCH   4  18
TORSDOF 4
ENDMDL
MODEL 4
REMARK VINA RESULT:      -9.9     12.185     16.522
REMARK  Name = 21066087
REMARK  4 active torsions:
REMARK  status: ('A' for Active; 'I' for Inactive)
REMARK    1  A    between atoms: C_4  and  N_18
REMARK    2  A    between atoms: C_5  and  C_12
REMARK    3  A    between atoms: N_18  and  C_20
REMARK    4  A    between atoms: C_20  and  C_22
REMARK                            x       y       z     vdW  Elec       q    Type
REMARK                         _______ _______ _______ _____ _____    ______ ____
ROOT
ATOM      1  N   UNL     1      31.959 -10.413 -20.831  0.00  0.00    -0.152 N 
ATOM      2  N   UNL     1      32.595  -8.123 -21.219  0.00  0.00    -0.389 NA
ATOM      3  N   UNL     1      31.429 -11.191 -19.845  0.00  0.00    -0.174 NA
ATOM      4  C   UNL     1      32.351 -10.809 -22.120  0.00  0.00    +0.126 C 
ATOM      5  C   UNL     1      32.944  -8.486 -22.420  0.00  0.00    +0.136 C 
ATOM      6  C   UNL     1      32.090  -9.090 -20.407  0.00  0.00    +0.190 C 
ATOM      7  C   UNL     1      32.853  -9.881 -22.952  0.00  0.00    +0.064 C 
ATOM      8  C   UNL     1      31.628  -9.046 -19.111  0.00  0.00    +0.125 C 
ATOM      9  C   UNL     1      31.238 -10.359 -18.823  0.00  0.00    +0.101 C 
ENDROOT
BRANCH   5  12
ATOM     10 CL   UNL     1      30.981  -7.041 -24.254  0.00  0.00    -0.081 Cl
ATOM     11 CL   UNL     1      32.322  -4.860 -26.191  0.00  0.00    -0.081 Cl
ATOM     12  C   UNL     1      33.496  -7.460 -23.344  0.00  0.00    +0.041 C 
ATOM     13  C   UNL     1      32.691  -6.740 -24.226  0.00  0.00    +0.071 C 
ATOM     14  C   UNL     1      34.871  -7.229 -23.309  0.00  0.00    +0.003 C 
ATOM     15  C   UNL     1      33.261  -5.789 -25.073  0.00  0.00    +0.068 C 
ATOM     16  C   UNL     1      35.441  -6.279 -24.156  0.00  0.00    +0.001 C 
ATOM     17  C   UNL     1      34.636  -5.558 -25.038  0.00  0.00    +0.012 C 
ENDBRANCH   5  12
BRANCH   4  18
ATOM     18  N   UNL     1      32.202 -12.127 -22.448  0.00  0.00    -0.316 N 
ATOM     19  H   UNL     1      31.398 -12.598 -22.133  0.00  0.00    +0.148 HD
BRANCH  18  20
ATOM     20  C   UNL     1      33.161 -12.859 -23.232  0.00  0.00    +0.115 C 
BRANCH  20  22
ATOM     21  N   UNL     1      34.988 -15.952 -20.870  0.00  0.00    -0.242 NA
ATOM     22  C   UNL     1      33.801 -13.941 -22.406  0.00  0.00    +0.000 C 
ATOM     23  C   UNL     1      34.484 -14.980 -23.026  0.00  0.00    +0.018 C 
ATOM     24  C   UNL     1      33.709 -13.906 -21.019  0.00  0.00    +0.018 C 
ATOM     25  C   UNL     1      35.056 -15.952 -22.221  0.00  0.00    +0.099 C 
ATOM     26  C   UNL     1      34.315 -14.926 -20.304  0.00  0.00    +0.099 C 
ENDBRANCH  20  22
ENDBRANCH  18  20
ENDBRANCH   4  18
TORSDOF 4
ENDMDL
MODEL 5
REMARK VINA RESULT:      -9.9     12.811     16.428
REMARK  Name = 21066087
REMARK  4 active torsions:
REMARK  status: ('A' for Active; 'I' for Inactive)
REMARK    1  A    between atoms: C_4  and  N_18
REMARK    2  A    between atoms: C_5  and  C_12
REMARK    3  A    between atoms: N_18  and  C_20
REMARK    4  A    between atoms: C_20  and  C_22
REMARK                            x       y       z     vdW  Elec       q    Type
REMARK                         _______ _______ _______ _____ _____    ______ ____
ROOT
ATOM      1  N   UNL     1      32.041 -10.678 -20.620  0.00  0.00    -0.152 N 
ATOM      2  N   UNL     1      32.060  -8.320 -21.108  0.00  0.00    -0.389 NA
ATOM      3  N   UNL     1      31.881 -11.517 -19.558  0.00  0.00    -0.174 NA
ATOM      4  C   UNL     1      32.284 -11.023 -21.959  0.00  0.00    +0.126 C 
ATOM      5  C   UNL     1      32.271  -8.639 -22.352  0.00  0.00    +0.136 C 
ATOM      6  C   UNL     1      31.938  -9.344 -20.222  0.00  0.00    +0.190 C 
ATOM      7  C   UNL     1      32.410 -10.039 -22.864  0.00  0.00    +0.064 C 
ATOM      8  C   UNL     1      31.708  -9.357 -18.865  0.00  0.00    +0.125 C 
ATOM      9  C   UNL     1      31.683 -10.712 -18.516  0.00  0.00    +0.101 C 
ENDROOT
BRANCH   5  12
ATOM     10 CL   UNL     1      35.094  -7.827 -23.176  0.00  0.00    -0.081 Cl
ATOM     11 CL   UNL     1      35.223  -5.468 -25.350  0.00  0.00    -0.081 Cl
ATOM     12  C   UNL     1      32.407  -7.552 -23.357  0.00  0.00    +0.041 C 
ATOM     13  C   UNL     1      33.648  -7.100 -23.805  0.00  0.00    +0.071 C 
ATOM     14  C   UNL     1      31.236  -6.980 -23.854  0.00  0.00    +0.003 C 
ATOM     15  C   UNL     1      33.719  -6.076 -24.750  0.00  0.00    +0.068 C 
ATOM     16  C   UNL     1      31.306  -5.955 -24.798  0.00  0.00    +0.001 C 
ATOM     17  C   UNL     1      32.547  -5.504 -25.247  0.00  0.00    +0.012 C 
ENDBRANCH   5  12
BRANCH   4  18
ATOM     18  N   UNL     1      32.386 -12.352 -22.259  0.00  0.00    -0.316 N 
ATOM     19  H   UNL     1      31.602 -12.805 -22.647  0.00  0.00    +0.148 HD
BRANCH  18  20
ATOM     20  C   UNL     1      33.581 -13.123 -22.039  0.00  0.00    +0.115 C 
BRANCH  20  22
ATOM     21  N   UNL     1      34.098 -16.032 -25.161  0.00  0.00    -0.242 NA
ATOM     22  C   UNL     1      33.761 -14.140 -23.131  0.00  0.00    +0.000 C 
ATOM     23  C   UNL     1      33.084 -13.998 -24.337  0.00  0.00    +0.018 C 
ATOM     24  C   UNL     1      34.607 -15.227 -22.939  0.00  0.00    +0.018 C 
ATOM     25  C   UNL     1      33.284 -14.962 -25.311  0.00  0.00    +0.099 C 
ATOM     26  C   UNL     1      34.739 -16.136 -23.976  0.00  0.00    +0.099 C 
ENDBRANCH  20  22
ENDBRANCH  18  20
ENDBRANCH   4  18
TORSDOF 4
ENDMDL
MODEL 6
REMARK VINA RESULT:      -9.8      2.614      5.504
REMARK  Name = 21066087
REMARK  4 active torsions:
REMARK  status: ('A' for Active; 'I' for Inactive)
REMARK    1  A    between atoms: C_4  and  N_18
REMARK    2  A    between atoms: C_5  and  C_12
REMARK    3  A    between atoms: N_18  and  C_20
REMARK    4  A    between atoms: C_20  and  C_22
REMARK                            x       y       z     vdW  Elec       q    Type
REMARK                         _______ _______ _______ _____ _____    ______ ____
ROOT
ATOM      1  N   UNL     1      35.279 -22.802 -16.194  0.00  0.00    -0.152 N 
ATOM      2  N   UNL     1      33.452 -23.302 -14.706  0.00  0.00    -0.389 NA
ATOM      3  N   UNL     1      36.632 -22.642 -16.159  0.00  0.00    -0.174 NA
ATOM      4  C   UNL     1      34.429 -22.698 -17.307  0.00  0.00    +0.126 C 
ATOM      5  C   UNL     1      32.665 -23.220 -15.741  0.00  0.00    +0.136 C 
ATOM      6  C   UNL     1      34.779 -23.096 -14.925  0.00  0.00    +0.190 C 
ATOM      7  C   UNL     1      33.112 -22.895 -17.131  0.00  0.00    +0.064 C 
ATOM      8  C   UNL     1      35.859 -23.117 -14.072  0.00  0.00    +0.125 C 
ATOM      9  C   UNL     1      36.963 -22.833 -14.884  0.00  0.00    +0.101 C 
ENDROOT
BRANCH   5  12
ATOM     10 CL   UNL     1      31.817 -25.503 -13.903  0.00  0.00    -0.081 Cl
ATOM     11 CL   UNL     1      28.641 -25.857 -13.594  0.00  0.00    -0.081 Cl
ATOM     12  C   UNL     1      31.207 -23.443 -15.550  0.00  0.00    +0.041 C 
ATOM     13  C   UNL     1      30.708 -24.457 -14.733  0.00  0.00    +0.071 C 
ATOM     14  C   UNL     1      30.329 -22.593 -16.223  0.00  0.00    +0.003 C 
ATOM     15  C   UNL     1      29.330 -24.622 -14.590  0.00  0.00    +0.068 C 
ATOM     16  C   UNL     1      28.952 -22.758 -16.080  0.00  0.00    +0.001 C 
ATOM     17  C   UNL     1      28.452 -23.772 -15.263  0.00  0.00    +0.012 C 
ENDBRANCH   5  12
BRANCH   4  18
ATOM     18  N   UNL     1      35.001 -22.392 -18.510  0.00  0.00    -0.316 N 
ATOM     19  H   UNL     1      35.935 -22.659 -18.665  0.00  0.00    +0.148 HD
BRANCH  18  20
ATOM     20  C   UNL     1      34.305 -21.699 -19.562  0.00  0.00    +0.115 C 
BRANCH  20  22
ATOM     21  N   UNL     1      36.612 -18.345 -20.941  0.00  0.00    -0.242 NA
ATOM     22  C   UNL     1      35.111 -20.526 -20.044  0.00  0.00    +0.000 C 
ATOM     23  C   UNL     1      34.509 -19.531 -20.805  0.00  0.00    +0.018 C 
ATOM     24  C   UNL     1      36.463 -20.433 -19.731  0.00  0.00    +0.018 C 
ATOM     25  C   UNL     1      35.296 -18.470 -21.225  0.00  0.00    +0.099 C 
ATOM     26  C   UNL     1      37.162 -19.332 -20.199  0.00  0.00    +0.099 C 
ENDBRANCH  20  22
ENDBRANCH  18  20
ENDBRANCH   4  18
TORSDOF 4
ENDMDL
MODEL 7
REMARK VINA RESULT:      -9.8      2.989      6.858
REMARK  Name = 21066087
REMARK  4 active torsions:
REMARK  status: ('A' for Active; 'I' for Inactive)
REMARK    1  A    between atoms: C_4  and  N_18
REMARK    2  A    between atoms: C_5  and  C_12
REMARK    3  A    between atoms: N_18  and  C_20
REMARK    4  A    between atoms: C_20  and  C_22
REMARK                            x       y       z     vdW  Elec       q    Type
REMARK                         _______ _______ _______ _____ _____    ______ ____
ROOT
ATOM      1  N   UNL     1      35.791 -22.323 -16.907  0.00  0.00    -0.152 N 
ATOM      2  N   UNL     1      33.465 -22.946 -16.944  0.00  0.00    -0.389 NA
ATOM      3  N   UNL     1      36.742 -21.810 -17.738  0.00  0.00    -0.174 NA
ATOM      4  C   UNL     1      35.937 -22.697 -15.562  0.00  0.00    +0.126 C 
ATOM      5  C   UNL     1      33.596 -23.279 -15.692  0.00  0.00    +0.136 C 
ATOM      6  C   UNL     1      34.569 -22.456 -17.569  0.00  0.00    +0.190 C 
ATOM      7  C   UNL     1      34.869 -23.185 -14.911  0.00  0.00    +0.064 C 
ATOM      8  C   UNL     1      34.770 -22.012 -18.856  0.00  0.00    +0.125 C 
ATOM      9  C   UNL     1      36.115 -21.630 -18.899  0.00  0.00    +0.101 C 
ENDROOT
BRANCH   5  12
ATOM     10 CL   UNL     1      30.836 -22.441 -16.685  0.00  0.00    -0.081 Cl
ATOM     11 CL   UNL     1      28.386 -23.677 -15.018  0.00  0.00    -0.081 Cl
ATOM     12  C   UNL     1      32.414 -23.815 -14.967  0.00  0.00    +0.041 C 
ATOM     13  C   UNL     1      31.106 -23.497 -15.334  0.00  0.00    +0.071 C 
ATOM     14  C   UNL     1      32.647 -24.663 -13.884  0.00  0.00    +0.003 C 
ATOM     15  C   UNL     1      30.032 -24.028 -14.618  0.00  0.00    +0.068 C 
ATOM     16  C   UNL     1      31.574 -25.193 -13.169  0.00  0.00    +0.001 C 
ATOM     17  C   UNL     1      30.266 -24.876 -13.536  0.00  0.00    +0.012 C 
ENDBRANCH   5  12
BRANCH   4  18
ATOM     18  N   UNL     1      37.173 -22.548 -14.996  0.00  0.00    -0.316 N 
ATOM     19  H   UNL     1      37.419 -21.664 -14.640  0.00  0.00    +0.148 HD
BRANCH  18  20
ATOM     20  C   UNL     1      38.129 -23.618 -14.894  0.00  0.00    +0.115 C 
BRANCH  20  22
ATOM     21  N   UNL     1      37.154 -26.201 -11.600  0.00  0.00    -0.242 NA
ATOM     22  C   UNL     1      37.788 -24.522 -13.742  0.00  0.00    +0.000 C 
ATOM     23  C   UNL     1      37.610 -25.884 -13.953  0.00  0.00    +0.018 C 
ATOM     24  C   UNL     1      37.649 -23.997 -12.462  0.00  0.00    +0.018 C 
ATOM     25  C   UNL     1      37.298 -26.674 -12.859  0.00  0.00    +0.099 C 
ATOM     26  C   UNL     1      37.334 -24.872 -11.435  0.00  0.00    +0.099 C 
ENDBRANCH  20  22
ENDBRANCH  18  20
ENDBRANCH   4  18
TORSDOF 4
ENDMDL
MODEL 8
REMARK VINA RESULT:      -9.8      2.419      6.369
REMARK  Name = 21066087
REMARK  4 active torsions:
REMARK  status: ('A' for Active; 'I' for Inactive)
REMARK    1  A    between atoms: C_4  and  N_18
REMARK    2  A    between atoms: C_5  and  C_12
REMARK    3  A    between atoms: N_18  and  C_20
REMARK    4  A    between atoms: C_20  and  C_22
REMARK                            x       y       z     vdW  Elec       q    Type
REMARK                         _______ _______ _______ _____ _____    ______ ____
ROOT
ATOM      1  N   UNL     1      35.046 -24.307 -13.576  0.00  0.00    -0.152 N 
ATOM      2  N   UNL     1      36.119 -23.599 -15.613  0.00  0.00    -0.389 NA
ATOM      3  N   UNL     1      35.349 -24.944 -12.410  0.00  0.00    -0.174 NA
ATOM      4  C   UNL     1      33.800 -23.801 -13.981  0.00  0.00    +0.126 C 
ATOM      5  C   UNL     1      34.968 -23.117 -15.982  0.00  0.00    +0.136 C 
ATOM      6  C   UNL     1      36.172 -24.201 -14.394  0.00  0.00    +0.190 C 
ATOM      7  C   UNL     1      33.709 -23.200 -15.178  0.00  0.00    +0.064 C 
ATOM      8  C   UNL     1      37.209 -24.795 -13.712  0.00  0.00    +0.125 C 
ATOM      9  C   UNL     1      36.646 -25.230 -12.507  0.00  0.00    +0.101 C 
ENDROOT
BRANCH   5  12
ATOM     10 CL   UNL     1      37.352 -21.456 -16.909  0.00  0.00    -0.081 Cl
ATOM     11 CL   UNL     1      36.978 -20.071 -19.782  0.00  0.00    -0.081 Cl
ATOM     12  C   UNL     1      34.864 -22.446 -17.305  0.00  0.00    +0.041 C 
ATOM     13  C   UNL     1      35.893 -21.663 -17.827  0.00  0.00    +0.071 C 
ATOM     14  C   UNL     1      33.686 -22.623 -18.030  0.00  0.00    +0.003 C 
ATOM     15  C   UNL     1      35.744 -21.055 -19.074  0.00  0.00    +0.068 C 
ATOM     16  C   UNL     1      33.536 -22.015 -19.277  0.00  0.00    +0.001 C 
ATOM     17  C   UNL     1      34.565 -21.232 -19.799  0.00  0.00    +0.012 C 
ENDBRANCH   5  12
BRANCH   4  18
ATOM     18  N   UNL     1      32.746 -23.962 -13.125  0.00  0.00    -0.316 N 
ATOM     19  H   UNL     1      32.679 -23.359 -12.350  0.00  0.00    +0.148 HD
BRANCH  18  20
ATOM     20  C   UNL     1      31.731 -24.966 -13.302  0.00  0.00    +0.115 C 
BRANCH  20  22
ATOM     21  N   UNL     1      28.449 -23.407 -15.598  0.00  0.00    -0.242 NA
ATOM     22  C   UNL     1      30.583 -24.420 -14.105  0.00  0.00    +0.000 C 
ATOM     23  C   UNL     1      30.287 -23.063 -14.066  0.00  0.00    +0.018 C 
ATOM     24  C   UNL     1      29.814 -25.272 -14.889  0.00  0.00    +0.018 C 
ATOM     25  C   UNL     1      29.220 -22.610 -14.824  0.00  0.00    +0.099 C 
ATOM     26  C   UNL     1      28.767 -24.720 -15.610  0.00  0.00    +0.099 C 
ENDBRANCH  20  22
ENDBRANCH  18  20
ENDBRANCH   4  18
TORSDOF 4
ENDMDL
MODEL 9
REMARK VINA RESULT:      -9.7      2.814      5.282
REMARK  Name = 21066087
REMARK  4 active torsions:
REMARK  status: ('A' for Active; 'I' for Inactive)
REMARK    1  A    between atoms: C_4  and  N_18
REMARK    2  A    between atoms: C_5  and  C_12
REMARK    3  A    between atoms: N_18  and  C_20
REMARK    4  A    between atoms: C_20  and  C_22
REMARK                            x       y       z     vdW  Elec       q    Type
REMARK                         _______ _______ _______ _____ _____    ______ ____
ROOT
ATOM      1  N   UNL     1      35.691 -23.039 -15.213  0.00  0.00    -0.152 N 
ATOM      2  N   UNL     1      33.889 -23.857 -13.840  0.00  0.00    -0.389 NA
ATOM      3  N   UNL     1      37.022 -22.762 -15.122  0.00  0.00    -0.174 NA
ATOM      4  C   UNL     1      34.858 -22.893 -16.334  0.00  0.00    +0.126 C 
ATOM      5  C   UNL     1      33.119 -23.736 -14.883  0.00  0.00    +0.136 C 
ATOM      6  C   UNL     1      35.195 -23.510 -13.997  0.00  0.00    +0.190 C 
ATOM      7  C   UNL     1      33.562 -23.226 -16.218  0.00  0.00    +0.064 C 
ATOM      8  C   UNL     1      36.256 -23.524 -13.120  0.00  0.00    +0.125 C 
ATOM      9  C   UNL     1      37.345 -23.057 -13.865  0.00  0.00    +0.101 C 
ENDROOT
BRANCH   5  12
ATOM     10 CL   UNL     1      31.146 -22.381 -16.774  0.00  0.00    -0.081 Cl
ATOM     11 CL   UNL     1      28.090 -23.287 -16.387  0.00  0.00    -0.081 Cl
ATOM     12  C   UNL     1      31.685 -24.108 -14.760  0.00  0.00    +0.041 C 
ATOM     13  C   UNL     1      30.697 -23.551 -15.572  0.00  0.00    +0.071 C 
ATOM     14  C   UNL     1      31.341 -25.050 -13.791  0.00  0.00    +0.003 C 
ATOM     15  C   UNL     1      29.365 -23.936 -15.415  0.00  0.00    +0.068 C 
ATOM     16  C   UNL     1      30.009 -25.434 -13.633  0.00  0.00    +0.001 C 
ATOM     17  C   UNL     1      29.022 -24.878 -14.445  0.00  0.00    +0.012 C 
ENDBRANCH   5  12
BRANCH   4  18
ATOM     18  N   UNL     1      35.422 -22.410 -17.481  0.00  0.00    -0.316 N 
ATOM     19  H   UNL     1      36.369 -22.144 -17.459  0.00  0.00    +0.148 HD
BRANCH  18  20
ATOM     20  C   UNL     1      34.702 -22.272 -18.719  0.00  0.00    +0.115 C 
BRANCH  20  22
ATOM     21  N   UNL     1      36.061 -18.813 -20.879  0.00  0.00    -0.242 NA
ATOM     22  C   UNL     1      35.178 -21.063 -19.474  0.00  0.00    +0.000 C 
ATOM     23  C   UNL     1      36.511 -20.677 -19.406  0.00  0.00    +0.018 C 
ATOM     24  C   UNL     1      34.285 -20.325 -20.243  0.00  0.00    +0.018 C 
ATOM     25  C   UNL     1      36.900 -19.556 -20.121  0.00  0.00    +0.099 C 
ATOM     26  C   UNL     1      34.773 -19.219 -20.920  0.00  0.00    +0.099 C 
ENDBRANCH  20  22
ENDBRANCH  18  20
ENDBRANCH   4  18
TORSDOF 4
ENDMDL
