MODEL 1
REMARK VINA RESULT:     -11.7      0.000      0.000
REMARK  Name = 6852168
REMARK  5 active torsions:
REMARK  status: ('A' for Active; 'I' for Inactive)
REMARK    1  A    between atoms: N_1  and  C_5
REMARK    2  A    between atoms: N_1  and  S_19
REMARK    3  A    between atoms: N_4  and  C_9
REMARK    4  A    between atoms: C_9  and  C_14
REMARK    5  A    between atoms: S_19  and  C_23
REMARK                            x       y       z     vdW  Elec       q    Type
REMARK                         _______ _______ _______ _____ _____    ______ ____
ROOT
ATOM      1  N   UNL     1      34.798 -17.305 -22.197  0.00  0.00    -0.172 NA
ATOM      2  H   UNL     1      34.705 -17.104 -21.202  0.00  0.00    +0.149 HD
ENDROOT
BRANCH   1   5
ATOM      3  O   UNL     1      34.900 -14.500 -21.043  0.00  0.00    -0.273 OA
ATOM      4  N   UNL     1      33.643 -14.471 -23.032  0.00  0.00    -0.272 N 
ATOM      5  C   UNL     1      35.322 -16.082 -22.830  0.00  0.00    +0.153 C 
ATOM      6  C   UNL     1      34.887 -15.981 -24.288  0.00  0.00    +0.048 C 
ATOM      7  C   UNL     1      33.548 -15.270 -24.232  0.00  0.00    +0.096 C 
ATOM      8  C   UNL     1      34.637 -14.917 -22.162  0.00  0.00    +0.242 C 
BRANCH   4   9
ATOM      9  C   UNL     1      32.682 -13.430 -22.739  0.00  0.00    +0.152 C 
ATOM     10  C   UNL     1      32.344 -13.355 -21.268  0.00  0.00    +0.031 C 
BRANCH   9  14
ATOM     11  O   UNL     1      31.223  -8.596 -22.745  0.00  0.00    -0.350 OA
ATOM     12  O   UNL     1      34.381 -12.230 -23.877  0.00  0.00    -0.273 OA
ATOM     13  N   UNL     1      32.748 -10.964 -22.818  0.00  0.00    -0.273 N 
ATOM     14  C   UNL     1      33.353 -12.160 -23.198  0.00  0.00    +0.244 C 
ATOM     15  C   UNL     1      31.603 -10.842 -21.909  0.00  0.00    +0.126 C 
ATOM     16  C   UNL     1      33.331  -9.686 -23.224  0.00  0.00    +0.126 C 
ATOM     17  C   UNL     1      30.591  -9.849 -22.466  0.00  0.00    +0.164 C 
ATOM     18  C   UNL     1      32.247  -8.746 -23.731  0.00  0.00    +0.164 C 
ENDBRANCH   9  14
ENDBRANCH   4   9
ENDBRANCH   1   5
BRANCH   1  19
ATOM     19  S   UNL     1      35.660 -18.768 -22.323  0.00  0.00    +0.061 S 
ATOM     20  O   UNL     1      37.038 -18.547 -21.928  0.00  0.00    -0.153 OA
ATOM     21  O   UNL     1      35.358 -19.388 -23.600  0.00  0.00    -0.153 OA
BRANCH  19  23
ATOM     22 CL   UNL     1      33.092 -23.719 -15.954  0.00  0.00    -0.082 Cl
ATOM     23  C   UNL     1      34.886 -19.753 -21.076  0.00  0.00    +0.122 C 
ATOM     24  C   UNL     1      35.676 -20.410 -20.148  0.00  0.00    +0.020 C 
ATOM     25  C   UNL     1      33.509 -19.849 -21.052  0.00  0.00    +0.020 C 
ATOM     26  C   UNL     1      35.076 -21.196 -19.151  0.00  0.00    +0.001 C 
ATOM     27  C   UNL     1      33.665 -21.305 -19.110  0.00  0.00    +0.001 C 
ATOM     28  C   UNL     1      32.896 -20.624 -20.068  0.00  0.00    +0.001 C 
ATOM     29  C   UNL     1      35.845 -21.876 -18.192  0.00  0.00    +0.001 C 
ATOM     30  C   UNL     1      33.066 -22.092 -18.113  0.00  0.00    +0.011 C 
ATOM     31  C   UNL     1      35.232 -22.653 -17.208  0.00  0.00    +0.011 C 
ATOM     32  C   UNL     1      33.845 -22.761 -17.169  0.00  0.00    +0.058 C 
ENDBRANCH  19  23
ENDBRANCH   1  19
TORSDOF 5
ENDMDL
MODEL 2
REMARK VINA RESULT:     -11.2      3.981      6.346
REMARK  Name = 6852168
REMARK  5 active torsions:
REMARK  status: ('A' for Active; 'I' for Inactive)
REMARK    1  A    between atoms: N_1  and  C_5
REMARK    2  A    between atoms: N_1  and  S_19
REMARK    3  A    between atoms: N_4  and  C_9
REMARK    4  A    between atoms: C_9  and  C_14
REMARK    5  A    between atoms: S_19  and  C_23
REMARK                            x       y       z     vdW  Elec       q    Type
REMARK                         _______ _______ _______ _____ _____    ______ ____
ROOT
ATOM      1  N   UNL     1      32.966 -11.333 -22.243  0.00  0.00    -0.172 NA
ATOM      2  H   UNL     1      33.636 -10.572 -22.133  0.00  0.00    +0.149 HD
ENDROOT
BRANCH   1   5
ATOM      3  O   UNL     1      31.983  -9.173 -24.136  0.00  0.00    -0.273 OA
ATOM      4  N   UNL     1      31.762  -8.415 -21.919  0.00  0.00    -0.272 N 
ATOM      5  C   UNL     1      31.629 -10.716 -22.300  0.00  0.00    +0.153 C 
ATOM      6  C   UNL     1      31.103 -10.401 -20.904  0.00  0.00    +0.048 C 
ATOM      7  C   UNL     1      31.633  -9.009 -20.609  0.00  0.00    +0.096 C 
ATOM      8  C   UNL     1      31.800  -9.362 -22.942  0.00  0.00    +0.242 C 
BRANCH   4   9
ATOM      9  C   UNL     1      31.988  -6.996 -22.086  0.00  0.00    +0.152 C 
ATOM     10  C   UNL     1      31.747  -6.221 -20.812  0.00  0.00    +0.031 C 
BRANCH   9  14
ATOM     11  O   UNL     1      34.209  -5.469 -26.356  0.00  0.00    -0.350 OA
ATOM     12  O   UNL     1      34.304  -7.425 -21.815  0.00  0.00    -0.273 OA
ATOM     13  N   UNL     1      33.689  -6.191 -23.683  0.00  0.00    -0.273 N 
ATOM     14  C   UNL     1      33.432  -6.893 -22.508  0.00  0.00    +0.244 C 
ATOM     15  C   UNL     1      32.696  -5.441 -24.459  0.00  0.00    +0.126 C 
ATOM     16  C   UNL     1      35.063  -6.047 -24.166  0.00  0.00    +0.126 C 
ATOM     17  C   UNL     1      32.864  -5.728 -25.946  0.00  0.00    +0.164 C 
ATOM     18  C   UNL     1      35.129  -6.315 -25.662  0.00  0.00    +0.164 C 
ENDBRANCH   9  14
ENDBRANCH   4   9
ENDBRANCH   1   5
BRANCH   1  19
ATOM     19  S   UNL     1      33.520 -12.292 -23.536  0.00  0.00    +0.061 S 
ATOM     20  O   UNL     1      34.681 -11.662 -24.135  0.00  0.00    -0.153 OA
ATOM     21  O   UNL     1      32.389 -12.671 -24.362  0.00  0.00    -0.153 OA
BRANCH  19  23
ATOM     22 CL   UNL     1      36.148 -19.799 -20.638  0.00  0.00    -0.082 Cl
ATOM     23  C   UNL     1      34.061 -13.751 -22.699  0.00  0.00    +0.122 C 
ATOM     24  C   UNL     1      34.331 -14.891 -23.436  0.00  0.00    +0.020 C 
ATOM     25  C   UNL     1      34.201 -13.727 -21.326  0.00  0.00    +0.020 C 
ATOM     26  C   UNL     1      34.762 -16.059 -22.785  0.00  0.00    +0.001 C 
ATOM     27  C   UNL     1      34.913 -16.052 -21.378  0.00  0.00    +0.001 C 
ATOM     28  C   UNL     1      34.628 -14.877 -20.663  0.00  0.00    +0.001 C 
ATOM     29  C   UNL     1      35.047 -17.234 -23.500  0.00  0.00    +0.001 C 
ATOM     30  C   UNL     1      35.343 -17.220 -20.727  0.00  0.00    +0.011 C 
ATOM     31  C   UNL     1      35.474 -18.385 -22.837  0.00  0.00    +0.011 C 
ATOM     32  C   UNL     1      35.621 -18.378 -21.453  0.00  0.00    +0.058 C 
ENDBRANCH  19  23
ENDBRANCH   1  19
TORSDOF 5
ENDMDL
MODEL 3
REMARK VINA RESULT:     -10.9      1.297      1.896
REMARK  Name = 6852168
REMARK  5 active torsions:
REMARK  status: ('A' for Active; 'I' for Inactive)
REMARK    1  A    between atoms: N_1  and  C_5
REMARK    2  A    between atoms: N_1  and  S_19
REMARK    3  A    between atoms: N_4  and  C_9
REMARK    4  A    between atoms: C_9  and  C_14
REMARK    5  A    between atoms: S_19  and  C_23
REMARK                            x       y       z     vdW  Elec       q    Type
REMARK                         _______ _______ _______ _____ _____    ______ ____
ROOT
ATOM      1  N   UNL     1      36.061 -16.892 -21.416  0.00  0.00    -0.172 NA
ATOM      2  H   UNL     1      36.489 -16.214 -22.047  0.00  0.00    +0.149 HD
ENDROOT
BRANCH   1   5
ATOM      3  O   UNL     1      34.117 -16.055 -23.591  0.00  0.00    -0.273 OA
ATOM      4  N   UNL     1      34.309 -14.316 -22.017  0.00  0.00    -0.272 N 
ATOM      5  C   UNL     1      34.648 -16.503 -21.269  0.00  0.00    +0.153 C 
ATOM      6  C   UNL     1      34.448 -15.581 -20.071  0.00  0.00    +0.048 C 
ATOM      7  C   UNL     1      34.679 -14.188 -20.627  0.00  0.00    +0.096 C 
ATOM      8  C   UNL     1      34.307 -15.639 -22.457  0.00  0.00    +0.242 C 
BRANCH   4   9
ATOM      9  C   UNL     1      34.129 -13.155 -22.861  0.00  0.00    +0.152 C 
ATOM     10  C   UNL     1      34.014 -13.518 -24.324  0.00  0.00    +0.031 C 
BRANCH   9  14
ATOM     11  O   UNL     1      32.504  -8.378 -22.683  0.00  0.00    -0.350 OA
ATOM     12  O   UNL     1      32.063 -13.204 -21.698  0.00  0.00    -0.273 OA
ATOM     13  N   UNL     1      32.642 -11.192 -22.701  0.00  0.00    -0.273 N 
ATOM     14  C   UNL     1      32.850 -12.528 -22.366  0.00  0.00    +0.244 C 
ATOM     15  C   UNL     1      33.490 -10.398 -23.596  0.00  0.00    +0.126 C 
ATOM     16  C   UNL     1      31.429 -10.505 -22.257  0.00  0.00    +0.126 C 
ATOM     17  C   UNL     1      33.743  -9.020 -22.997  0.00  0.00    +0.164 C 
ATOM     18  C   UNL     1      31.771  -9.126 -21.710  0.00  0.00    +0.164 C 
ENDBRANCH   9  14
ENDBRANCH   4   9
ENDBRANCH   1   5
BRANCH   1  19
ATOM     19  S   UNL     1      36.465 -18.436 -22.010  0.00  0.00    +0.061 S 
ATOM     20  O   UNL     1      37.872 -18.689 -21.768  0.00  0.00    -0.153 OA
ATOM     21  O   UNL     1      35.915 -18.589 -23.344  0.00  0.00    -0.153 OA
BRANCH  19  23
ATOM     22 CL   UNL     1      33.057 -23.730 -16.350  0.00  0.00    -0.082 Cl
ATOM     23  C   UNL     1      35.530 -19.490 -20.943  0.00  0.00    +0.122 C 
ATOM     24  C   UNL     1      36.183 -20.188 -19.941  0.00  0.00    +0.020 C 
ATOM     25  C   UNL     1      34.166 -19.598 -21.129  0.00  0.00    +0.020 C 
ATOM     26  C   UNL     1      35.454 -21.029 -19.085  0.00  0.00    +0.001 C 
ATOM     27  C   UNL     1      34.055 -21.152 -19.260  0.00  0.00    +0.001 C 
ATOM     28  C   UNL     1      33.426 -20.429 -20.288  0.00  0.00    +0.001 C 
ATOM     29  C   UNL     1      36.083 -21.751 -18.057  0.00  0.00    +0.001 C 
ATOM     30  C   UNL     1      33.327 -21.993 -18.404  0.00  0.00    +0.011 C 
ATOM     31  C   UNL     1      35.343 -22.582 -17.215  0.00  0.00    +0.011 C 
ATOM     32  C   UNL     1      33.968 -22.703 -17.389  0.00  0.00    +0.058 C 
ENDBRANCH  19  23
ENDBRANCH   1  19
TORSDOF 5
ENDMDL
MODEL 4
REMARK VINA RESULT:     -10.6      7.208     12.239
REMARK  Name = 6852168
REMARK  5 active torsions:
REMARK  status: ('A' for Active; 'I' for Inactive)
REMARK    1  A    between atoms: N_1  and  C_5
REMARK    2  A    between atoms: N_1  and  S_19
REMARK    3  A    between atoms: N_4  and  C_9
REMARK    4  A    between atoms: C_9  and  C_14
REMARK    5  A    between atoms: S_19  and  C_23
REMARK                            x       y       z     vdW  Elec       q    Type
REMARK                         _______ _______ _______ _____ _____    ______ ____
ROOT
ATOM      1  N   UNL     1      35.295 -22.992 -16.916  0.00  0.00    -0.172 NA
ATOM      2  H   UNL     1      35.763 -22.148 -17.245  0.00  0.00    +0.149 HD
ENDROOT
BRANCH   1   5
ATOM      3  O   UNL     1      37.622 -23.602 -15.065  0.00  0.00    -0.273 OA
ATOM      4  N   UNL     1      35.833 -25.043 -14.556  0.00  0.00    -0.272 N 
ATOM      5  C   UNL     1      35.320 -22.945 -15.443  0.00  0.00    +0.153 C 
ATOM      6  C   UNL     1      34.062 -23.565 -14.846  0.00  0.00    +0.048 C 
ATOM      7  C   UNL     1      34.397 -25.039 -14.713  0.00  0.00    +0.096 C 
ATOM      8  C   UNL     1      36.430 -23.863 -14.995  0.00  0.00    +0.242 C 
BRANCH   4   9
ATOM      9  C   UNL     1      36.543 -26.231 -14.133  0.00  0.00    +0.152 C 
ATOM     10  C   UNL     1      36.995 -27.078 -15.300  0.00  0.00    +0.031 C 
BRANCH   9  14
ATOM     11  O   UNL     1      36.965 -23.011 -10.267  0.00  0.00    -0.350 OA
ATOM     12  O   UNL     1      38.867 -25.900 -13.801  0.00  0.00    -0.273 OA
ATOM     13  N   UNL     1      37.452 -25.013 -12.189  0.00  0.00    -0.273 N 
ATOM     14  C   UNL     1      37.730 -25.705 -13.365  0.00  0.00    +0.244 C 
ATOM     15  C   UNL     1      36.126 -24.873 -11.577  0.00  0.00    +0.126 C 
ATOM     16  C   UNL     1      38.545 -24.465 -11.385  0.00  0.00    +0.126 C 
ATOM     17  C   UNL     1      35.904 -23.435 -11.126  0.00  0.00    +0.164 C 
ATOM     18  C   UNL     1      38.221 -23.044 -10.948  0.00  0.00    +0.164 C 
ENDBRANCH   9  14
ENDBRANCH   4   9
ENDBRANCH   1   5
BRANCH   1  19
ATOM     19  S   UNL     1      33.809 -23.084 -17.742  0.00  0.00    +0.061 S 
ATOM     20  O   UNL     1      32.733 -22.748 -16.829  0.00  0.00    -0.153 OA
ATOM     21  O   UNL     1      33.763 -24.321 -18.498  0.00  0.00    -0.153 OA
BRANCH  19  23
ATOM     22 CL   UNL     1      35.753 -16.838 -23.115  0.00  0.00    -0.082 Cl
ATOM     23  C   UNL     1      33.963 -21.769 -18.912  0.00  0.00    +0.122 C 
ATOM     24  C   UNL     1      35.219 -21.255 -19.189  0.00  0.00    +0.020 C 
ATOM     25  C   UNL     1      32.828 -21.277 -19.526  0.00  0.00    +0.020 C 
ATOM     26  C   UNL     1      35.358 -20.209 -20.116  0.00  0.00    +0.001 C 
ATOM     27  C   UNL     1      34.206 -19.694 -20.757  0.00  0.00    +0.001 C 
ATOM     28  C   UNL     1      32.948 -20.240 -20.450  0.00  0.00    +0.001 C 
ATOM     29  C   UNL     1      36.616 -19.665 -20.423  0.00  0.00    +0.001 C 
ATOM     30  C   UNL     1      34.345 -18.649 -21.683  0.00  0.00    +0.011 C 
ATOM     31  C   UNL     1      36.735 -18.626 -21.347  0.00  0.00    +0.011 C 
ATOM     32  C   UNL     1      35.602 -18.119 -21.975  0.00  0.00    +0.058 C 
ENDBRANCH  19  23
ENDBRANCH   1  19
TORSDOF 5
ENDMDL
MODEL 5
REMARK VINA RESULT:     -10.6      7.339     12.375
REMARK  Name = 6852168
REMARK  5 active torsions:
REMARK  status: ('A' for Active; 'I' for Inactive)
REMARK    1  A    between atoms: N_1  and  C_5
REMARK    2  A    between atoms: N_1  and  S_19
REMARK    3  A    between atoms: N_4  and  C_9
REMARK    4  A    between atoms: C_9  and  C_14
REMARK    5  A    between atoms: S_19  and  C_23
REMARK                            x       y       z     vdW  Elec       q    Type
REMARK                         _______ _______ _______ _____ _____    ______ ____
ROOT
ATOM      1  N   UNL     1      34.946 -23.303 -16.781  0.00  0.00    -0.172 NA
ATOM      2  H   UNL     1      35.722 -22.915 -17.316  0.00  0.00    +0.149 HD
ENDROOT
BRANCH   1   5
ATOM      3  O   UNL     1      37.157 -22.547 -14.844  0.00  0.00    -0.273 OA
ATOM      4  N   UNL     1      35.499 -23.754 -13.690  0.00  0.00    -0.272 N 
ATOM      5  C   UNL     1      34.838 -22.503 -15.548  0.00  0.00    +0.153 C 
ATOM      6  C   UNL     1      33.608 -22.896 -14.737  0.00  0.00    +0.048 C 
ATOM      7  C   UNL     1      34.090 -24.030 -13.851  0.00  0.00    +0.096 C 
ATOM      8  C   UNL     1      35.998 -22.897 -14.669  0.00  0.00    +0.242 C 
BRANCH   4   9
ATOM      9  C   UNL     1      36.295 -24.444 -12.699  0.00  0.00    +0.152 C 
ATOM     10  C   UNL     1      35.474 -24.901 -11.516  0.00  0.00    +0.031 C 
BRANCH   9  14
ATOM     11  O   UNL     1      40.999 -25.672 -14.064  0.00  0.00    -0.350 OA
ATOM     12  O   UNL     1      36.109 -26.408 -14.015  0.00  0.00    -0.273 OA
ATOM     13  N   UNL     1      38.257 -25.756 -13.423  0.00  0.00    -0.273 N 
ATOM     14  C   UNL     1      36.870 -25.626 -13.438  0.00  0.00    +0.244 C 
ATOM     15  C   UNL     1      39.180 -24.922 -12.644  0.00  0.00    +0.126 C 
ATOM     16  C   UNL     1      38.897 -26.872 -14.118  0.00  0.00    +0.126 C 
ATOM     17  C   UNL     1      40.373 -24.516 -13.501  0.00  0.00    +0.164 C 
ATOM     18  C   UNL     1      40.097 -26.381 -14.916  0.00  0.00    +0.164 C 
ENDBRANCH   9  14
ENDBRANCH   4   9
ENDBRANCH   1   5
BRANCH   1  19
ATOM     19  S   UNL     1      33.622 -23.412 -17.847  0.00  0.00    +0.061 S 
ATOM     20  O   UNL     1      32.391 -23.228 -17.101  0.00  0.00    -0.153 OA
ATOM     21  O   UNL     1      33.792 -24.576 -18.696  0.00  0.00    -0.153 OA
BRANCH  19  23
ATOM     22 CL   UNL     1      35.963 -16.771 -22.546  0.00  0.00    -0.082 Cl
ATOM     23  C   UNL     1      33.860 -21.989 -18.867  0.00  0.00    +0.122 C 
ATOM     24  C   UNL     1      35.147 -21.549 -19.122  0.00  0.00    +0.020 C 
ATOM     25  C   UNL     1      32.757 -21.342 -19.389  0.00  0.00    +0.020 C 
ATOM     26  C   UNL     1      35.353 -20.419 -19.931  0.00  0.00    +0.001 C 
ATOM     27  C   UNL     1      34.235 -19.744 -20.476  0.00  0.00    +0.001 C 
ATOM     28  C   UNL     1      32.943 -20.219 -20.194  0.00  0.00    +0.001 C 
ATOM     29  C   UNL     1      36.645 -19.945 -20.213  0.00  0.00    +0.001 C 
ATOM     30  C   UNL     1      34.440 -18.615 -21.284  0.00  0.00    +0.011 C 
ATOM     31  C   UNL     1      36.831 -18.821 -21.018  0.00  0.00    +0.011 C 
ATOM     32  C   UNL     1      35.730 -18.157 -21.553  0.00  0.00    +0.058 C 
ENDBRANCH  19  23
ENDBRANCH   1  19
TORSDOF 5
ENDMDL
MODEL 6
REMARK VINA RESULT:     -10.6      3.744      6.465
REMARK  Name = 6852168
REMARK  5 active torsions:
REMARK  status: ('A' for Active; 'I' for Inactive)
REMARK    1  A    between atoms: N_1  and  C_5
REMARK    2  A    between atoms: N_1  and  S_19
REMARK    3  A    between atoms: N_4  and  C_9
REMARK    4  A    between atoms: C_9  and  C_14
REMARK    5  A    between atoms: S_19  and  C_23
REMARK                            x       y       z     vdW  Elec       q    Type
REMARK                         _______ _______ _______ _____ _____    ______ ____
ROOT
ATOM      1  N   UNL     1      33.723 -21.550 -18.392  0.00  0.00    -0.172 NA
ATOM      2  H   UNL     1      34.671 -21.337 -18.085  0.00  0.00    +0.149 HD
ENDROOT
BRANCH   1   5
ATOM      3  O   UNL     1      36.123 -21.264 -20.227  0.00  0.00    -0.273 OA
ATOM      4  N   UNL     1      34.594 -19.534 -20.682  0.00  0.00    -0.272 N 
ATOM      5  C   UNL     1      33.744 -21.551 -19.866  0.00  0.00    +0.153 C 
ATOM      6  C   UNL     1      32.605 -20.713 -20.437  0.00  0.00    +0.048 C 
ATOM      7  C   UNL     1      33.176 -19.310 -20.520  0.00  0.00    +0.096 C 
ATOM      8  C   UNL     1      34.989 -20.811 -20.285  0.00  0.00    +0.242 C 
BRANCH   4   9
ATOM      9  C   UNL     1      35.489 -18.464 -21.065  0.00  0.00    +0.152 C 
ATOM     10  C   UNL     1      36.936 -18.795 -20.782  0.00  0.00    +0.031 C 
BRANCH   9  14
ATOM     11  O   UNL     1      33.941 -14.563 -23.872  0.00  0.00    -0.350 OA
ATOM     12  O   UNL     1      35.251 -19.294 -23.274  0.00  0.00    -0.273 OA
ATOM     13  N   UNL     1      35.066 -16.996 -23.003  0.00  0.00    -0.273 N 
ATOM     14  C   UNL     1      35.260 -18.297 -22.546  0.00  0.00    +0.244 C 
ATOM     15  C   UNL     1      35.197 -15.781 -22.191  0.00  0.00    +0.126 C 
ATOM     16  C   UNL     1      34.832 -16.745 -24.425  0.00  0.00    +0.126 C 
ATOM     17  C   UNL     1      34.038 -14.832 -22.471  0.00  0.00    +0.164 C 
ATOM     18  C   UNL     1      33.686 -15.761 -24.609  0.00  0.00    +0.164 C 
ENDBRANCH   9  14
ENDBRANCH   4   9
ENDBRANCH   1   5
BRANCH   1  19
ATOM     19  S   UNL     1      33.234 -22.944 -17.545  0.00  0.00    +0.061 S 
ATOM     20  O   UNL     1      33.392 -24.104 -18.401  0.00  0.00    -0.153 OA
ATOM     21  O   UNL     1      31.963 -22.683 -16.897  0.00  0.00    -0.153 OA
BRANCH  19  23
ATOM     22 CL   UNL     1      38.205 -23.942 -10.765  0.00  0.00    -0.082 Cl
ATOM     23  C   UNL     1      34.453 -23.038 -16.269  0.00  0.00    +0.122 C 
ATOM     24  C   UNL     1      34.121 -23.619 -15.058  0.00  0.00    +0.020 C 
ATOM     25  C   UNL     1      35.715 -22.528 -16.505  0.00  0.00    +0.020 C 
ATOM     26  C   UNL     1      35.079 -23.701 -14.034  0.00  0.00    +0.001 C 
ATOM     27  C   UNL     1      36.377 -23.185 -14.258  0.00  0.00    +0.001 C 
ATOM     28  C   UNL     1      36.679 -22.601 -15.500  0.00  0.00    +0.001 C 
ATOM     29  C   UNL     1      34.777 -24.286 -12.794  0.00  0.00    +0.001 C 
ATOM     30  C   UNL     1      37.335 -23.267 -13.234  0.00  0.00    +0.011 C 
ATOM     31  C   UNL     1      35.741 -24.359 -11.788  0.00  0.00    +0.011 C 
ATOM     32  C   UNL     1      37.017 -23.850 -12.008  0.00  0.00    +0.058 C 
ENDBRANCH  19  23
ENDBRANCH   1  19
TORSDOF 5
ENDMDL
MODEL 7
REMARK VINA RESULT:     -10.5      4.480     10.538
REMARK  Name = 6852168
REMARK  5 active torsions:
REMARK  status: ('A' for Active; 'I' for Inactive)
REMARK    1  A    between atoms: N_1  and  C_5
REMARK    2  A    between atoms: N_1  and  S_19
REMARK    3  A    between atoms: N_4  and  C_9
REMARK    4  A    between atoms: C_9  and  C_14
REMARK    5  A    between atoms: S_19  and  C_23
REMARK                            x       y       z     vdW  Elec       q    Type
REMARK                         _______ _______ _______ _____ _____    ______ ____
ROOT
ATOM      1  N   UNL     1      35.012 -19.453 -20.281  0.00  0.00    -0.172 NA
ATOM      2  H   UNL     1      34.123 -18.954 -20.309  0.00  0.00    +0.149 HD
ENDROOT
BRANCH   1   5
ATOM      3  O   UNL     1      32.409 -20.872 -19.629  0.00  0.00    -0.273 OA
ATOM      4  N   UNL     1      34.147 -21.825 -18.360  0.00  0.00    -0.272 N 
ATOM      5  C   UNL     1      34.698 -20.886 -20.426  0.00  0.00    +0.153 C 
ATOM      6  C   UNL     1      35.851 -21.758 -19.940  0.00  0.00    +0.048 C 
ATOM      7  C   UNL     1      35.583 -21.942 -18.458  0.00  0.00    +0.096 C 
ATOM      8  C   UNL     1      33.579 -21.187 -19.461  0.00  0.00    +0.242 C 
BRANCH   4   9
ATOM      9  C   UNL     1      33.439 -22.199 -17.154  0.00  0.00    +0.152 C 
ATOM     10  C   UNL     1      31.944 -22.266 -17.362  0.00  0.00    +0.031 C 
BRANCH   9  14
ATOM     11  O   UNL     1      36.871 -23.733 -13.783  0.00  0.00    -0.350 OA
ATOM     12  O   UNL     1      33.753 -24.517 -17.541  0.00  0.00    -0.273 OA
ATOM     13  N   UNL     1      34.754 -23.637 -15.640  0.00  0.00    -0.273 N 
ATOM     14  C   UNL     1      33.991 -23.557 -16.802  0.00  0.00    +0.244 C 
ATOM     15  C   UNL     1      34.949 -22.550 -14.675  0.00  0.00    +0.126 C 
ATOM     16  C   UNL     1      35.331 -24.917 -15.228  0.00  0.00    +0.126 C 
ATOM     17  C   UNL     1      36.414 -22.466 -14.265  0.00  0.00    +0.164 C 
ATOM     18  C   UNL     1      36.780 -24.732 -14.801  0.00  0.00    +0.164 C 
ENDBRANCH   9  14
ENDBRANCH   4   9
ENDBRANCH   1   5
BRANCH   1  19
ATOM     19  S   UNL     1      36.040 -18.687 -21.402  0.00  0.00    +0.061 S 
ATOM     20  O   UNL     1      35.908 -19.335 -22.693  0.00  0.00    -0.153 OA
ATOM     21  O   UNL     1      37.350 -18.516 -20.802  0.00  0.00    -0.153 OA
BRANCH  19  23
ATOM     22 CL   UNL     1      32.514 -11.198 -23.178  0.00  0.00    -0.082 Cl
ATOM     23  C   UNL     1      35.313 -17.081 -21.520  0.00  0.00    +0.122 C 
ATOM     24  C   UNL     1      34.956 -16.591 -22.765  0.00  0.00    +0.020 C 
ATOM     25  C   UNL     1      35.117 -16.344 -20.369  0.00  0.00    +0.020 C 
ATOM     26  C   UNL     1      34.377 -15.316 -22.875  0.00  0.00    +0.001 C 
ATOM     27  C   UNL     1      34.167 -14.547 -21.706  0.00  0.00    +0.001 C 
ATOM     28  C   UNL     1      34.542 -15.076 -20.460  0.00  0.00    +0.001 C 
ATOM     29  C   UNL     1      34.002 -14.788 -24.121  0.00  0.00    +0.001 C 
ATOM     30  C   UNL     1      33.589 -13.272 -21.817  0.00  0.00    +0.011 C 
ATOM     31  C   UNL     1      33.428 -13.519 -24.213  0.00  0.00    +0.011 C 
ATOM     32  C   UNL     1      33.222 -12.763 -23.063  0.00  0.00    +0.058 C 
ENDBRANCH  19  23
ENDBRANCH   1  19
TORSDOF 5
ENDMDL
MODEL 8
REMARK VINA RESULT:     -10.4      5.364      7.836
REMARK  Name = 6852168
REMARK  5 active torsions:
REMARK  status: ('A' for Active; 'I' for Inactive)
REMARK    1  A    between atoms: N_1  and  C_5
REMARK    2  A    between atoms: N_1  and  S_19
REMARK    3  A    between atoms: N_4  and  C_9
REMARK    4  A    between atoms: C_9  and  C_14
REMARK    5  A    between atoms: S_19  and  C_23
REMARK                            x       y       z     vdW  Elec       q    Type
REMARK                         _______ _______ _______ _____ _____    ______ ____
ROOT
ATOM      1  N   UNL     1      32.327  -9.476 -20.507  0.00  0.00    -0.172 NA
ATOM      2  H   UNL     1      33.097  -9.812 -21.086  0.00  0.00    +0.149 HD
ENDROOT
BRANCH   1   5
ATOM      3  O   UNL     1      32.651  -8.834 -23.455  0.00  0.00    -0.273 OA
ATOM      4  N   UNL     1      33.120  -6.906 -22.190  0.00  0.00    -0.272 N 
ATOM      5  C   UNL     1      31.617  -8.455 -21.296  0.00  0.00    +0.153 C 
ATOM      6  C   UNL     1      31.506  -7.140 -20.532  0.00  0.00    +0.048 C 
ATOM      7  C   UNL     1      32.781  -6.394 -20.882  0.00  0.00    +0.096 C 
ATOM      8  C   UNL     1      32.499  -8.121 -22.473  0.00  0.00    +0.242 C 
BRANCH   4   9
ATOM      9  C   UNL     1      34.126  -6.271 -23.012  0.00  0.00    +0.152 C 
ATOM     10  C   UNL     1      35.265  -7.204 -23.353  0.00  0.00    +0.031 C 
BRANCH   9  14
ATOM     11  O   UNL     1      30.214  -3.177 -23.799  0.00  0.00    -0.350 OA
ATOM     12  O   UNL     1      33.581  -6.469 -25.311  0.00  0.00    -0.273 OA
ATOM     13  N   UNL     1      32.504  -4.785 -24.131  0.00  0.00    -0.273 N 
ATOM     14  C   UNL     1      33.385  -5.856 -24.258  0.00  0.00    +0.244 C 
ATOM     15  C   UNL     1      32.343  -3.955 -22.932  0.00  0.00    +0.126 C 
ATOM     16  C   UNL     1      31.741  -4.321 -25.289  0.00  0.00    +0.126 C 
ATOM     17  C   UNL     1      30.864  -3.722 -22.648  0.00  0.00    +0.164 C 
ATOM     18  C   UNL     1      30.289  -4.079 -24.906  0.00  0.00    +0.164 C 
ENDBRANCH   9  14
ENDBRANCH   4   9
ENDBRANCH   1   5
BRANCH   1  19
ATOM     19  S   UNL     1      31.496 -10.854 -19.948  0.00  0.00    +0.061 S 
ATOM     20  O   UNL     1      30.120 -10.799 -20.402  0.00  0.00    -0.153 OA
ATOM     21  O   UNL     1      31.792 -11.046 -18.541  0.00  0.00    -0.153 OA
BRANCH  19  23
ATOM     22 CL   UNL     1      35.734 -17.486 -23.066  0.00  0.00    -0.082 Cl
ATOM     23  C   UNL     1      32.311 -12.150 -20.829  0.00  0.00    +0.122 C 
ATOM     24  C   UNL     1      32.991 -13.125 -20.120  0.00  0.00    +0.020 C 
ATOM     25  C   UNL     1      32.256 -12.165 -22.209  0.00  0.00    +0.020 C 
ATOM     26  C   UNL     1      33.644 -14.163 -20.806  0.00  0.00    +0.001 C 
ATOM     27  C   UNL     1      33.597 -14.195 -22.220  0.00  0.00    +0.001 C 
ATOM     28  C   UNL     1      32.898 -13.188 -22.906  0.00  0.00    +0.001 C 
ATOM     29  C   UNL     1      34.342 -15.170 -20.119  0.00  0.00    +0.001 C 
ATOM     30  C   UNL     1      34.250 -15.232 -22.905  0.00  0.00    +0.011 C 
ATOM     31  C   UNL     1      34.985 -16.193 -20.817  0.00  0.00    +0.011 C 
ATOM     32  C   UNL     1      34.940 -16.223 -22.207  0.00  0.00    +0.058 C 
ENDBRANCH  19  23
ENDBRANCH   1  19
TORSDOF 5
ENDMDL
MODEL 9
REMARK VINA RESULT:     -10.4      5.331      7.810
REMARK  Name = 6852168
REMARK  5 active torsions:
REMARK  status: ('A' for Active; 'I' for Inactive)
REMARK    1  A    between atoms: N_1  and  C_5
REMARK    2  A    between atoms: N_1  and  S_19
REMARK    3  A    between atoms: N_4  and  C_9
REMARK    4  A    between atoms: C_9  and  C_14
REMARK    5  A    between atoms: S_19  and  C_23
REMARK                            x       y       z     vdW  Elec       q    Type
REMARK                         _______ _______ _______ _____ _____    ______ ____
ROOT
ATOM      1  N   UNL     1      32.245  -9.782 -21.774  0.00  0.00    -0.172 NA
ATOM      2  H   UNL     1      33.177 -10.168 -21.628  0.00  0.00    +0.149 HD
ENDROOT
BRANCH   1   5
ATOM      3  O   UNL     1      34.507  -8.853 -23.571  0.00  0.00    -0.273 OA
ATOM      4  N   UNL     1      32.876  -7.162 -23.446  0.00  0.00    -0.272 N 
ATOM      5  C   UNL     1      32.171  -9.373 -23.188  0.00  0.00    +0.153 C 
ATOM      6  C   UNL     1      30.962  -8.482 -23.445  0.00  0.00    +0.048 C 
ATOM      7  C   UNL     1      31.463  -7.078 -23.159  0.00  0.00    +0.096 C 
ATOM      8  C   UNL     1      33.352  -8.472 -23.443  0.00  0.00    +0.242 C 
BRANCH   4   9
ATOM      9  C   UNL     1      33.696  -5.975 -23.558  0.00  0.00    +0.152 C 
ATOM     10  C   UNL     1      35.130  -6.297 -23.909  0.00  0.00    +0.031 C 
BRANCH   9  14
ATOM     11  O   UNL     1      30.137  -2.393 -23.532  0.00  0.00    -0.350 OA
ATOM     12  O   UNL     1      33.218  -5.504 -25.832  0.00  0.00    -0.273 OA
ATOM     13  N   UNL     1      32.269  -4.087 -24.257  0.00  0.00    -0.273 N 
ATOM     14  C   UNL     1      33.045  -5.172 -24.656  0.00  0.00    +0.244 C 
ATOM     15  C   UNL     1      32.146  -3.589 -22.883  0.00  0.00    +0.126 C 
ATOM     16  C   UNL     1      31.598  -3.257 -25.258  0.00  0.00    +0.126 C 
ATOM     17  C   UNL     1      30.687  -3.287 -22.561  0.00  0.00    +0.164 C 
ATOM     18  C   UNL     1      30.163  -2.975 -24.838  0.00  0.00    +0.164 C 
ENDBRANCH   9  14
ENDBRANCH   4   9
ENDBRANCH   1   5
BRANCH   1  19
ATOM     19  S   UNL     1      31.140 -10.922 -21.156  0.00  0.00    +0.061 S 
ATOM     20  O   UNL     1      30.109 -11.173 -22.144  0.00  0.00    -0.153 OA
ATOM     21  O   UNL     1      30.777 -10.544 -19.803  0.00  0.00    -0.153 OA
BRANCH  19  23
ATOM     22 CL   UNL     1      36.149 -17.719 -21.780  0.00  0.00    -0.082 Cl
ATOM     23  C   UNL     1      32.145 -12.371 -21.035  0.00  0.00    +0.122 C 
ATOM     24  C   UNL     1      32.772 -12.854 -22.170  0.00  0.00    +0.020 C 
ATOM     25  C   UNL     1      32.283 -12.995 -19.810  0.00  0.00    +0.020 C 
ATOM     26  C   UNL     1      33.574 -14.005 -22.090  0.00  0.00    +0.001 C 
ATOM     27  C   UNL     1      33.728 -14.656 -20.844  0.00  0.00    +0.001 C 
ATOM     28  C   UNL     1      33.075 -14.137 -19.713  0.00  0.00    +0.001 C 
ATOM     29  C   UNL     1      34.227 -14.522 -23.221  0.00  0.00    +0.001 C 
ATOM     30  C   UNL     1      34.529 -15.807 -20.764  0.00  0.00    +0.011 C 
ATOM     31  C   UNL     1      35.020 -15.666 -23.123  0.00  0.00    +0.011 C 
ATOM     32  C   UNL     1      35.170 -16.307 -21.897  0.00  0.00    +0.058 C 
ENDBRANCH  19  23
ENDBRANCH   1  19
TORSDOF 5
ENDMDL
