MODEL 1
REMARK VINA RESULT:     -10.8      0.000      0.000
REMARK  Name = 6914633
REMARK  5 active torsions:
REMARK  status: ('A' for Active; 'I' for Inactive)
REMARK    1  A    between atoms: C_1  and  C_11
REMARK    2  A    between atoms: C_2  and  N_21
REMARK    3  A    between atoms: C_12  and  C_19
REMARK    4  A    between atoms: N_21  and  C_23
REMARK    5  A    between atoms: C_23  and  C_26
REMARK                            x       y       z     vdW  Elec       q    Type
REMARK                         _______ _______ _______ _____ _____    ______ ____
ROOT
ATOM      1  C   UNL     1      35.309 -18.787 -21.465  0.00  0.00    -0.008 C 
ATOM      2  C   UNL     1      36.071 -20.660 -19.544  0.00  0.00    +0.045 C 
ATOM      3  C   UNL     1      36.637 -18.849 -21.041  0.00  0.00    -0.002 C 
ATOM      4  C   UNL     1      34.364 -19.660 -20.930  0.00  0.00    -0.002 C 
ATOM      5  C   UNL     1      37.018 -19.786 -20.080  0.00  0.00    +0.014 C 
ATOM      6  C   UNL     1      34.745 -20.597 -19.969  0.00  0.00    +0.014 C 
ENDROOT
BRANCH   1  11
ATOM      7  N   UNL     1      34.405 -15.538 -23.058  0.00  0.00    -0.337 NA
ATOM      8  N   UNL     1      34.286 -17.276 -24.725  0.00  0.00    -0.317 NA
ATOM      9  N   UNL     1      34.782 -19.518 -24.162  0.00  0.00    -0.335 N 
ATOM     10  N   UNL     1      33.797 -15.047 -25.270  0.00  0.00    -0.283 N 
ATOM     11  C   UNL     1      34.915 -17.817 -22.463  0.00  0.00    +0.138 C 
ATOM     12  C   UNL     1      34.771 -16.477 -22.160  0.00  0.00    +0.112 C 
ATOM     13  C   UNL     1      34.655 -18.160 -23.775  0.00  0.00    +0.178 C 
ATOM     14  C   UNL     1      34.181 -16.000 -24.303  0.00  0.00    +0.196 C 
ATOM     15  H   UNL     1      34.601 -19.783 -25.093  0.00  0.00    +0.144 HD
ATOM     16  H   UNL     1      35.050 -20.195 -23.500  0.00  0.00    +0.144 HD
ATOM     17  H   UNL     1      33.705 -14.099 -25.017  0.00  0.00    +0.156 HD
ATOM     18  H   UNL     1      33.621 -15.328 -26.197  0.00  0.00    +0.156 HD
BRANCH  12  19
ATOM     19  C   UNL     1      35.021 -15.972 -20.776  0.00  0.00    +0.056 C 
ATOM     20  C   UNL     1      34.471 -14.564 -20.568  0.00  0.00    +0.008 C 
ENDBRANCH  12  19
ENDBRANCH   1  11
BRANCH   2  21
ATOM     21  N   UNL     1      36.456 -21.607 -18.572  0.00  0.00    -0.329 N 
ATOM     22  H   UNL     1      36.418 -22.563 -18.805  0.00  0.00    +0.147 HD
BRANCH  21  23
ATOM     23  C   UNL     1      36.900 -21.240 -17.262  0.00  0.00    +0.114 C 
BRANCH  23  26
ATOM     24  F   UNL     1      38.338 -24.358 -13.813  0.00  0.00    -0.204 F 
ATOM     25  F   UNL     1      33.753 -24.172 -14.982  0.00  0.00    -0.204 F 
ATOM     26  C   UNL     1      36.597 -22.310 -16.248  0.00  0.00    +0.002 C 
ATOM     27  C   UNL     1      35.291 -22.749 -16.086  0.00  0.00    +0.027 C 
ATOM     28  C   UNL     1      37.629 -22.844 -15.490  0.00  0.00    +0.027 C 
ATOM     29  C   UNL     1      37.350 -23.836 -14.550  0.00  0.00    +0.142 C 
ATOM     30  C   UNL     1      35.010 -23.741 -15.146  0.00  0.00    +0.142 C 
ATOM     31  C   UNL     1      36.040 -24.285 -14.379  0.00  0.00    +0.059 C 
ENDBRANCH  23  26
ENDBRANCH  21  23
ENDBRANCH   2  21
TORSDOF 5
ENDMDL
MODEL 2
REMARK VINA RESULT:     -10.8      4.066      6.837
REMARK  Name = 6914633
REMARK  5 active torsions:
REMARK  status: ('A' for Active; 'I' for Inactive)
REMARK    1  A    between atoms: C_1  and  C_11
REMARK    2  A    between atoms: C_2  and  N_21
REMARK    3  A    between atoms: C_12  and  C_19
REMARK    4  A    between atoms: N_21  and  C_23
REMARK    5  A    between atoms: C_23  and  C_26
REMARK                            x       y       z     vdW  Elec       q    Type
REMARK                         _______ _______ _______ _____ _____    ______ ____
ROOT
ATOM      1  C   UNL     1      33.645 -13.391 -23.208  0.00  0.00    -0.008 C 
ATOM      2  C   UNL     1      34.462 -15.945 -23.975  0.00  0.00    +0.045 C 
ATOM      3  C   UNL     1      34.595 -14.076 -22.449  0.00  0.00    -0.002 C 
ATOM      4  C   UNL     1      33.105 -13.981 -24.349  0.00  0.00    -0.002 C 
ATOM      5  C   UNL     1      35.003 -15.353 -22.833  0.00  0.00    +0.014 C 
ATOM      6  C   UNL     1      33.513 -15.259 -24.733  0.00  0.00    +0.014 C 
ENDROOT
BRANCH   1  11
ATOM      7  N   UNL     1      31.830 -10.650 -21.446  0.00  0.00    -0.337 NA
ATOM      8  N   UNL     1      33.379  -9.669 -23.012  0.00  0.00    -0.317 NA
ATOM      9  N   UNL     1      34.756 -11.040 -24.360  0.00  0.00    -0.335 N 
ATOM     10  N   UNL     1      32.008  -8.321 -21.667  0.00  0.00    -0.283 N 
ATOM     11  C   UNL     1      33.223 -12.065 -22.811  0.00  0.00    +0.138 C 
ATOM     12  C   UNL     1      32.254 -11.867 -21.847  0.00  0.00    +0.112 C 
ATOM     13  C   UNL     1      33.755 -10.916 -23.363  0.00  0.00    +0.178 C 
ATOM     14  C   UNL     1      32.426  -9.610 -22.061  0.00  0.00    +0.196 C 
ATOM     15  H   UNL     1      35.147 -10.233 -24.766  0.00  0.00    +0.144 HD
ATOM     16  H   UNL     1      35.058 -11.932 -24.645  0.00  0.00    +0.144 HD
ATOM     17  H   UNL     1      31.315  -8.218 -20.975  0.00  0.00    +0.156 HD
ATOM     18  H   UNL     1      32.411  -7.524 -22.083  0.00  0.00    +0.156 HD
BRANCH  12  19
ATOM     19  C   UNL     1      31.597 -13.026 -21.170  0.00  0.00    +0.056 C 
ATOM     20  C   UNL     1      32.269 -13.377 -19.845  0.00  0.00    +0.008 C 
ENDBRANCH  12  19
ENDBRANCH   1  11
BRANCH   2  21
ATOM     21  N   UNL     1      34.874 -17.237 -24.364  0.00  0.00    -0.329 N 
ATOM     22  H   UNL     1      35.621 -17.322 -24.998  0.00  0.00    +0.147 HD
BRANCH  21  23
ATOM     23  C   UNL     1      34.253 -18.430 -23.875  0.00  0.00    +0.114 C 
BRANCH  23  26
ATOM     24  F   UNL     1      38.101 -18.805 -20.919  0.00  0.00    -0.204 F 
ATOM     25  F   UNL     1      33.993 -20.764 -19.611  0.00  0.00    -0.204 F 
ATOM     26  C   UNL     1      34.888 -18.908 -22.597  0.00  0.00    +0.002 C 
ATOM     27  C   UNL     1      34.129 -19.626 -21.683  0.00  0.00    +0.027 C 
ATOM     28  C   UNL     1      36.224 -18.627 -22.351  0.00  0.00    +0.027 C 
ATOM     29  C   UNL     1      36.813 -19.071 -21.167  0.00  0.00    +0.142 C 
ATOM     30  C   UNL     1      34.717 -20.070 -20.499  0.00  0.00    +0.142 C 
ATOM     31  C   UNL     1      36.060 -19.794 -20.241  0.00  0.00    +0.059 C 
ENDBRANCH  23  26
ENDBRANCH  21  23
ENDBRANCH   2  21
TORSDOF 5
ENDMDL
MODEL 3
REMARK VINA RESULT:     -10.8      4.086      7.042
REMARK  Name = 6914633
REMARK  5 active torsions:
REMARK  status: ('A' for Active; 'I' for Inactive)
REMARK    1  A    between atoms: C_1  and  C_11
REMARK    2  A    between atoms: C_2  and  N_21
REMARK    3  A    between atoms: C_12  and  C_19
REMARK    4  A    between atoms: N_21  and  C_23
REMARK    5  A    between atoms: C_23  and  C_26
REMARK                            x       y       z     vdW  Elec       q    Type
REMARK                         _______ _______ _______ _____ _____    ______ ____
ROOT
ATOM      1  C   UNL     1      33.644 -13.364 -23.195  0.00  0.00    -0.008 C 
ATOM      2  C   UNL     1      34.468 -15.910 -23.981  0.00  0.00    +0.045 C 
ATOM      3  C   UNL     1      33.103 -13.949 -24.340  0.00  0.00    -0.002 C 
ATOM      4  C   UNL     1      34.595 -14.052 -22.443  0.00  0.00    -0.002 C 
ATOM      5  C   UNL     1      33.515 -15.222 -24.733  0.00  0.00    +0.014 C 
ATOM      6  C   UNL     1      35.008 -15.325 -22.836  0.00  0.00    +0.014 C 
ENDROOT
BRANCH   1  11
ATOM      7  N   UNL     1      31.816 -10.650 -21.407  0.00  0.00    -0.337 NA
ATOM      8  N   UNL     1      33.356  -9.647 -22.966  0.00  0.00    -0.317 NA
ATOM      9  N   UNL     1      34.738 -10.998 -24.329  0.00  0.00    -0.335 N 
ATOM     10  N   UNL     1      31.980  -8.318 -21.608  0.00  0.00    -0.283 N 
ATOM     11  C   UNL     1      33.215 -12.045 -22.786  0.00  0.00    +0.138 C 
ATOM     12  C   UNL     1      32.246 -11.861 -21.819  0.00  0.00    +0.112 C 
ATOM     13  C   UNL     1      33.739 -10.888 -23.329  0.00  0.00    +0.178 C 
ATOM     14  C   UNL     1      32.405  -9.601 -22.013  0.00  0.00    +0.196 C 
ATOM     15  H   UNL     1      35.125 -10.185 -24.728  0.00  0.00    +0.144 HD
ATOM     16  H   UNL     1      35.046 -11.885 -24.622  0.00  0.00    +0.144 HD
ATOM     17  H   UNL     1      31.287  -8.225 -20.914  0.00  0.00    +0.156 HD
ATOM     18  H   UNL     1      32.377  -7.515 -22.018  0.00  0.00    +0.156 HD
BRANCH  12  19
ATOM     19  C   UNL     1      31.596 -13.029 -21.150  0.00  0.00    +0.056 C 
ATOM     20  C   UNL     1      32.272 -13.388 -19.830  0.00  0.00    +0.008 C 
ENDBRANCH  12  19
ENDBRANCH   1  11
BRANCH   2  21
ATOM     21  N   UNL     1      34.886 -17.197 -24.379  0.00  0.00    -0.329 N 
ATOM     22  H   UNL     1      35.633 -17.275 -25.014  0.00  0.00    +0.147 HD
BRANCH  21  23
ATOM     23  C   UNL     1      34.271 -18.397 -23.898  0.00  0.00    +0.114 C 
BRANCH  23  26
ATOM     24  F   UNL     1      34.010 -20.727 -19.633  0.00  0.00    -0.204 F 
ATOM     25  F   UNL     1      38.130 -18.804 -20.959  0.00  0.00    -0.204 F 
ATOM     26  C   UNL     1      34.908 -18.882 -22.624  0.00  0.00    +0.002 C 
ATOM     27  C   UNL     1      36.247 -18.611 -22.383  0.00  0.00    +0.027 C 
ATOM     28  C   UNL     1      34.146 -19.592 -21.707  0.00  0.00    +0.027 C 
ATOM     29  C   UNL     1      34.736 -20.041 -20.525  0.00  0.00    +0.142 C 
ATOM     30  C   UNL     1      36.838 -19.060 -21.201  0.00  0.00    +0.142 C 
ATOM     31  C   UNL     1      36.082 -19.774 -20.272  0.00  0.00    +0.059 C 
ENDBRANCH  23  26
ENDBRANCH  21  23
ENDBRANCH   2  21
TORSDOF 5
ENDMDL
MODEL 4
REMARK VINA RESULT:     -10.5      4.179      7.271
REMARK  Name = 6914633
REMARK  5 active torsions:
REMARK  status: ('A' for Active; 'I' for Inactive)
REMARK    1  A    between atoms: C_1  and  C_11
REMARK    2  A    between atoms: C_2  and  N_21
REMARK    3  A    between atoms: C_12  and  C_19
REMARK    4  A    between atoms: N_21  and  C_23
REMARK    5  A    between atoms: C_23  and  C_26
REMARK                            x       y       z     vdW  Elec       q    Type
REMARK                         _______ _______ _______ _____ _____    ______ ____
ROOT
ATOM      1  C   UNL     1      33.499 -13.143 -23.050  0.00  0.00    -0.008 C 
ATOM      2  C   UNL     1      34.528 -15.618 -23.820  0.00  0.00    +0.045 C 
ATOM      3  C   UNL     1      33.093 -13.724 -24.252  0.00  0.00    -0.002 C 
ATOM      4  C   UNL     1      34.419 -13.800 -22.234  0.00  0.00    -0.002 C 
ATOM      5  C   UNL     1      33.607 -14.961 -24.637  0.00  0.00    +0.014 C 
ATOM      6  C   UNL     1      34.934 -15.038 -22.619  0.00  0.00    +0.014 C 
ENDROOT
BRANCH   1  11
ATOM      7  N   UNL     1      33.018  -9.455 -22.779  0.00  0.00    -0.337 NA
ATOM      8  N   UNL     1      31.387 -10.552 -21.383  0.00  0.00    -0.317 NA
ATOM      9  N   UNL     1      31.316 -12.911 -21.242  0.00  0.00    -0.335 N 
ATOM     10  N   UNL     1      31.468  -8.211 -21.532  0.00  0.00    -0.283 N 
ATOM     11  C   UNL     1      32.964 -11.860 -22.650  0.00  0.00    +0.138 C 
ATOM     12  C   UNL     1      33.485 -10.673 -23.125  0.00  0.00    +0.112 C 
ATOM     13  C   UNL     1      31.905 -11.735 -21.773  0.00  0.00    +0.178 C 
ATOM     14  C   UNL     1      31.983  -9.468 -21.917  0.00  0.00    +0.196 C 
ATOM     15  H   UNL     1      30.560 -12.843 -20.616  0.00  0.00    +0.144 HD
ATOM     16  H   UNL     1      31.664 -13.794 -21.502  0.00  0.00    +0.144 HD
ATOM     17  H   UNL     1      31.865  -7.385 -21.892  0.00  0.00    +0.156 HD
ATOM     18  H   UNL     1      30.710  -8.161 -20.905  0.00  0.00    +0.156 HD
BRANCH  12  19
ATOM     19  C   UNL     1      34.634 -10.667 -24.081  0.00  0.00    +0.056 C 
ATOM     20  C   UNL     1      35.544  -9.458 -23.881  0.00  0.00    +0.008 C 
ENDBRANCH  12  19
ENDBRANCH   1  11
BRANCH   2  21
ATOM     21  N   UNL     1      35.049 -16.870 -24.210  0.00  0.00    -0.329 N 
ATOM     22  H   UNL     1      35.902 -16.893 -24.700  0.00  0.00    +0.147 HD
BRANCH  21  23
ATOM     23  C   UNL     1      34.393 -18.108 -23.922  0.00  0.00    +0.114 C 
BRANCH  23  26
ATOM     24  F   UNL     1      33.686 -20.812 -19.936  0.00  0.00    -0.204 F 
ATOM     25  F   UNL     1      37.951 -18.898 -20.694  0.00  0.00    -0.204 F 
ATOM     26  C   UNL     1      34.898 -18.727 -22.646  0.00  0.00    +0.002 C 
ATOM     27  C   UNL     1      36.214 -18.519 -22.259  0.00  0.00    +0.027 C 
ATOM     28  C   UNL     1      34.039 -19.495 -21.873  0.00  0.00    +0.027 C 
ATOM     29  C   UNL     1      34.506 -20.068 -20.690  0.00  0.00    +0.142 C 
ATOM     30  C   UNL     1      36.682 -19.092 -21.077  0.00  0.00    +0.142 C 
ATOM     31  C   UNL     1      35.828 -19.866 -20.291  0.00  0.00    +0.059 C 
ENDBRANCH  23  26
ENDBRANCH  21  23
ENDBRANCH   2  21
TORSDOF 5
ENDMDL
MODEL 5
REMARK VINA RESULT:     -10.5      4.177      7.115
REMARK  Name = 6914633
REMARK  5 active torsions:
REMARK  status: ('A' for Active; 'I' for Inactive)
REMARK    1  A    between atoms: C_1  and  C_11
REMARK    2  A    between atoms: C_2  and  N_21
REMARK    3  A    between atoms: C_12  and  C_19
REMARK    4  A    between atoms: N_21  and  C_23
REMARK    5  A    between atoms: C_23  and  C_26
REMARK                            x       y       z     vdW  Elec       q    Type
REMARK                         _______ _______ _______ _____ _____    ______ ____
ROOT
ATOM      1  C   UNL     1      33.497 -13.152 -23.071  0.00  0.00    -0.008 C 
ATOM      2  C   UNL     1      34.534 -15.628 -23.826  0.00  0.00    +0.045 C 
ATOM      3  C   UNL     1      33.087 -13.745 -24.265  0.00  0.00    -0.002 C 
ATOM      4  C   UNL     1      34.425 -13.796 -22.254  0.00  0.00    -0.002 C 
ATOM      5  C   UNL     1      33.605 -14.983 -24.643  0.00  0.00    +0.014 C 
ATOM      6  C   UNL     1      34.944 -15.035 -22.632  0.00  0.00    +0.014 C 
ENDROOT
BRANCH   1  11
ATOM      7  N   UNL     1      33.006  -9.463 -22.819  0.00  0.00    -0.337 NA
ATOM      8  N   UNL     1      31.374 -10.557 -21.423  0.00  0.00    -0.317 NA
ATOM      9  N   UNL     1      31.309 -12.916 -21.270  0.00  0.00    -0.335 N 
ATOM     10  N   UNL     1      31.449  -8.218 -21.583  0.00  0.00    -0.283 N 
ATOM     11  C   UNL     1      32.957 -11.868 -22.679  0.00  0.00    +0.138 C 
ATOM     12  C   UNL     1      33.477 -10.682 -23.158  0.00  0.00    +0.112 C 
ATOM     13  C   UNL     1      31.895 -11.741 -21.805  0.00  0.00    +0.178 C 
ATOM     14  C   UNL     1      31.969  -9.474 -21.960  0.00  0.00    +0.196 C 
ATOM     15  H   UNL     1      30.551 -12.847 -20.646  0.00  0.00    +0.144 HD
ATOM     16  H   UNL     1      31.659 -13.800 -21.524  0.00  0.00    +0.144 HD
ATOM     17  H   UNL     1      31.845  -7.392 -21.946  0.00  0.00    +0.156 HD
ATOM     18  H   UNL     1      30.690  -8.166 -20.958  0.00  0.00    +0.156 HD
BRANCH  12  19
ATOM     19  C   UNL     1      34.629 -10.677 -24.110  0.00  0.00    +0.056 C 
ATOM     20  C   UNL     1      35.544  -9.474 -23.905  0.00  0.00    +0.008 C 
ENDBRANCH  12  19
ENDBRANCH   1  11
BRANCH   2  21
ATOM     21  N   UNL     1      35.060 -16.880 -24.207  0.00  0.00    -0.329 N 
ATOM     22  H   UNL     1      35.918 -16.905 -24.688  0.00  0.00    +0.147 HD
BRANCH  21  23
ATOM     23  C   UNL     1      34.400 -18.118 -23.925  0.00  0.00    +0.114 C 
BRANCH  23  26
ATOM     24  F   UNL     1      37.926 -18.892 -20.660  0.00  0.00    -0.204 F 
ATOM     25  F   UNL     1      33.670 -20.848 -19.961  0.00  0.00    -0.204 F 
ATOM     26  C   UNL     1      34.895 -18.738 -22.645  0.00  0.00    +0.002 C 
ATOM     27  C   UNL     1      34.034 -19.518 -21.886  0.00  0.00    +0.027 C 
ATOM     28  C   UNL     1      36.205 -18.521 -22.243  0.00  0.00    +0.027 C 
ATOM     29  C   UNL     1      36.664 -19.095 -21.058  0.00  0.00    +0.142 C 
ATOM     30  C   UNL     1      34.493 -20.093 -20.701  0.00  0.00    +0.142 C 
ATOM     31  C   UNL     1      35.808 -19.882 -20.287  0.00  0.00    +0.059 C 
ENDBRANCH  23  26
ENDBRANCH  21  23
ENDBRANCH   2  21
TORSDOF 5
ENDMDL
MODEL 6
REMARK VINA RESULT:     -10.3      1.607      2.813
REMARK  Name = 6914633
REMARK  5 active torsions:
REMARK  status: ('A' for Active; 'I' for Inactive)
REMARK    1  A    between atoms: C_1  and  C_11
REMARK    2  A    between atoms: C_2  and  N_21
REMARK    3  A    between atoms: C_12  and  C_19
REMARK    4  A    between atoms: N_21  and  C_23
REMARK    5  A    between atoms: C_23  and  C_26
REMARK                            x       y       z     vdW  Elec       q    Type
REMARK                         _______ _______ _______ _____ _____    ______ ____
ROOT
ATOM      1  C   UNL     1      34.862 -19.110 -21.303  0.00  0.00    -0.008 C 
ATOM      2  C   UNL     1      35.045 -21.121 -19.378  0.00  0.00    +0.045 C 
ATOM      3  C   UNL     1      33.705 -19.726 -20.826  0.00  0.00    -0.002 C 
ATOM      4  C   UNL     1      36.110 -19.499 -20.818  0.00  0.00    -0.002 C 
ATOM      5  C   UNL     1      33.796 -20.731 -19.863  0.00  0.00    +0.014 C 
ATOM      6  C   UNL     1      36.202 -20.506 -19.856  0.00  0.00    +0.014 C 
ENDROOT
BRANCH   1  11
ATOM      7  N   UNL     1      34.750 -15.722 -22.858  0.00  0.00    -0.337 NA
ATOM      8  N   UNL     1      34.513 -17.378 -24.594  0.00  0.00    -0.317 NA
ATOM      9  N   UNL     1      34.527 -19.683 -24.068  0.00  0.00    -0.335 N 
ATOM     10  N   UNL     1      34.501 -15.087 -25.103  0.00  0.00    -0.283 N 
ATOM     11  C   UNL     1      34.768 -18.066 -22.299  0.00  0.00    +0.138 C 
ATOM     12  C   UNL     1      34.834 -16.729 -21.962  0.00  0.00    +0.112 C 
ATOM     13  C   UNL     1      34.605 -18.332 -23.645  0.00  0.00    +0.178 C 
ATOM     14  C   UNL     1      34.593 -16.113 -24.137  0.00  0.00    +0.196 C 
ATOM     15  H   UNL     1      34.412 -19.894 -25.023  0.00  0.00    +0.144 HD
ATOM     16  H   UNL     1      34.591 -20.410 -23.407  0.00  0.00    +0.144 HD
ATOM     17  H   UNL     1      34.554 -14.143 -24.825  0.00  0.00    +0.156 HD
ATOM     18  H   UNL     1      34.386 -15.315 -26.054  0.00  0.00    +0.156 HD
BRANCH  12  19
ATOM     19  C   UNL     1      35.009 -16.303 -20.540  0.00  0.00    +0.056 C 
ATOM     20  C   UNL     1      34.580 -14.856 -20.314  0.00  0.00    +0.008 C 
ENDBRANCH  12  19
ENDBRANCH   1  11
BRANCH   2  21
ATOM     21  N   UNL     1      35.138 -22.138 -18.406  0.00  0.00    -0.329 N 
ATOM     22  H   UNL     1      35.928 -22.158 -17.819  0.00  0.00    +0.147 HD
BRANCH  21  23
ATOM     23  C   UNL     1      34.133 -23.142 -18.233  0.00  0.00    +0.114 C 
BRANCH  23  26
ATOM     24  F   UNL     1      30.384 -22.777 -15.151  0.00  0.00    -0.204 F 
ATOM     25  F   UNL     1      34.730 -23.500 -13.414  0.00  0.00    -0.204 F 
ATOM     26  C   UNL     1      33.575 -23.142 -16.835  0.00  0.00    +0.002 C 
ATOM     27  C   UNL     1      34.430 -23.325 -15.757  0.00  0.00    +0.027 C 
ATOM     28  C   UNL     1      32.214 -22.956 -16.643  0.00  0.00    +0.027 C 
ATOM     29  C   UNL     1      31.696 -22.955 -15.348  0.00  0.00    +0.142 C 
ATOM     30  C   UNL     1      33.913 -23.324 -14.462  0.00  0.00    +0.142 C 
ATOM     31  C   UNL     1      32.546 -23.138 -14.257  0.00  0.00    +0.059 C 
ENDBRANCH  23  26
ENDBRANCH  21  23
ENDBRANCH   2  21
TORSDOF 5
ENDMDL
MODEL 7
REMARK VINA RESULT:     -10.3      1.403      2.595
REMARK  Name = 6914633
REMARK  5 active torsions:
REMARK  status: ('A' for Active; 'I' for Inactive)
REMARK    1  A    between atoms: C_1  and  C_11
REMARK    2  A    between atoms: C_2  and  N_21
REMARK    3  A    between atoms: C_12  and  C_19
REMARK    4  A    between atoms: N_21  and  C_23
REMARK    5  A    between atoms: C_23  and  C_26
REMARK                            x       y       z     vdW  Elec       q    Type
REMARK                         _______ _______ _______ _____ _____    ______ ____
ROOT
ATOM      1  C   UNL     1      35.284 -18.293 -21.258  0.00  0.00    -0.008 C 
ATOM      2  C   UNL     1      35.911 -20.594 -19.812  0.00  0.00    +0.045 C 
ATOM      3  C   UNL     1      34.270 -19.166 -20.864  0.00  0.00    -0.002 C 
ATOM      4  C   UNL     1      36.610 -18.569 -20.930  0.00  0.00    -0.002 C 
ATOM      5  C   UNL     1      34.584 -20.316 -20.140  0.00  0.00    +0.014 C 
ATOM      6  C   UNL     1      36.924 -19.721 -20.207  0.00  0.00    +0.014 C 
ENDROOT
BRANCH   1  11
ATOM      7  N   UNL     1      34.489 -16.032 -24.115  0.00  0.00    -0.337 NA
ATOM      8  N   UNL     1      34.491 -14.736 -22.082  0.00  0.00    -0.317 NA
ATOM      9  N   UNL     1      34.949 -15.764 -20.002  0.00  0.00    -0.335 N 
ATOM     10  N   UNL     1      34.037 -13.730 -24.152  0.00  0.00    -0.283 N 
ATOM     11  C   UNL     1      34.959 -17.099 -22.007  0.00  0.00    +0.138 C 
ATOM     12  C   UNL     1      34.793 -17.120 -23.377  0.00  0.00    +0.112 C 
ATOM     13  C   UNL     1      34.794 -15.865 -21.408  0.00  0.00    +0.178 C 
ATOM     14  C   UNL     1      34.355 -14.890 -23.414  0.00  0.00    +0.196 C 
ATOM     15  H   UNL     1      34.835 -14.894 -19.556  0.00  0.00    +0.144 HD
ATOM     16  H   UNL     1      35.169 -16.564 -19.473  0.00  0.00    +0.144 HD
ATOM     17  H   UNL     1      33.925 -13.783 -25.130  0.00  0.00    +0.156 HD
ATOM     18  H   UNL     1      33.926 -12.867 -23.691  0.00  0.00    +0.156 HD
BRANCH  12  19
ATOM     19  C   UNL     1      34.944 -18.391 -24.149  0.00  0.00    +0.056 C 
ATOM     20  C   UNL     1      33.598 -18.985 -24.553  0.00  0.00    +0.008 C 
ENDBRANCH  12  19
ENDBRANCH   1  11
BRANCH   2  21
ATOM     21  N   UNL     1      36.229 -21.758 -19.081  0.00  0.00    -0.329 N 
ATOM     22  H   UNL     1      36.086 -22.634 -19.505  0.00  0.00    +0.147 HD
BRANCH  21  23
ATOM     23  C   UNL     1      36.751 -21.721 -17.749  0.00  0.00    +0.114 C 
BRANCH  23  26
ATOM     24  F   UNL     1      35.676 -23.203 -13.240  0.00  0.00    -0.204 F 
ATOM     25  F   UNL     1      32.402 -23.605 -16.637  0.00  0.00    -0.204 F 
ATOM     26  C   UNL     1      35.791 -22.316 -16.755  0.00  0.00    +0.002 C 
ATOM     27  C   UNL     1      34.520 -22.689 -17.169  0.00  0.00    +0.027 C 
ATOM     28  C   UNL     1      36.190 -22.484 -15.436  0.00  0.00    +0.027 C 
ATOM     29  C   UNL     1      35.301 -23.036 -14.514  0.00  0.00    +0.142 C 
ATOM     30  C   UNL     1      33.631 -23.241 -16.247  0.00  0.00    +0.142 C 
ATOM     31  C   UNL     1      34.022 -23.416 -14.920  0.00  0.00    +0.059 C 
ENDBRANCH  23  26
ENDBRANCH  21  23
ENDBRANCH   2  21
TORSDOF 5
ENDMDL
MODEL 8
REMARK VINA RESULT:     -10.3      8.119     12.735
REMARK  Name = 6914633
REMARK  5 active torsions:
REMARK  status: ('A' for Active; 'I' for Inactive)
REMARK    1  A    between atoms: C_1  and  C_11
REMARK    2  A    between atoms: C_2  and  N_21
REMARK    3  A    between atoms: C_12  and  C_19
REMARK    4  A    between atoms: N_21  and  C_23
REMARK    5  A    between atoms: C_23  and  C_26
REMARK                            x       y       z     vdW  Elec       q    Type
REMARK                         _______ _______ _______ _____ _____    ______ ____
ROOT
ATOM      1  C   UNL     1      33.192 -12.986 -23.229  0.00  0.00    -0.008 C 
ATOM      2  C   UNL     1      32.118 -10.440 -22.846  0.00  0.00    +0.045 C 
ATOM      3  C   UNL     1      33.778 -11.882 -23.849  0.00  0.00    -0.002 C 
ATOM      4  C   UNL     1      32.070 -12.818 -22.418  0.00  0.00    -0.002 C 
ATOM      5  C   UNL     1      33.242 -10.609 -23.657  0.00  0.00    +0.014 C 
ATOM      6  C   UNL     1      31.533 -11.544 -22.227  0.00  0.00    +0.014 C 
ENDROOT
BRANCH   1  11
ATOM      7  N   UNL     1      35.067 -16.148 -22.604  0.00  0.00    -0.337 NA
ATOM      8  N   UNL     1      34.054 -16.269 -24.789  0.00  0.00    -0.317 NA
ATOM      9  N   UNL     1      32.757 -14.472 -25.614  0.00  0.00    -0.335 N 
ATOM     10  N   UNL     1      35.343 -18.045 -23.958  0.00  0.00    -0.283 N 
ATOM     11  C   UNL     1      33.749 -14.306 -23.426  0.00  0.00    +0.138 C 
ATOM     12  C   UNL     1      34.527 -14.920 -22.464  0.00  0.00    +0.112 C 
ATOM     13  C   UNL     1      33.546 -15.037 -24.580  0.00  0.00    +0.178 C 
ATOM     14  C   UNL     1      34.795 -16.758 -23.774  0.00  0.00    +0.196 C 
ATOM     15  H   UNL     1      32.600 -14.978 -26.444  0.00  0.00    +0.144 HD
ATOM     16  H   UNL     1      32.367 -13.576 -25.501  0.00  0.00    +0.144 HD
ATOM     17  H   UNL     1      35.892 -18.452 -23.248  0.00  0.00    +0.156 HD
ATOM     18  H   UNL     1      35.175 -18.537 -24.794  0.00  0.00    +0.156 HD
BRANCH  12  19
ATOM     19  C   UNL     1      34.825 -14.237 -21.168  0.00  0.00    +0.056 C 
ATOM     20  C   UNL     1      34.237 -14.983 -19.974  0.00  0.00    +0.008 C 
ENDBRANCH  12  19
ENDBRANCH   1  11
BRANCH   2  21
ATOM     21  N   UNL     1      31.575  -9.153 -22.653  0.00  0.00    -0.329 N 
ATOM     22  H   UNL     1      30.647  -8.986 -22.936  0.00  0.00    +0.147 HD
BRANCH  21  23
ATOM     23  C   UNL     1      32.312  -8.079 -22.061  0.00  0.00    +0.114 C 
BRANCH  23  26
ATOM     24  F   UNL     1      36.033  -5.854 -24.274  0.00  0.00    -0.204 F 
ATOM     25  F   UNL     1      31.615  -4.929 -25.707  0.00  0.00    -0.204 F 
ATOM     26  C   UNL     1      32.847  -7.129 -23.099  0.00  0.00    +0.002 C 
ATOM     27  C   UNL     1      31.964  -6.461 -23.934  0.00  0.00    +0.027 C 
ATOM     28  C   UNL     1      34.217  -6.932 -23.203  0.00  0.00    +0.027 C 
ATOM     29  C   UNL     1      34.713  -6.051 -24.164  0.00  0.00    +0.142 C 
ATOM     30  C   UNL     1      32.460  -5.579 -24.895  0.00  0.00    +0.142 C 
ATOM     31  C   UNL     1      33.834  -5.373 -25.010  0.00  0.00    +0.059 C 
ENDBRANCH  23  26
ENDBRANCH  21  23
ENDBRANCH   2  21
TORSDOF 5
ENDMDL
MODEL 9
REMARK VINA RESULT:     -10.2      3.345      5.828
REMARK  Name = 6914633
REMARK  5 active torsions:
REMARK  status: ('A' for Active; 'I' for Inactive)
REMARK    1  A    between atoms: C_1  and  C_11
REMARK    2  A    between atoms: C_2  and  N_21
REMARK    3  A    between atoms: C_12  and  C_19
REMARK    4  A    between atoms: N_21  and  C_23
REMARK    5  A    between atoms: C_23  and  C_26
REMARK                            x       y       z     vdW  Elec       q    Type
REMARK                         _______ _______ _______ _____ _____    ______ ____
ROOT
ATOM      1  C   UNL     1      33.868 -14.425 -21.998  0.00  0.00    -0.008 C 
ATOM      2  C   UNL     1      35.340 -16.775 -22.297  0.00  0.00    +0.045 C 
ATOM      3  C   UNL     1      33.959 -15.037 -23.249  0.00  0.00    -0.002 C 
ATOM      4  C   UNL     1      34.513 -14.988 -20.898  0.00  0.00    -0.002 C 
ATOM      5  C   UNL     1      34.694 -16.212 -23.398  0.00  0.00    +0.014 C 
ATOM      6  C   UNL     1      35.250 -16.163 -21.047  0.00  0.00    +0.014 C 
ENDROOT
BRANCH   1  11
ATOM      7  N   UNL     1      32.574 -10.977 -22.585  0.00  0.00    -0.337 NA
ATOM      8  N   UNL     1      31.440 -11.913 -20.675  0.00  0.00    -0.317 NA
ATOM      9  N   UNL     1      31.944 -14.100 -19.930  0.00  0.00    -0.335 N 
ATOM     10  N   UNL     1      30.949  -9.745 -21.426  0.00  0.00    -0.283 N 
ATOM     11  C   UNL     1      33.103 -13.207 -21.843  0.00  0.00    +0.138 C 
ATOM     12  C   UNL     1      33.265 -12.131 -22.693  0.00  0.00    +0.112 C 
ATOM     13  C   UNL     1      32.166 -13.037 -20.842  0.00  0.00    +0.178 C 
ATOM     14  C   UNL     1      31.691 -10.937 -21.569  0.00  0.00    +0.196 C 
ATOM     15  H   UNL     1      31.280 -13.999 -19.210  0.00  0.00    +0.144 HD
ATOM     16  H   UNL     1      32.453 -14.937 -20.017  0.00  0.00    +0.144 HD
ATOM     17  H   UNL     1      31.091  -8.998 -22.052  0.00  0.00    +0.156 HD
ATOM     18  H   UNL     1      30.289  -9.660 -20.700  0.00  0.00    +0.156 HD
BRANCH  12  19
ATOM     19  C   UNL     1      34.248 -12.183 -23.818  0.00  0.00    +0.056 C 
ATOM     20  C   UNL     1      34.792 -10.802 -24.173  0.00  0.00    +0.008 C 
ENDBRANCH  12  19
ENDBRANCH   1  11
BRANCH   2  21
ATOM     21  N   UNL     1      36.086 -17.963 -22.448  0.00  0.00    -0.329 N 
ATOM     22  H   UNL     1      36.142 -18.374 -23.340  0.00  0.00    +0.147 HD
BRANCH  21  23
ATOM     23  C   UNL     1      36.764 -18.598 -21.360  0.00  0.00    +0.114 C 
BRANCH  23  26
ATOM     24  F   UNL     1      32.370 -20.494 -20.470  0.00  0.00    -0.204 F 
ATOM     25  F   UNL     1      36.133 -22.225 -18.175  0.00  0.00    -0.204 F 
ATOM     26  C   UNL     1      35.875 -19.576 -20.639  0.00  0.00    +0.002 C 
ATOM     27  C   UNL     1      36.430 -20.461 -19.726  0.00  0.00    +0.027 C 
ATOM     28  C   UNL     1      34.512 -19.578 -20.897  0.00  0.00    +0.027 C 
ATOM     29  C   UNL     1      33.687 -20.483 -20.229  0.00  0.00    +0.142 C 
ATOM     30  C   UNL     1      35.606 -21.367 -19.058  0.00  0.00    +0.142 C 
ATOM     31  C   UNL     1      34.234 -21.377 -19.309  0.00  0.00    +0.059 C 
ENDBRANCH  23  26
ENDBRANCH  21  23
ENDBRANCH   2  21
TORSDOF 5
ENDMDL
