MODEL 1
REMARK VINA RESULT:      -9.9      0.000      0.000
REMARK  Name = 59472121
REMARK  7 active torsions:
REMARK  status: ('A' for Active; 'I' for Inactive)
REMARK    1  A    between atoms: C_4  and  C_13
REMARK    2  A    between atoms: C_5  and  C_24
REMARK    3  A    between atoms: C_10  and  S_16
REMARK    4  A    between atoms: S_16  and  C_19
REMARK    5  A    between atoms: C_25  and  C_27
REMARK    6  A    between atoms: C_28  and  C_33
REMARK    7  A    between atoms: C_33  and  N_34
REMARK                            x       y       z     vdW  Elec       q    Type
REMARK                         _______ _______ _______ _____ _____    ______ ____
ROOT
ATOM      1  N   UNL     1      34.741 -16.919 -22.713  0.00  0.00    -0.398 NA
ATOM      2  N   UNL     1      34.142 -18.321 -25.067  0.00  0.00    -0.247 NA
ATOM      3  N   UNL     1      34.907 -20.324 -24.048  0.00  0.00    -0.341 N 
ATOM      4  C   UNL     1      34.223 -16.307 -23.797  0.00  0.00    +0.134 C 
ATOM      5  C   UNL     1      34.955 -18.244 -22.828  0.00  0.00    +0.198 C 
ATOM      6  C   UNL     1      33.928 -16.997 -24.953  0.00  0.00    +0.185 C 
ATOM      7  C   UNL     1      34.661 -18.934 -23.983  0.00  0.00    +0.154 C 
ATOM      8  H   UNL     1      34.699 -20.824 -24.871  0.00  0.00    +0.144 HD
ATOM      9  H   UNL     1      35.285 -20.794 -23.270  0.00  0.00    +0.144 HD
ENDROOT
BRANCH   4  13
ATOM     10  C   UNL     1      33.553 -12.140 -23.430  0.00  0.00    +0.106 C 
ATOM     11  C   UNL     1      33.113 -12.820 -24.565  0.00  0.00    +0.018 C 
ATOM     12  C   UNL     1      34.214 -12.832 -22.414  0.00  0.00    +0.018 C 
ATOM     13  C   UNL     1      33.994 -14.883 -23.671  0.00  0.00    +0.027 C 
ATOM     14  C   UNL     1      33.333 -14.192 -24.686  0.00  0.00    +0.004 C 
ATOM     15  C   UNL     1      34.434 -14.204 -22.535  0.00  0.00    +0.004 C 
BRANCH  10  16
ATOM     16  S   UNL     1      33.275 -10.402 -23.277  0.00  0.00    +0.007 S 
ATOM     17  O   UNL     1      34.559  -9.754 -23.092  0.00  0.00    -0.169 OA
ATOM     18  O   UNL     1      32.402 -10.011 -24.366  0.00  0.00    -0.169 OA
BRANCH  16  19
ATOM     19  C   UNL     1      32.377 -10.251 -21.755  0.00  0.00    +0.134 C 
ATOM     20  C   UNL     1      32.185  -8.783 -21.401  0.00  0.00    +0.026 C 
ATOM     21  C   UNL     1      31.045 -10.978 -21.855  0.00  0.00    +0.026 C 
ENDBRANCH  16  19
ENDBRANCH  10  16
ENDBRANCH   4  13
BRANCH   5  24
ATOM     22  O   UNL     1      36.767 -18.465 -21.318  0.00  0.00    -0.351 OA
ATOM     23  N   UNL     1      37.169 -19.134 -20.168  0.00  0.00    -0.077 NA
ATOM     24  C   UNL     1      35.510 -18.857 -21.648  0.00  0.00    +0.209 C 
ATOM     25  C   UNL     1      36.134 -19.913 -19.842  0.00  0.00    +0.123 C 
ATOM     26  C   UNL     1      35.061 -19.779 -20.740  0.00  0.00    +0.065 C 
BRANCH  25  27
ATOM     27  C   UNL     1      36.191 -20.765 -18.684  0.00  0.00    +0.021 C 
ATOM     28  C   UNL     1      36.300 -22.416 -16.438  0.00  0.00    -0.044 C 
ATOM     29  C   UNL     1      35.245 -21.775 -18.515  0.00  0.00    +0.001 C 
ATOM     30  C   UNL     1      37.193 -20.581 -17.731  0.00  0.00    +0.001 C 
ATOM     31  C   UNL     1      35.298 -22.601 -17.392  0.00  0.00    -0.006 C 
ATOM     32  C   UNL     1      37.247 -21.406 -16.609  0.00  0.00    -0.006 C 
BRANCH  28  33
ATOM     33  C   UNL     1      36.358 -23.299 -15.237  0.00  0.00    -0.054 C 
BRANCH  33  34
ATOM     34  N   UNL     1      37.708 -23.806 -14.984  0.00  0.00    +0.385 N 
ATOM     35  C   UNL     1      37.656 -25.041 -14.218  0.00  0.00    -0.105 C 
ATOM     36  H   UNL     1      38.236 -23.108 -14.460  0.00  0.00    -0.084 HD
ATOM     37  H   UNL     1      38.161 -23.994 -15.879  0.00  0.00    -0.084 HD
ENDBRANCH  33  34
ENDBRANCH  28  33
ENDBRANCH  25  27
ENDBRANCH   5  24
TORSDOF 7
ENDMDL
MODEL 2
REMARK VINA RESULT:      -9.6      4.812      8.013
REMARK  Name = 59472121
REMARK  7 active torsions:
REMARK  status: ('A' for Active; 'I' for Inactive)
REMARK    1  A    between atoms: C_4  and  C_13
REMARK    2  A    between atoms: C_5  and  C_24
REMARK    3  A    between atoms: C_10  and  S_16
REMARK    4  A    between atoms: S_16  and  C_19
REMARK    5  A    between atoms: C_25  and  C_27
REMARK    6  A    between atoms: C_28  and  C_33
REMARK    7  A    between atoms: C_33  and  N_34
REMARK                            x       y       z     vdW  Elec       q    Type
REMARK                         _______ _______ _______ _____ _____    ______ ____
ROOT
ATOM      1  N   UNL     1      33.163  -9.688 -23.546  0.00  0.00    -0.398 NA
ATOM      2  N   UNL     1      31.091  -9.093 -21.752  0.00  0.00    -0.247 NA
ATOM      3  N   UNL     1      30.966 -11.389 -21.161  0.00  0.00    -0.341 N 
ATOM      4  C   UNL     1      32.701  -8.433 -23.379  0.00  0.00    +0.134 C 
ATOM      5  C   UNL     1      32.570 -10.640 -22.800  0.00  0.00    +0.198 C 
ATOM      6  C   UNL     1      31.683  -8.141 -22.498  0.00  0.00    +0.185 C 
ATOM      7  C   UNL     1      31.552 -10.349 -21.918  0.00  0.00    +0.154 C 
ATOM      8  H   UNL     1      30.238 -11.187 -20.529  0.00  0.00    +0.144 HD
ATOM      9  H   UNL     1      31.286 -12.314 -21.264  0.00  0.00    +0.144 HD
ENDROOT
BRANCH   4  13
ATOM     10  C   UNL     1      34.570  -5.443 -25.729  0.00  0.00    +0.106 C 
ATOM     11  C   UNL     1      35.273  -6.056 -24.691  0.00  0.00    +0.018 C 
ATOM     12  C   UNL     1      33.251  -5.815 -25.993  0.00  0.00    +0.018 C 
ATOM     13  C   UNL     1      33.340  -7.412 -24.182  0.00  0.00    +0.027 C 
ATOM     14  C   UNL     1      34.658  -7.041 -23.918  0.00  0.00    +0.004 C 
ATOM     15  C   UNL     1      32.636  -6.799 -25.220  0.00  0.00    +0.004 C 
BRANCH  10  16
ATOM     16  S   UNL     1      35.349  -4.196 -26.708  0.00  0.00    +0.007 S 
ATOM     17  O   UNL     1      34.677  -2.937 -26.453  0.00  0.00    -0.169 OA
ATOM     18  O   UNL     1      36.779  -4.324 -26.505  0.00  0.00    -0.169 OA
BRANCH  16  19
ATOM     19  C   UNL     1      34.974  -4.673 -28.374  0.00  0.00    +0.134 C 
ATOM     20  C   UNL     1      35.338  -3.552 -29.337  0.00  0.00    +0.026 C 
ATOM     21  C   UNL     1      35.695  -5.965 -28.727  0.00  0.00    +0.026 C 
ENDBRANCH  16  19
ENDBRANCH  10  16
ENDBRANCH   4  13
BRANCH   5  24
ATOM     22  O   UNL     1      33.194 -12.360 -24.304  0.00  0.00    -0.351 OA
ATOM     23  N   UNL     1      33.709 -13.650 -24.352  0.00  0.00    -0.077 NA
ATOM     24  C   UNL     1      33.094 -11.966 -23.009  0.00  0.00    +0.209 C 
ATOM     25  C   UNL     1      33.903 -13.993 -23.075  0.00  0.00    +0.123 C 
ATOM     26  C   UNL     1      33.532 -12.969 -22.186  0.00  0.00    +0.065 C 
BRANCH  25  27
ATOM     27  C   UNL     1      34.437 -15.284 -22.734  0.00  0.00    +0.021 C 
ATOM     28  C   UNL     1      35.474 -17.787 -22.069  0.00  0.00    -0.044 C 
ATOM     29  C   UNL     1      34.758 -15.577 -21.408  0.00  0.00    +0.001 C 
ATOM     30  C   UNL     1      34.634 -16.243 -23.727  0.00  0.00    +0.001 C 
ATOM     31  C   UNL     1      35.277 -16.828 -21.076  0.00  0.00    -0.006 C 
ATOM     32  C   UNL     1      35.152 -17.494 -23.395  0.00  0.00    -0.006 C 
BRANCH  28  33
ATOM     33  C   UNL     1      36.029 -19.126 -21.715  0.00  0.00    -0.054 C 
BRANCH  33  34
ATOM     34  N   UNL     1      36.131 -19.320 -20.268  0.00  0.00    +0.385 N 
ATOM     35  C   UNL     1      35.619 -20.626 -19.888  0.00  0.00    -0.105 C 
ATOM     36  H   UNL     1      35.590 -18.596 -19.793  0.00  0.00    -0.084 HD
ATOM     37  H   UNL     1      37.113 -19.261 -19.997  0.00  0.00    -0.084 HD
ENDBRANCH  33  34
ENDBRANCH  28  33
ENDBRANCH  25  27
ENDBRANCH   5  24
TORSDOF 7
ENDMDL
MODEL 3
REMARK VINA RESULT:      -9.5      4.010     10.902
REMARK  Name = 59472121
REMARK  7 active torsions:
REMARK  status: ('A' for Active; 'I' for Inactive)
REMARK    1  A    between atoms: C_4  and  C_13
REMARK    2  A    between atoms: C_5  and  C_24
REMARK    3  A    between atoms: C_10  and  S_16
REMARK    4  A    between atoms: S_16  and  C_19
REMARK    5  A    between atoms: C_25  and  C_27
REMARK    6  A    between atoms: C_28  and  C_33
REMARK    7  A    between atoms: C_33  and  N_34
REMARK                            x       y       z     vdW  Elec       q    Type
REMARK                         _______ _______ _______ _____ _____    ______ ____
ROOT
ATOM      1  N   UNL     1      34.570 -17.986 -21.021  0.00  0.00    -0.398 NA
ATOM      2  N   UNL     1      35.630 -18.667 -23.527  0.00  0.00    -0.247 NA
ATOM      3  N   UNL     1      35.402 -16.408 -24.218  0.00  0.00    -0.341 N 
ATOM      4  C   UNL     1      34.946 -19.245 -21.319  0.00  0.00    +0.134 C 
ATOM      5  C   UNL     1      34.733 -17.073 -21.999  0.00  0.00    +0.198 C 
ATOM      6  C   UNL     1      35.467 -19.580 -22.550  0.00  0.00    +0.185 C 
ATOM      7  C   UNL     1      35.253 -17.406 -23.230  0.00  0.00    +0.154 C 
ATOM      8  H   UNL     1      35.773 -16.639 -25.101  0.00  0.00    +0.144 HD
ATOM      9  H   UNL     1      35.134 -15.480 -24.026  0.00  0.00    +0.144 HD
ENDROOT
BRANCH   4  13
ATOM     10  C   UNL     1      34.432 -22.111 -18.241  0.00  0.00    +0.106 C 
ATOM     11  C   UNL     1      35.715 -21.717 -18.620  0.00  0.00    +0.018 C 
ATOM     12  C   UNL     1      33.317 -21.561 -18.875  0.00  0.00    +0.018 C 
ATOM     13  C   UNL     1      34.770 -20.224 -20.267  0.00  0.00    +0.027 C 
ATOM     14  C   UNL     1      35.885 -20.773 -19.633  0.00  0.00    +0.004 C 
ATOM     15  C   UNL     1      33.487 -20.618 -19.889  0.00  0.00    +0.004 C 
BRANCH  10  16
ATOM     16  S   UNL     1      34.217 -23.306 -16.958  0.00  0.00    +0.007 S 
ATOM     17  O   UNL     1      33.698 -24.521 -17.556  0.00  0.00    -0.169 OA
ATOM     18  O   UNL     1      35.443 -23.330 -16.186  0.00  0.00    -0.169 OA
BRANCH  16  19
ATOM     19  C   UNL     1      32.932 -22.617 -15.950  0.00  0.00    +0.134 C 
ATOM     20  C   UNL     1      31.574 -23.134 -16.401  0.00  0.00    +0.026 C 
ATOM     21  C   UNL     1      33.188 -22.929 -14.483  0.00  0.00    +0.026 C 
ENDBRANCH  16  19
ENDBRANCH  10  16
ENDBRANCH   4  13
BRANCH   5  24
ATOM     22  O   UNL     1      34.582 -15.370 -20.359  0.00  0.00    -0.351 OA
ATOM     23  N   UNL     1      34.128 -14.072 -20.157  0.00  0.00    -0.077 NA
ATOM     24  C   UNL     1      34.318 -15.742 -21.638  0.00  0.00    +0.209 C 
ATOM     25  C   UNL     1      33.601 -13.703 -21.327  0.00  0.00    +0.123 C 
ATOM     26  C   UNL     1      33.694 -14.716 -22.297  0.00  0.00    +0.065 C 
BRANCH  25  27
ATOM     27  C   UNL     1      33.025 -12.395 -21.494  0.00  0.00    +0.021 C 
ATOM     28  C   UNL     1      31.909  -9.859 -21.820  0.00  0.00    -0.044 C 
ATOM     29  C   UNL     1      33.243 -11.683 -22.674  0.00  0.00    +0.001 C 
ATOM     30  C   UNL     1      32.248 -11.840 -20.477  0.00  0.00    +0.001 C 
ATOM     31  C   UNL     1      32.686 -10.415 -22.836  0.00  0.00    -0.006 C 
ATOM     32  C   UNL     1      31.691 -10.572 -20.640  0.00  0.00    -0.006 C 
BRANCH  28  33
ATOM     33  C   UNL     1      31.313  -8.503 -21.993  0.00  0.00    -0.054 C 
BRANCH  33  34
ATOM     34  N   UNL     1      31.754  -7.565 -20.960  0.00  0.00    +0.385 N 
ATOM     35  C   UNL     1      33.112  -7.114 -21.221  0.00  0.00    -0.105 C 
ATOM     36  H   UNL     1      31.725  -8.029 -20.051  0.00  0.00    -0.084 HD
ATOM     37  H   UNL     1      31.133  -6.756 -20.964  0.00  0.00    -0.084 HD
ENDBRANCH  33  34
ENDBRANCH  28  33
ENDBRANCH  25  27
ENDBRANCH   5  24
TORSDOF 7
ENDMDL
MODEL 4
REMARK VINA RESULT:      -9.5      5.794      9.777
REMARK  Name = 59472121
REMARK  7 active torsions:
REMARK  status: ('A' for Active; 'I' for Inactive)
REMARK    1  A    between atoms: C_4  and  C_13
REMARK    2  A    between atoms: C_5  and  C_24
REMARK    3  A    between atoms: C_10  and  S_16
REMARK    4  A    between atoms: S_16  and  C_19
REMARK    5  A    between atoms: C_25  and  C_27
REMARK    6  A    between atoms: C_28  and  C_33
REMARK    7  A    between atoms: C_33  and  N_34
REMARK                            x       y       z     vdW  Elec       q    Type
REMARK                         _______ _______ _______ _____ _____    ______ ____
ROOT
ATOM      1  N   UNL     1      33.421  -7.993 -24.002  0.00  0.00    -0.398 NA
ATOM      2  N   UNL     1      32.654  -6.469 -21.775  0.00  0.00    -0.247 NA
ATOM      3  N   UNL     1      32.140  -8.469 -20.605  0.00  0.00    -0.341 N 
ATOM      4  C   UNL     1      33.475  -6.646 -24.005  0.00  0.00    +0.134 C 
ATOM      5  C   UNL     1      32.976  -8.564 -22.865  0.00  0.00    +0.198 C 
ATOM      6  C   UNL     1      33.099  -5.898 -22.911  0.00  0.00    +0.185 C 
ATOM      7  C   UNL     1      32.599  -7.817 -21.771  0.00  0.00    +0.154 C 
ATOM      8  H   UNL     1      31.869  -7.941 -19.819  0.00  0.00    +0.144 HD
ATOM      9  H   UNL     1      32.091  -9.452 -20.577  0.00  0.00    +0.144 HD
ENDROOT
BRANCH   4  13
ATOM     10  C   UNL     1      34.874  -4.858 -27.582  0.00  0.00    +0.106 C 
ATOM     11  C   UNL     1      33.553  -5.294 -27.490  0.00  0.00    +0.018 C 
ATOM     12  C   UNL     1      35.737  -5.011 -26.496  0.00  0.00    +0.018 C 
ATOM     13  C   UNL     1      33.954  -6.035 -25.227  0.00  0.00    +0.027 C 
ATOM     14  C   UNL     1      33.092  -5.882 -26.313  0.00  0.00    +0.004 C 
ATOM     15  C   UNL     1      35.276  -5.599 -25.318  0.00  0.00    +0.004 C 
BRANCH  10  16
ATOM     16  S   UNL     1      35.459  -4.113 -29.074  0.00  0.00    +0.007 S 
ATOM     17  O   UNL     1      34.309  -3.787 -29.895  0.00  0.00    -0.169 OA
ATOM     18  O   UNL     1      36.410  -3.087 -28.695  0.00  0.00    -0.169 OA
BRANCH  16  19
ATOM     19  C   UNL     1      36.338  -5.423 -29.883  0.00  0.00    +0.134 C 
ATOM     20  C   UNL     1      37.748  -5.535 -29.322  0.00  0.00    +0.026 C 
ATOM     21  C   UNL     1      35.578  -6.734 -29.743  0.00  0.00    +0.026 C 
ENDBRANCH  16  19
ENDBRANCH  10  16
ENDBRANCH   4  13
BRANCH   5  24
ATOM     22  O   UNL     1      31.808 -10.573 -22.406  0.00  0.00    -0.351 OA
ATOM     23  N   UNL     1      31.909 -11.955 -22.509  0.00  0.00    -0.077 NA
ATOM     24  C   UNL     1      32.935 -10.003 -22.905  0.00  0.00    +0.209 C 
ATOM     25  C   UNL     1      33.102 -12.174 -23.069  0.00  0.00    +0.123 C 
ATOM     26  C   UNL     1      33.791 -10.980 -23.341  0.00  0.00    +0.065 C 
BRANCH  25  27
ATOM     27  C   UNL     1      33.554 -13.514 -23.334  0.00  0.00    +0.021 C 
ATOM     28  C   UNL     1      34.434 -16.111 -23.845  0.00  0.00    -0.044 C 
ATOM     29  C   UNL     1      34.367 -14.170 -22.409  0.00  0.00    +0.001 C 
ATOM     30  C   UNL     1      33.181 -14.157 -24.514  0.00  0.00    +0.001 C 
ATOM     31  C   UNL     1      34.807 -15.468 -22.665  0.00  0.00    -0.006 C 
ATOM     32  C   UNL     1      33.620 -15.455 -24.769  0.00  0.00    -0.006 C 
BRANCH  28  33
ATOM     33  C   UNL     1      34.904 -17.500 -24.119  0.00  0.00    -0.054 C 
BRANCH  33  34
ATOM     34  N   UNL     1      35.580 -18.097 -22.965  0.00  0.00    +0.385 N 
ATOM     35  C   UNL     1      34.941 -19.347 -22.587  0.00  0.00    -0.105 C 
ATOM     36  H   UNL     1      35.538 -17.447 -22.179  0.00  0.00    -0.084 HD
ATOM     37  H   UNL     1      36.550 -18.287 -23.215  0.00  0.00    -0.084 HD
ENDBRANCH  33  34
ENDBRANCH  28  33
ENDBRANCH  25  27
ENDBRANCH   5  24
TORSDOF 7
ENDMDL
MODEL 5
REMARK VINA RESULT:      -9.5      2.012      2.696
REMARK  Name = 59472121
REMARK  7 active torsions:
REMARK  status: ('A' for Active; 'I' for Inactive)
REMARK    1  A    between atoms: C_4  and  C_13
REMARK    2  A    between atoms: C_5  and  C_24
REMARK    3  A    between atoms: C_10  and  S_16
REMARK    4  A    between atoms: S_16  and  C_19
REMARK    5  A    between atoms: C_25  and  C_27
REMARK    6  A    between atoms: C_28  and  C_33
REMARK    7  A    between atoms: C_33  and  N_34
REMARK                            x       y       z     vdW  Elec       q    Type
REMARK                         _______ _______ _______ _____ _____    ______ ____
ROOT
ATOM      1  N   UNL     1      33.980 -15.322 -22.772  0.00  0.00    -0.398 NA
ATOM      2  N   UNL     1      34.116 -15.812 -25.530  0.00  0.00    -0.247 NA
ATOM      3  N   UNL     1      34.897 -18.009 -25.084  0.00  0.00    -0.341 N 
ATOM      4  C   UNL     1      33.638 -14.388 -23.681  0.00  0.00    +0.134 C 
ATOM      5  C   UNL     1      34.391 -16.506 -23.267  0.00  0.00    +0.198 C 
ATOM      6  C   UNL     1      33.705 -14.628 -25.036  0.00  0.00    +0.185 C 
ATOM      7  C   UNL     1      34.458 -16.748 -24.621  0.00  0.00    +0.154 C 
ATOM      8  H   UNL     1      34.948 -18.188 -26.051  0.00  0.00    +0.144 HD
ATOM      9  H   UNL     1      35.152 -18.708 -24.440  0.00  0.00    +0.144 HD
ENDROOT
BRANCH   4  13
ATOM     10  C   UNL     1      32.348 -10.667 -22.118  0.00  0.00    +0.106 C 
ATOM     11  C   UNL     1      33.097 -10.708 -23.294  0.00  0.00    +0.018 C 
ATOM     12  C   UNL     1      32.024 -11.852 -21.455  0.00  0.00    +0.018 C 
ATOM     13  C   UNL     1      33.197 -13.116 -23.147  0.00  0.00    +0.027 C 
ATOM     14  C   UNL     1      33.521 -11.933 -23.809  0.00  0.00    +0.004 C 
ATOM     15  C   UNL     1      32.448 -13.077 -21.970  0.00  0.00    +0.004 C 
BRANCH  10  16
ATOM     16  S   UNL     1      31.811  -9.116 -21.465  0.00  0.00    +0.007 S 
ATOM     17  O   UNL     1      30.991  -8.464 -22.467  0.00  0.00    -0.169 OA
ATOM     18  O   UNL     1      31.290  -9.369 -20.136  0.00  0.00    -0.169 OA
BRANCH  16  19
ATOM     19  C   UNL     1      33.309  -8.181 -21.312  0.00  0.00    +0.134 C 
ATOM     20  C   UNL     1      33.514  -7.310 -22.542  0.00  0.00    +0.026 C 
ATOM     21  C   UNL     1      33.283  -7.348 -20.039  0.00  0.00    +0.026 C 
ENDBRANCH  16  19
ENDBRANCH  10  16
ENDBRANCH   4  13
BRANCH   5  24
ATOM     22  O   UNL     1      35.983 -17.336 -21.721  0.00  0.00    -0.351 OA
ATOM     23  N   UNL     1      36.185 -18.333 -20.775  0.00  0.00    -0.077 NA
ATOM     24  C   UNL     1      34.746 -17.475 -22.261  0.00  0.00    +0.209 C 
ATOM     25  C   UNL     1      35.056 -19.045 -20.777  0.00  0.00    +0.123 C 
ATOM     26  C   UNL     1      34.113 -18.549 -21.694  0.00  0.00    +0.065 C 
BRANCH  25  27
ATOM     27  C   UNL     1      34.901 -20.179 -19.904  0.00  0.00    +0.021 C 
ATOM     28  C   UNL     1      34.597 -22.376 -18.213  0.00  0.00    -0.044 C 
ATOM     29  C   UNL     1      33.632 -20.712 -19.673  0.00  0.00    +0.001 C 
ATOM     30  C   UNL     1      36.018 -20.745 -19.290  0.00  0.00    +0.001 C 
ATOM     31  C   UNL     1      33.480 -21.809 -18.827  0.00  0.00    -0.006 C 
ATOM     32  C   UNL     1      35.866 -21.843 -18.444  0.00  0.00    -0.006 C 
BRANCH  28  33
ATOM     33  C   UNL     1      34.435 -23.550 -17.307  0.00  0.00    -0.054 C 
BRANCH  33  34
ATOM     34  N   UNL     1      33.117 -23.587 -16.674  0.00  0.00    +0.385 N 
ATOM     35  C   UNL     1      33.231 -23.386 -15.239  0.00  0.00    -0.105 C 
ATOM     36  H   UNL     1      32.685 -24.495 -16.851  0.00  0.00    -0.084 HD
ATOM     37  H   UNL     1      32.543 -22.840 -17.066  0.00  0.00    -0.084 HD
ENDBRANCH  33  34
ENDBRANCH  28  33
ENDBRANCH  25  27
ENDBRANCH   5  24
TORSDOF 7
ENDMDL
MODEL 6
REMARK VINA RESULT:      -9.4      5.751     10.008
REMARK  Name = 59472121
REMARK  7 active torsions:
REMARK  status: ('A' for Active; 'I' for Inactive)
REMARK    1  A    between atoms: C_4  and  C_13
REMARK    2  A    between atoms: C_5  and  C_24
REMARK    3  A    between atoms: C_10  and  S_16
REMARK    4  A    between atoms: S_16  and  C_19
REMARK    5  A    between atoms: C_25  and  C_27
REMARK    6  A    between atoms: C_28  and  C_33
REMARK    7  A    between atoms: C_33  and  N_34
REMARK                            x       y       z     vdW  Elec       q    Type
REMARK                         _______ _______ _______ _____ _____    ______ ____
ROOT
ATOM      1  N   UNL     1      32.686  -7.610 -23.439  0.00  0.00    -0.398 NA
ATOM      2  N   UNL     1      32.132  -6.283 -21.031  0.00  0.00    -0.247 NA
ATOM      3  N   UNL     1      31.909  -8.382 -19.946  0.00  0.00    -0.341 N 
ATOM      4  C   UNL     1      32.653  -6.265 -23.356  0.00  0.00    +0.134 C 
ATOM      5  C   UNL     1      32.437  -8.279 -22.297  0.00  0.00    +0.198 C 
ATOM      6  C   UNL     1      32.381  -5.613 -22.173  0.00  0.00    +0.185 C 
ATOM      7  C   UNL     1      32.164  -7.629 -21.114  0.00  0.00    +0.154 C 
ATOM      8  H   UNL     1      31.714  -7.923 -19.096  0.00  0.00    +0.144 HD
ATOM      9  H   UNL     1      31.927  -9.366 -19.980  0.00  0.00    +0.144 HD
ENDROOT
BRANCH   4  13
ATOM     10  C   UNL     1      33.438  -4.166 -26.952  0.00  0.00    +0.106 C 
ATOM     11  C   UNL     1      32.173  -4.102 -26.368  0.00  0.00    +0.018 C 
ATOM     12  C   UNL     1      34.445  -4.922 -26.352  0.00  0.00    +0.018 C 
ATOM     13  C   UNL     1      32.922  -5.547 -24.584  0.00  0.00    +0.027 C 
ATOM     14  C   UNL     1      31.914  -4.792 -25.184  0.00  0.00    +0.004 C 
ATOM     15  C   UNL     1      34.187  -5.613 -25.168  0.00  0.00    +0.004 C 
BRANCH  10  16
ATOM     16  S   UNL     1      33.765  -3.293 -28.452  0.00  0.00    +0.007 S 
ATOM     17  O   UNL     1      33.040  -2.038 -28.411  0.00  0.00    -0.169 OA
ATOM     18  O   UNL     1      35.201  -3.309 -28.651  0.00  0.00    -0.169 OA
BRANCH  16  19
ATOM     19  C   UNL     1      33.014  -4.302 -29.701  0.00  0.00    +0.134 C 
ATOM     20  C   UNL     1      33.266  -5.775 -29.410  0.00  0.00    +0.026 C 
ATOM     21  C   UNL     1      31.526  -4.001 -29.798  0.00  0.00    +0.026 C 
ENDBRANCH  16  19
ENDBRANCH  10  16
ENDBRANCH   4  13
BRANCH   5  24
ATOM     22  O   UNL     1      31.407 -10.383 -21.943  0.00  0.00    -0.351 OA
ATOM     23  N   UNL     1      31.589 -11.746 -22.140  0.00  0.00    -0.077 NA
ATOM     24  C   UNL     1      32.482  -9.713 -22.431  0.00  0.00    +0.209 C 
ATOM     25  C   UNL     1      32.776 -11.853 -22.742  0.00  0.00    +0.123 C 
ATOM     26  C   UNL     1      33.383 -10.603 -22.951  0.00  0.00    +0.065 C 
BRANCH  25  27
ATOM     27  C   UNL     1      33.302 -13.142 -23.106  0.00  0.00    +0.021 C 
ATOM     28  C   UNL     1      34.320 -15.641 -23.814  0.00  0.00    -0.044 C 
ATOM     29  C   UNL     1      32.979 -13.703 -24.342  0.00  0.00    +0.001 C 
ATOM     30  C   UNL     1      34.136 -13.831 -22.225  0.00  0.00    +0.001 C 
ATOM     31  C   UNL     1      33.486 -14.953 -24.695  0.00  0.00    -0.006 C 
ATOM     32  C   UNL     1      34.644 -15.080 -22.579  0.00  0.00    -0.006 C 
BRANCH  28  33
ATOM     33  C   UNL     1      34.864 -16.978 -24.192  0.00  0.00    -0.054 C 
BRANCH  33  34
ATOM     34  N   UNL     1      35.548 -17.636 -23.077  0.00  0.00    +0.385 N 
ATOM     35  C   UNL     1      34.978 -18.950 -22.830  0.00  0.00    -0.105 C 
ATOM     36  H   UNL     1      35.448 -17.064 -22.238  0.00  0.00    -0.084 HD
ATOM     37  H   UNL     1      36.534 -17.744 -23.315  0.00  0.00    -0.084 HD
ENDBRANCH  33  34
ENDBRANCH  28  33
ENDBRANCH  25  27
ENDBRANCH   5  24
TORSDOF 7
ENDMDL
MODEL 7
REMARK VINA RESULT:      -9.0      3.652     11.192
REMARK  Name = 59472121
REMARK  7 active torsions:
REMARK  status: ('A' for Active; 'I' for Inactive)
REMARK    1  A    between atoms: C_4  and  C_13
REMARK    2  A    between atoms: C_5  and  C_24
REMARK    3  A    between atoms: C_10  and  S_16
REMARK    4  A    between atoms: S_16  and  C_19
REMARK    5  A    between atoms: C_25  and  C_27
REMARK    6  A    between atoms: C_28  and  C_33
REMARK    7  A    between atoms: C_33  and  N_34
REMARK                            x       y       z     vdW  Elec       q    Type
REMARK                         _______ _______ _______ _____ _____    ______ ____
ROOT
ATOM      1  N   UNL     1      34.329 -16.207 -22.433  0.00  0.00    -0.398 NA
ATOM      2  N   UNL     1      34.490 -16.818 -25.166  0.00  0.00    -0.247 NA
ATOM      3  N   UNL     1      33.639 -14.663 -25.681  0.00  0.00    -0.341 N 
ATOM      4  C   UNL     1      34.779 -17.399 -22.873  0.00  0.00    +0.134 C 
ATOM      5  C   UNL     1      33.960 -15.326 -23.384  0.00  0.00    +0.198 C 
ATOM      6  C   UNL     1      34.858 -17.698 -24.215  0.00  0.00    +0.185 C 
ATOM      7  C   UNL     1      34.039 -15.625 -24.727  0.00  0.00    +0.154 C 
ATOM      8  H   UNL     1      33.692 -14.870 -26.642  0.00  0.00    +0.144 HD
ATOM      9  H   UNL     1      33.306 -13.785 -25.385  0.00  0.00    +0.144 HD
ENDROOT
BRANCH   4  13
ATOM     10  C   UNL     1      35.937 -20.163 -19.878  0.00  0.00    +0.106 C 
ATOM     11  C   UNL     1      36.878 -19.292 -20.425  0.00  0.00    +0.018 C 
ATOM     12  C   UNL     1      34.613 -20.124 -20.317  0.00  0.00    +0.018 C 
ATOM     13  C   UNL     1      35.174 -18.343 -21.850  0.00  0.00    +0.027 C 
ATOM     14  C   UNL     1      36.497 -18.381 -21.411  0.00  0.00    +0.004 C 
ATOM     15  C   UNL     1      34.232 -19.214 -21.303  0.00  0.00    +0.004 C 
BRANCH  10  16
ATOM     16  S   UNL     1      36.419 -21.316 -18.630  0.00  0.00    +0.007 S 
ATOM     17  O   UNL     1      37.158 -22.388 -19.268  0.00  0.00    -0.169 OA
ATOM     18  O   UNL     1      37.010 -20.553 -17.549  0.00  0.00    -0.169 OA
BRANCH  16  19
ATOM     19  C   UNL     1      34.881 -21.992 -18.064  0.00  0.00    +0.134 C 
ATOM     20  C   UNL     1      34.339 -22.991 -19.076  0.00  0.00    +0.026 C 
ATOM     21  C   UNL     1      35.058 -22.630 -16.694  0.00  0.00    +0.026 C 
ENDBRANCH  16  19
ENDBRANCH  10  16
ENDBRANCH   4  13
BRANCH   5  24
ATOM     22  O   UNL     1      33.205 -14.042 -21.542  0.00  0.00    -0.351 OA
ATOM     23  N   UNL     1      32.760 -12.773 -21.192  0.00  0.00    -0.077 NA
ATOM     24  C   UNL     1      33.486 -14.067 -22.870  0.00  0.00    +0.209 C 
ATOM     25  C   UNL     1      32.786 -12.071 -22.328  0.00  0.00    +0.123 C 
ATOM     26  C   UNL     1      33.235 -12.837 -23.418  0.00  0.00    +0.065 C 
BRANCH  25  27
ATOM     27  C   UNL     1      32.384 -10.690 -22.347  0.00  0.00    +0.021 C 
ATOM     28  C   UNL     1      31.605  -8.012 -22.382  0.00  0.00    -0.044 C 
ATOM     29  C   UNL     1      31.976 -10.067 -21.168  0.00  0.00    +0.001 C 
ATOM     30  C   UNL     1      32.404  -9.974 -23.544  0.00  0.00    +0.001 C 
ATOM     31  C   UNL     1      31.585  -8.728 -21.186  0.00  0.00    -0.006 C 
ATOM     32  C   UNL     1      32.014  -8.635 -23.562  0.00  0.00    -0.006 C 
BRANCH  28  33
ATOM     33  C   UNL     1      31.187  -6.580 -22.402  0.00  0.00    -0.054 C 
BRANCH  33  34
ATOM     34  N   UNL     1      31.950  -5.765 -21.455  0.00  0.00    +0.385 N 
ATOM     35  C   UNL     1      31.677  -4.351 -21.658  0.00  0.00    -0.105 C 
ATOM     36  H   UNL     1      32.947  -5.936 -21.592  0.00  0.00    -0.084 HD
ATOM     37  H   UNL     1      31.675  -6.019 -20.506  0.00  0.00    -0.084 HD
ENDBRANCH  33  34
ENDBRANCH  28  33
ENDBRANCH  25  27
ENDBRANCH   5  24
TORSDOF 7
ENDMDL
MODEL 8
REMARK VINA RESULT:      -8.9      1.630      2.090
REMARK  Name = 59472121
REMARK  7 active torsions:
REMARK  status: ('A' for Active; 'I' for Inactive)
REMARK    1  A    between atoms: C_4  and  C_13
REMARK    2  A    between atoms: C_5  and  C_24
REMARK    3  A    between atoms: C_10  and  S_16
REMARK    4  A    between atoms: S_16  and  C_19
REMARK    5  A    between atoms: C_25  and  C_27
REMARK    6  A    between atoms: C_28  and  C_33
REMARK    7  A    between atoms: C_33  and  N_34
REMARK                            x       y       z     vdW  Elec       q    Type
REMARK                         _______ _______ _______ _____ _____    ______ ____
ROOT
ATOM      1  N   UNL     1      34.437 -16.291 -22.326  0.00  0.00    -0.398 NA
ATOM      2  N   UNL     1      34.518 -16.975 -25.045  0.00  0.00    -0.247 NA
ATOM      3  N   UNL     1      35.438 -19.086 -24.469  0.00  0.00    -0.341 N 
ATOM      4  C   UNL     1      34.015 -15.446 -23.289  0.00  0.00    +0.134 C 
ATOM      5  C   UNL     1      34.900 -17.483 -22.749  0.00  0.00    +0.198 C 
ATOM      6  C   UNL     1      34.055 -15.782 -24.624  0.00  0.00    +0.185 C 
ATOM      7  C   UNL     1      34.941 -17.820 -24.084  0.00  0.00    +0.154 C 
ATOM      8  H   UNL     1      35.470 -19.333 -25.422  0.00  0.00    +0.144 HD
ATOM      9  H   UNL     1      35.752 -19.721 -23.786  0.00  0.00    +0.144 HD
ENDROOT
BRANCH   4  13
ATOM     10  C   UNL     1      32.557 -11.699 -21.954  0.00  0.00    +0.106 C 
ATOM     11  C   UNL     1      32.633 -12.774 -21.068  0.00  0.00    +0.018 C 
ATOM     12  C   UNL     1      32.962 -11.857 -23.280  0.00  0.00    +0.018 C 
ATOM     13  C   UNL     1      33.517 -14.165 -22.833  0.00  0.00    +0.027 C 
ATOM     14  C   UNL     1      33.113 -14.007 -21.508  0.00  0.00    +0.004 C 
ATOM     15  C   UNL     1      33.442 -13.091 -23.719  0.00  0.00    +0.004 C 
BRANCH  10  16
ATOM     16  S   UNL     1      31.949 -10.136 -21.398  0.00  0.00    +0.007 S 
ATOM     17  O   UNL     1      32.908  -9.117 -21.777  0.00  0.00    -0.169 OA
ATOM     18  O   UNL     1      30.565 -10.041 -21.821  0.00  0.00    -0.169 OA
BRANCH  16  19
ATOM     19  C   UNL     1      31.987 -10.273 -19.631  0.00  0.00    +0.134 C 
ATOM     20  C   UNL     1      32.785  -9.125 -19.031  0.00  0.00    +0.026 C 
ATOM     21  C   UNL     1      30.571 -10.316 -19.075  0.00  0.00    +0.026 C 
ENDBRANCH  16  19
ENDBRANCH  10  16
ENDBRANCH   4  13
BRANCH   5  24
ATOM     22  O   UNL     1      36.673 -18.335 -21.427  0.00  0.00    -0.351 OA
ATOM     23  N   UNL     1      36.949 -19.218 -20.391  0.00  0.00    -0.077 NA
ATOM     24  C   UNL     1      35.341 -18.354 -21.689  0.00  0.00    +0.209 C 
ATOM     25  C   UNL     1      35.766 -19.744 -20.060  0.00  0.00    +0.123 C 
ATOM     26  C   UNL     1      34.718 -19.235 -20.845  0.00  0.00    +0.065 C 
BRANCH  25  27
ATOM     27  C   UNL     1      35.664 -20.715 -19.004  0.00  0.00    +0.021 C 
ATOM     28  C   UNL     1      35.468 -22.599 -16.955  0.00  0.00    -0.044 C 
ATOM     29  C   UNL     1      36.716 -20.877 -18.101  0.00  0.00    +0.001 C 
ATOM     30  C   UNL     1      34.514 -21.495 -18.881  0.00  0.00    +0.001 C 
ATOM     31  C   UNL     1      36.618 -21.819 -17.078  0.00  0.00    -0.006 C 
ATOM     32  C   UNL     1      34.416 -22.437 -17.857  0.00  0.00    -0.006 C 
BRANCH  28  33
ATOM     33  C   UNL     1      35.363 -23.607 -15.860  0.00  0.00    -0.054 C 
BRANCH  33  34
ATOM     34  N   UNL     1      33.975 -23.954 -15.555  0.00  0.00    +0.385 N 
ATOM     35  C   UNL     1      33.675 -23.688 -14.157  0.00  0.00    -0.105 C 
ATOM     36  H   UNL     1      33.827 -24.946 -15.747  0.00  0.00    -0.084 HD
ATOM     37  H   UNL     1      33.358 -23.386 -16.137  0.00  0.00    -0.084 HD
ENDBRANCH  33  34
ENDBRANCH  28  33
ENDBRANCH  25  27
ENDBRANCH   5  24
TORSDOF 7
ENDMDL
MODEL 9
REMARK VINA RESULT:      -8.9      5.310      8.937
REMARK  Name = 59472121
REMARK  7 active torsions:
REMARK  status: ('A' for Active; 'I' for Inactive)
REMARK    1  A    between atoms: C_4  and  C_13
REMARK    2  A    between atoms: C_5  and  C_24
REMARK    3  A    between atoms: C_10  and  S_16
REMARK    4  A    between atoms: S_16  and  C_19
REMARK    5  A    between atoms: C_25  and  C_27
REMARK    6  A    between atoms: C_28  and  C_33
REMARK    7  A    between atoms: C_33  and  N_34
REMARK                            x       y       z     vdW  Elec       q    Type
REMARK                         _______ _______ _______ _____ _____    ______ ____
ROOT
ATOM      1  N   UNL     1      33.111  -8.771 -23.343  0.00  0.00    -0.398 NA
ATOM      2  N   UNL     1      31.813  -7.424 -21.254  0.00  0.00    -0.247 NA
ATOM      3  N   UNL     1      31.364  -9.509 -20.212  0.00  0.00    -0.341 N 
ATOM      4  C   UNL     1      33.000  -7.427 -23.319  0.00  0.00    +0.134 C 
ATOM      5  C   UNL     1      32.561  -9.428 -22.304  0.00  0.00    +0.198 C 
ATOM      6  C   UNL     1      32.362  -6.766 -22.293  0.00  0.00    +0.185 C 
ATOM      7  C   UNL     1      31.923  -8.768 -21.277  0.00  0.00    +0.154 C 
ATOM      8  H   UNL     1      30.906  -9.043 -19.474  0.00  0.00    +0.144 HD
ATOM      9  H   UNL     1      31.431 -10.491 -20.206  0.00  0.00    +0.144 HD
ENDROOT
BRANCH   4  13
ATOM     10  C   UNL     1      34.732  -5.368 -26.592  0.00  0.00    +0.106 C 
ATOM     11  C   UNL     1      33.408  -5.802 -26.662  0.00  0.00    +0.018 C 
ATOM     12  C   UNL     1      35.486  -5.611 -25.443  0.00  0.00    +0.018 C 
ATOM     13  C   UNL     1      33.592  -6.723 -24.437  0.00  0.00    +0.027 C 
ATOM     14  C   UNL     1      32.838  -6.480 -25.585  0.00  0.00    +0.004 C 
ATOM     15  C   UNL     1      34.916  -6.289 -24.366  0.00  0.00    +0.004 C 
BRANCH  10  16
ATOM     16  S   UNL     1      35.454  -4.510 -27.956  0.00  0.00    +0.007 S 
ATOM     17  O   UNL     1      36.836  -4.220 -27.627  0.00  0.00    -0.169 OA
ATOM     18  O   UNL     1      35.122  -5.255 -29.154  0.00  0.00    -0.169 OA
BRANCH  16  19
ATOM     19  C   UNL     1      34.581  -2.967 -27.995  0.00  0.00    +0.134 C 
ATOM     20  C   UNL     1      34.812  -2.199 -26.702  0.00  0.00    +0.026 C 
ATOM     21  C   UNL     1      35.004  -2.152 -29.208  0.00  0.00    +0.026 C 
ENDBRANCH  16  19
ENDBRANCH  10  16
ENDBRANCH   4  13
BRANCH   5  24
ATOM     22  O   UNL     1      31.543 -11.564 -22.409  0.00  0.00    -0.351 OA
ATOM     23  N   UNL     1      31.833 -12.922 -22.469  0.00  0.00    -0.077 NA
ATOM     24  C   UNL     1      32.703 -10.860 -22.370  0.00  0.00    +0.209 C 
ATOM     25  C   UNL     1      33.167 -12.991 -22.463  0.00  0.00    +0.123 C 
ATOM     26  C   UNL     1      33.767 -11.722 -22.401  0.00  0.00    +0.065 C 
BRANCH  25  27
ATOM     27  C   UNL     1      33.836 -14.263 -22.518  0.00  0.00    +0.021 C 
ATOM     28  C   UNL     1      35.136 -16.730 -22.621  0.00  0.00    -0.044 C 
ATOM     29  C   UNL     1      34.361 -14.825 -21.353  0.00  0.00    +0.001 C 
ATOM     30  C   UNL     1      33.961 -14.935 -23.734  0.00  0.00    +0.001 C 
ATOM     31  C   UNL     1      35.011 -16.058 -21.405  0.00  0.00    -0.006 C 
ATOM     32  C   UNL     1      34.610 -16.168 -23.786  0.00  0.00    -0.006 C 
BRANCH  28  33
ATOM     33  C   UNL     1      35.831 -18.048 -22.677  0.00  0.00    -0.054 C 
BRANCH  33  34
ATOM     34  N   UNL     1      34.897 -19.173 -22.614  0.00  0.00    +0.385 N 
ATOM     35  C   UNL     1      34.874 -19.747 -21.279  0.00  0.00    -0.105 C 
ATOM     36  H   UNL     1      35.189 -19.889 -23.281  0.00  0.00    -0.084 HD
ATOM     37  H   UNL     1      33.962 -18.837 -22.844  0.00  0.00    -0.084 HD
ENDBRANCH  33  34
ENDBRANCH  28  33
ENDBRANCH  25  27
ENDBRANCH   5  24
TORSDOF 7
ENDMDL
