MODEL 1
REMARK VINA RESULT:     -11.0      0.000      0.000
REMARK  Name = 1948
REMARK  7 active torsions:
REMARK  status: ('A' for Active; 'I' for Inactive)
REMARK    1  A    between atoms: C_1  and  N_7
REMARK    2  A    between atoms: C_4  and  S_19
REMARK    3  A    between atoms: C_8  and  C_13
REMARK    4  A    between atoms: S_19  and  N_22
REMARK    5  A    between atoms: N_22  and  C_24
REMARK    6  A    between atoms: C_24  and  C_26
REMARK    7  A    between atoms: C_26  and  O_27
REMARK                            x       y       z     vdW  Elec       q    Type
REMARK                         _______ _______ _______ _____ _____    ______ ____
ROOT
ATOM      1  C   UNL     1      35.835 -21.972 -17.476  0.00  0.00    +0.048 C 
ATOM      2  C   UNL     1      34.764 -22.695 -16.916  0.00  0.00    +0.016 C 
ATOM      3  C   UNL     1      37.067 -21.975 -16.794  0.00  0.00    +0.016 C 
ATOM      4  C   UNL     1      36.150 -23.386 -15.061  0.00  0.00    +0.122 C 
ATOM      5  C   UNL     1      34.920 -23.396 -15.719  0.00  0.00    +0.021 C 
ATOM      6  C   UNL     1      37.223 -22.676 -15.597  0.00  0.00    +0.021 C 
ENDROOT
BRANCH   1   7
ATOM      7  N   UNL     1      35.679 -21.268 -18.676  0.00  0.00    -0.307 N 
ATOM      8  C   UNL     1      35.310 -19.938 -21.221  0.00  0.00    +0.026 C 
ATOM      9  C   UNL     1      34.143 -20.145 -20.242  0.00  0.00    +0.026 C 
ATOM     10  C   UNL     1      36.624 -19.825 -20.435  0.00  0.00    +0.026 C 
ATOM     11  C   UNL     1      34.378 -21.365 -19.351  0.00  0.00    +0.091 C 
ATOM     12  C   UNL     1      36.846 -21.043 -19.537  0.00  0.00    +0.091 C 
BRANCH   8  13
ATOM     13  C   UNL     1      35.085 -18.748 -22.133  0.00  0.00    -0.022 C 
ATOM     14  C   UNL     1      34.556 -18.940 -23.408  0.00  0.00    -0.004 C 
ATOM     15  C   UNL     1      35.407 -17.465 -21.694  0.00  0.00    -0.004 C 
ATOM     16  C   UNL     1      34.349 -17.845 -24.248  0.00  0.00    -0.000 C 
ATOM     17  C   UNL     1      35.201 -16.370 -22.533  0.00  0.00    -0.000 C 
ATOM     18  C   UNL     1      34.672 -16.561 -23.810  0.00  0.00    -0.000 C 
ENDBRANCH   8  13
ENDBRANCH   1   7
BRANCH   4  19
ATOM     19  S   UNL     1      36.344 -24.263 -13.563  0.00  0.00    +0.061 S 
ATOM     20  O   UNL     1      35.525 -23.627 -12.539  0.00  0.00    -0.153 OA
ATOM     21  O   UNL     1      36.158 -25.679 -13.849  0.00  0.00    -0.153 OA
BRANCH  19  22
ATOM     22  N   UNL     1      37.990 -23.993 -13.191  0.00  0.00    -0.168 NA
ATOM     23  H   UNL     1      38.012 -23.395 -12.364  0.00  0.00    +0.149 HD
BRANCH  22  24
ATOM     24  C   UNL     1      38.874 -25.135 -12.911  0.00  0.00    +0.200 C 
BRANCH  24  26
ATOM     25  O   UNL     1      40.891 -25.024 -14.264  0.00  0.00    -0.249 OA
ATOM     26  C   UNL     1      39.732 -25.382 -14.114  0.00  0.00    +0.332 C 
BRANCH  26  27
ATOM     27  O   UNL     1      39.035 -26.080 -15.047  0.00  0.00    -0.479 OA
ATOM     28  H   UNL     1      39.325 -26.932 -15.307  0.00  0.00    +0.295 HD
ENDBRANCH  26  27
ENDBRANCH  24  26
ENDBRANCH  22  24
ENDBRANCH  19  22
ENDBRANCH   4  19
TORSDOF 7
ENDMDL
MODEL 2
REMARK VINA RESULT:     -10.9      1.794      2.526
REMARK  Name = 1948
REMARK  7 active torsions:
REMARK  status: ('A' for Active; 'I' for Inactive)
REMARK    1  A    between atoms: C_1  and  N_7
REMARK    2  A    between atoms: C_4  and  S_19
REMARK    3  A    between atoms: C_8  and  C_13
REMARK    4  A    between atoms: S_19  and  N_22
REMARK    5  A    between atoms: N_22  and  C_24
REMARK    6  A    between atoms: C_24  and  C_26
REMARK    7  A    between atoms: C_26  and  O_27
REMARK                            x       y       z     vdW  Elec       q    Type
REMARK                         _______ _______ _______ _____ _____    ______ ____
ROOT
ATOM      1  C   UNL     1      35.072 -22.076 -17.658  0.00  0.00    +0.048 C 
ATOM      2  C   UNL     1      33.936 -22.817 -17.278  0.00  0.00    +0.016 C 
ATOM      3  C   UNL     1      36.199 -22.110 -16.814  0.00  0.00    +0.016 C 
ATOM      4  C   UNL     1      35.055 -23.584 -15.278  0.00  0.00    +0.122 C 
ATOM      5  C   UNL     1      33.927 -23.564 -16.099  0.00  0.00    +0.021 C 
ATOM      6  C   UNL     1      36.190 -22.857 -15.635  0.00  0.00    +0.021 C 
ENDROOT
BRANCH   1   7
ATOM      7  N   UNL     1      35.081 -21.326 -18.840  0.00  0.00    -0.307 N 
ATOM      8  C   UNL     1      35.056 -19.897 -21.357  0.00  0.00    +0.026 C 
ATOM      9  C   UNL     1      33.777 -20.093 -20.527  0.00  0.00    +0.026 C 
ATOM     10  C   UNL     1      36.273 -19.861 -20.421  0.00  0.00    +0.026 C 
ATOM     11  C   UNL     1      33.865 -21.350 -19.663  0.00  0.00    +0.091 C 
ATOM     12  C   UNL     1      36.347 -21.117 -19.552  0.00  0.00    +0.091 C 
BRANCH   8  13
ATOM     13  C   UNL     1      34.979 -18.668 -22.242  0.00  0.00    -0.022 C 
ATOM     14  C   UNL     1      35.407 -17.434 -21.755  0.00  0.00    -0.004 C 
ATOM     15  C   UNL     1      34.480 -18.775 -23.539  0.00  0.00    -0.004 C 
ATOM     16  C   UNL     1      35.336 -16.303 -22.570  0.00  0.00    -0.000 C 
ATOM     17  C   UNL     1      34.409 -17.645 -24.352  0.00  0.00    -0.000 C 
ATOM     18  C   UNL     1      34.836 -16.408 -23.867  0.00  0.00    -0.000 C 
ENDBRANCH   8  13
ENDBRANCH   1   7
BRANCH   4  19
ATOM     19  S   UNL     1      35.044 -24.518 -13.804  0.00  0.00    +0.061 S 
ATOM     20  O   UNL     1      33.703 -25.050 -13.596  0.00  0.00    -0.153 OA
ATOM     21  O   UNL     1      36.176 -25.433 -13.847  0.00  0.00    -0.153 OA
BRANCH  19  22
ATOM     22  N   UNL     1      35.349 -23.330 -12.614  0.00  0.00    -0.168 NA
ATOM     23  H   UNL     1      34.497 -23.241 -12.059  0.00  0.00    +0.149 HD
BRANCH  22  24
ATOM     24  C   UNL     1      36.456 -23.511 -11.664  0.00  0.00    +0.200 C 
BRANCH  24  26
ATOM     25  O   UNL     1      36.315 -24.158  -9.324  0.00  0.00    -0.249 OA
ATOM     26  C   UNL     1      35.954 -24.287 -10.485  0.00  0.00    +0.332 C 
BRANCH  26  27
ATOM     27  O   UNL     1      35.015 -25.182 -10.884  0.00  0.00    -0.479 OA
ATOM     28  H   UNL     1      34.355 -25.468 -10.282  0.00  0.00    +0.295 HD
ENDBRANCH  26  27
ENDBRANCH  24  26
ENDBRANCH  22  24
ENDBRANCH  19  22
ENDBRANCH   4  19
TORSDOF 7
ENDMDL
MODEL 3
REMARK VINA RESULT:     -10.1      6.843      9.821
REMARK  Name = 1948
REMARK  7 active torsions:
REMARK  status: ('A' for Active; 'I' for Inactive)
REMARK    1  A    between atoms: C_1  and  N_7
REMARK    2  A    between atoms: C_4  and  S_19
REMARK    3  A    between atoms: C_8  and  C_13
REMARK    4  A    between atoms: S_19  and  N_22
REMARK    5  A    between atoms: N_22  and  C_24
REMARK    6  A    between atoms: C_24  and  C_26
REMARK    7  A    between atoms: C_26  and  O_27
REMARK                            x       y       z     vdW  Elec       q    Type
REMARK                         _______ _______ _______ _____ _____    ______ ____
ROOT
ATOM      1  C   UNL     1      34.164 -14.336 -22.197  0.00  0.00    +0.048 C 
ATOM      2  C   UNL     1      34.374 -14.781 -20.878  0.00  0.00    +0.016 C 
ATOM      3  C   UNL     1      34.477 -15.214 -23.252  0.00  0.00    +0.016 C 
ATOM      4  C   UNL     1      35.181 -16.911 -21.683  0.00  0.00    +0.122 C 
ATOM      5  C   UNL     1      34.878 -16.057 -20.623  0.00  0.00    +0.021 C 
ATOM      6  C   UNL     1      34.982 -16.490 -22.998  0.00  0.00    +0.021 C 
ENDROOT
BRANCH   1   7
ATOM      7  N   UNL     1      33.659 -13.055 -22.453  0.00  0.00    -0.307 N 
ATOM      8  C   UNL     1      32.489 -10.471 -23.030  0.00  0.00    +0.026 C 
ATOM      9  C   UNL     1      32.207 -11.208 -21.711  0.00  0.00    +0.026 C 
ATOM     10  C   UNL     1      33.883 -10.859 -23.545  0.00  0.00    +0.026 C 
ATOM     11  C   UNL     1      32.348 -12.720 -21.881  0.00  0.00    +0.091 C 
ATOM     12  C   UNL     1      34.019 -12.374 -23.701  0.00  0.00    +0.091 C 
BRANCH   8  13
ATOM     13  C   UNL     1      32.329  -8.969 -22.890  0.00  0.00    -0.022 C 
ATOM     14  C   UNL     1      31.100  -8.373 -23.166  0.00  0.00    -0.004 C 
ATOM     15  C   UNL     1      33.411  -8.190 -22.486  0.00  0.00    -0.004 C 
ATOM     16  C   UNL     1      30.953  -6.992 -23.038  0.00  0.00    -0.000 C 
ATOM     17  C   UNL     1      33.264  -6.809 -22.358  0.00  0.00    -0.000 C 
ATOM     18  C   UNL     1      32.034  -6.210 -22.634  0.00  0.00    -0.000 C 
ENDBRANCH   8  13
ENDBRANCH   1   7
BRANCH   4  19
ATOM     19  S   UNL     1      35.813 -18.508 -21.365  0.00  0.00    +0.061 S 
ATOM     20  O   UNL     1      36.015 -19.194 -22.634  0.00  0.00    -0.153 OA
ATOM     21  O   UNL     1      36.932 -18.368 -20.443  0.00  0.00    -0.153 OA
BRANCH  19  22
ATOM     22  N   UNL     1      34.518 -19.257 -20.539  0.00  0.00    -0.168 NA
ATOM     23  H   UNL     1      33.732 -19.291 -21.190  0.00  0.00    +0.149 HD
BRANCH  22  24
ATOM     24  C   UNL     1      34.680 -20.615 -20.001  0.00  0.00    +0.200 C 
BRANCH  24  26
ATOM     25  O   UNL     1      33.083 -22.265 -19.198  0.00  0.00    -0.249 OA
ATOM     26  C   UNL     1      33.334 -21.139 -19.604  0.00  0.00    +0.332 C 
BRANCH  26  27
ATOM     27  O   UNL     1      32.396 -20.169 -19.756  0.00  0.00    -0.479 OA
ATOM     28  H   UNL     1      31.689 -20.102 -19.144  0.00  0.00    +0.295 HD
ENDBRANCH  26  27
ENDBRANCH  24  26
ENDBRANCH  22  24
ENDBRANCH  19  22
ENDBRANCH   4  19
TORSDOF 7
ENDMDL
MODEL 4
REMARK VINA RESULT:     -10.1      6.847      9.848
REMARK  Name = 1948
REMARK  7 active torsions:
REMARK  status: ('A' for Active; 'I' for Inactive)
REMARK    1  A    between atoms: C_1  and  N_7
REMARK    2  A    between atoms: C_4  and  S_19
REMARK    3  A    between atoms: C_8  and  C_13
REMARK    4  A    between atoms: S_19  and  N_22
REMARK    5  A    between atoms: N_22  and  C_24
REMARK    6  A    between atoms: C_24  and  C_26
REMARK    7  A    between atoms: C_26  and  O_27
REMARK                            x       y       z     vdW  Elec       q    Type
REMARK                         _______ _______ _______ _____ _____    ______ ____
ROOT
ATOM      1  C   UNL     1      34.183 -14.318 -22.166  0.00  0.00    +0.048 C 
ATOM      2  C   UNL     1      34.513 -15.187 -23.225  0.00  0.00    +0.016 C 
ATOM      3  C   UNL     1      34.380 -14.773 -20.848  0.00  0.00    +0.016 C 
ATOM      4  C   UNL     1      35.208 -16.892 -21.661  0.00  0.00    +0.122 C 
ATOM      5  C   UNL     1      35.021 -16.462 -22.975  0.00  0.00    +0.021 C 
ATOM      6  C   UNL     1      34.887 -16.049 -20.598  0.00  0.00    +0.021 C 
ENDROOT
BRANCH   1   7
ATOM      7  N   UNL     1      33.672 -13.039 -22.417  0.00  0.00    -0.307 N 
ATOM      8  C   UNL     1      32.490 -10.458 -22.983  0.00  0.00    +0.026 C 
ATOM      9  C   UNL     1      32.223 -11.195 -21.661  0.00  0.00    +0.026 C 
ATOM     10  C   UNL     1      33.879 -10.842 -23.512  0.00  0.00    +0.026 C 
ATOM     11  C   UNL     1      32.366 -12.707 -21.832  0.00  0.00    +0.091 C 
ATOM     12  C   UNL     1      34.018 -12.357 -23.670  0.00  0.00    +0.091 C 
BRANCH   8  13
ATOM     13  C   UNL     1      32.328  -8.957 -22.841  0.00  0.00    -0.022 C 
ATOM     14  C   UNL     1      33.402  -8.180 -22.411  0.00  0.00    -0.004 C 
ATOM     15  C   UNL     1      31.106  -8.358 -23.141  0.00  0.00    -0.004 C 
ATOM     16  C   UNL     1      33.253  -6.799 -22.280  0.00  0.00    -0.000 C 
ATOM     17  C   UNL     1      30.956  -6.978 -23.010  0.00  0.00    -0.000 C 
ATOM     18  C   UNL     1      32.031  -6.198 -22.578  0.00  0.00    -0.000 C 
ENDBRANCH   8  13
ENDBRANCH   1   7
BRANCH   4  19
ATOM     19  S   UNL     1      35.843 -18.488 -21.348  0.00  0.00    +0.061 S 
ATOM     20  O   UNL     1      36.124 -19.139 -22.621  0.00  0.00    -0.153 OA
ATOM     21  O   UNL     1      36.909 -18.358 -20.363  0.00  0.00    -0.153 OA
BRANCH  19  22
ATOM     22  N   UNL     1      34.515 -19.275 -20.614  0.00  0.00    -0.168 NA
ATOM     23  H   UNL     1      33.799 -19.379 -21.333  0.00  0.00    +0.149 HD
BRANCH  22  24
ATOM     24  C   UNL     1      34.696 -20.598 -20.000  0.00  0.00    +0.200 C 
BRANCH  24  26
ATOM     25  O   UNL     1      33.097 -22.302 -19.328  0.00  0.00    -0.249 OA
ATOM     26  C   UNL     1      33.350 -21.148 -19.639  0.00  0.00    +0.332 C 
BRANCH  26  27
ATOM     27  O   UNL     1      32.415 -20.165 -19.704  0.00  0.00    -0.479 OA
ATOM     28  H   UNL     1      32.118 -19.749 -18.918  0.00  0.00    +0.295 HD
ENDBRANCH  26  27
ENDBRANCH  24  26
ENDBRANCH  22  24
ENDBRANCH  19  22
ENDBRANCH   4  19
TORSDOF 7
ENDMDL
MODEL 5
REMARK VINA RESULT:      -9.9      1.689      2.995
REMARK  Name = 1948
REMARK  7 active torsions:
REMARK  status: ('A' for Active; 'I' for Inactive)
REMARK    1  A    between atoms: C_1  and  N_7
REMARK    2  A    between atoms: C_4  and  S_19
REMARK    3  A    between atoms: C_8  and  C_13
REMARK    4  A    between atoms: S_19  and  N_22
REMARK    5  A    between atoms: N_22  and  C_24
REMARK    6  A    between atoms: C_24  and  C_26
REMARK    7  A    between atoms: C_26  and  O_27
REMARK                            x       y       z     vdW  Elec       q    Type
REMARK                         _______ _______ _______ _____ _____    ______ ____
ROOT
ATOM      1  C   UNL     1      35.983 -21.640 -17.785  0.00  0.00    +0.048 C 
ATOM      2  C   UNL     1      34.943 -22.440 -17.272  0.00  0.00    +0.016 C 
ATOM      3  C   UNL     1      37.198 -21.595 -17.074  0.00  0.00    +0.016 C 
ATOM      4  C   UNL     1      36.325 -23.109 -15.406  0.00  0.00    +0.122 C 
ATOM      5  C   UNL     1      35.112 -23.167 -16.093  0.00  0.00    +0.021 C 
ATOM      6  C   UNL     1      37.367 -22.322 -15.895  0.00  0.00    +0.021 C 
ENDROOT
BRANCH   1   7
ATOM      7  N   UNL     1      35.813 -20.909 -18.967  0.00  0.00    -0.307 N 
ATOM      8  C   UNL     1      35.432 -19.525 -21.481  0.00  0.00    +0.026 C 
ATOM      9  C   UNL     1      34.247 -19.892 -20.574  0.00  0.00    +0.026 C 
ATOM     10  C   UNL     1      36.685 -19.306 -20.621  0.00  0.00    +0.026 C 
ATOM     11  C   UNL     1      34.565 -21.114 -19.713  0.00  0.00    +0.091 C 
ATOM     12  C   UNL     1      36.991 -20.529 -19.755  0.00  0.00    +0.091 C 
BRANCH   8  13
ATOM     13  C   UNL     1      35.127 -18.329 -22.362  0.00  0.00    -0.022 C 
ATOM     14  C   UNL     1      35.391 -17.041 -21.899  0.00  0.00    -0.004 C 
ATOM     15  C   UNL     1      34.584 -18.521 -23.630  0.00  0.00    -0.004 C 
ATOM     16  C   UNL     1      35.110 -15.940 -22.710  0.00  0.00    -0.000 C 
ATOM     17  C   UNL     1      34.303 -17.421 -24.441  0.00  0.00    -0.000 C 
ATOM     18  C   UNL     1      34.566 -16.131 -23.979  0.00  0.00    -0.000 C 
ENDBRANCH   8  13
ENDBRANCH   1   7
BRANCH   4  19
ATOM     19  S   UNL     1      36.536 -24.018 -13.931  0.00  0.00    +0.061 S 
ATOM     20  O   UNL     1      36.141 -25.400 -14.172  0.00  0.00    -0.153 OA
ATOM     21  O   UNL     1      37.871 -23.736 -13.421  0.00  0.00    -0.153 OA
BRANCH  19  22
ATOM     22  N   UNL     1      35.390 -23.298 -12.887  0.00  0.00    -0.168 NA
ATOM     23  H   UNL     1      34.807 -22.690 -13.463  0.00  0.00    +0.149 HD
BRANCH  22  24
ATOM     24  C   UNL     1      34.477 -24.145 -12.105  0.00  0.00    +0.200 C 
BRANCH  24  26
ATOM     25  O   UNL     1      32.264 -23.376 -12.757  0.00  0.00    -0.249 OA
ATOM     26  C   UNL     1      33.158 -24.208 -12.813  0.00  0.00    +0.332 C 
BRANCH  26  27
ATOM     27  O   UNL     1      33.081 -25.346 -13.550  0.00  0.00    -0.479 OA
ATOM     28  H   UNL     1      33.453 -25.372 -14.410  0.00  0.00    +0.295 HD
ENDBRANCH  26  27
ENDBRANCH  24  26
ENDBRANCH  22  24
ENDBRANCH  19  22
ENDBRANCH   4  19
TORSDOF 7
ENDMDL
MODEL 6
REMARK VINA RESULT:      -9.7      5.766      6.926
REMARK  Name = 1948
REMARK  7 active torsions:
REMARK  status: ('A' for Active; 'I' for Inactive)
REMARK    1  A    between atoms: C_1  and  N_7
REMARK    2  A    between atoms: C_4  and  S_19
REMARK    3  A    between atoms: C_8  and  C_13
REMARK    4  A    between atoms: S_19  and  N_22
REMARK    5  A    between atoms: N_22  and  C_24
REMARK    6  A    between atoms: C_24  and  C_26
REMARK    7  A    between atoms: C_26  and  O_27
REMARK                            x       y       z     vdW  Elec       q    Type
REMARK                         _______ _______ _______ _____ _____    ______ ____
ROOT
ATOM      1  C   UNL     1      33.930 -23.836 -13.619  0.00  0.00    +0.048 C 
ATOM      2  C   UNL     1      34.127 -24.517 -12.401  0.00  0.00    +0.016 C 
ATOM      3  C   UNL     1      35.048 -23.239 -14.233  0.00  0.00    +0.016 C 
ATOM      4  C   UNL     1      36.487 -23.999 -12.448  0.00  0.00    +0.122 C 
ATOM      5  C   UNL     1      35.394 -24.597 -11.821  0.00  0.00    +0.021 C 
ATOM      6  C   UNL     1      36.314 -23.319 -13.653  0.00  0.00    +0.021 C 
ENDROOT
BRANCH   1   7
ATOM      7  N   UNL     1      32.659 -23.755 -14.201  0.00  0.00    -0.307 N 
ATOM      8  C   UNL     1      30.027 -23.735 -15.405  0.00  0.00    +0.026 C 
ATOM      9  C   UNL     1      30.219 -23.882 -13.888  0.00  0.00    +0.026 C 
ATOM     10  C   UNL     1      31.189 -22.919 -15.991  0.00  0.00    +0.026 C 
ATOM     11  C   UNL     1      31.574 -24.508 -13.559  0.00  0.00    +0.091 C 
ATOM     12  C   UNL     1      32.541 -23.545 -15.648  0.00  0.00    +0.091 C 
BRANCH   8  13
ATOM     13  C   UNL     1      28.677 -23.139 -15.755  0.00  0.00    -0.022 C 
ATOM     14  C   UNL     1      27.872 -22.606 -14.749  0.00  0.00    -0.004 C 
ATOM     15  C   UNL     1      28.245 -23.126 -17.079  0.00  0.00    -0.004 C 
ATOM     16  C   UNL     1      26.630 -22.059 -15.070  0.00  0.00    -0.000 C 
ATOM     17  C   UNL     1      27.003 -22.579 -17.400  0.00  0.00    -0.000 C 
ATOM     18  C   UNL     1      26.195 -22.045 -16.395  0.00  0.00    -0.000 C 
ENDBRANCH   8  13
ENDBRANCH   1   7
BRANCH   4  19
ATOM     19  S   UNL     1      38.071 -24.099 -11.721  0.00  0.00    +0.061 S 
ATOM     20  O   UNL     1      38.455 -22.775 -11.250  0.00  0.00    -0.153 OA
ATOM     21  O   UNL     1      38.062 -25.215 -10.785  0.00  0.00    -0.153 OA
BRANCH  19  22
ATOM     22  N   UNL     1      39.060 -24.513 -13.052  0.00  0.00    -0.168 NA
ATOM     23  H   UNL     1      40.028 -24.384 -12.753  0.00  0.00    +0.149 HD
BRANCH  22  24
ATOM     24  C   UNL     1      38.973 -25.857 -13.639  0.00  0.00    +0.200 C 
BRANCH  24  26
ATOM     25  O   UNL     1      41.269 -26.655 -13.729  0.00  0.00    -0.249 OA
ATOM     26  C   UNL     1      40.286 -26.186 -14.283  0.00  0.00    +0.332 C 
BRANCH  26  27
ATOM     27  O   UNL     1      40.240 -25.886 -15.607  0.00  0.00    -0.479 OA
ATOM     28  H   UNL     1      39.926 -25.048 -15.886  0.00  0.00    +0.295 HD
ENDBRANCH  26  27
ENDBRANCH  24  26
ENDBRANCH  22  24
ENDBRANCH  19  22
ENDBRANCH   4  19
TORSDOF 7
ENDMDL
MODEL 7
REMARK VINA RESULT:      -9.1     10.098     13.814
REMARK  Name = 1948
REMARK  7 active torsions:
REMARK  status: ('A' for Active; 'I' for Inactive)
REMARK    1  A    between atoms: C_1  and  N_7
REMARK    2  A    between atoms: C_4  and  S_19
REMARK    3  A    between atoms: C_8  and  C_13
REMARK    4  A    between atoms: S_19  and  N_22
REMARK    5  A    between atoms: N_22  and  C_24
REMARK    6  A    between atoms: C_24  and  C_26
REMARK    7  A    between atoms: C_26  and  O_27
REMARK                            x       y       z     vdW  Elec       q    Type
REMARK                         _______ _______ _______ _____ _____    ______ ____
ROOT
ATOM      1  C   UNL     1      33.207 -11.750 -23.018  0.00  0.00    +0.048 C 
ATOM      2  C   UNL     1      33.931 -10.697 -23.612  0.00  0.00    +0.016 C 
ATOM      3  C   UNL     1      31.936 -11.463 -22.485  0.00  0.00    +0.016 C 
ATOM      4  C   UNL     1      32.140  -9.146 -23.137  0.00  0.00    +0.122 C 
ATOM      5  C   UNL     1      33.402  -9.407 -23.671  0.00  0.00    +0.021 C 
ATOM      6  C   UNL     1      31.407 -10.173 -22.544  0.00  0.00    +0.021 C 
ENDROOT
BRANCH   1   7
ATOM      7  N   UNL     1      33.738 -13.044 -22.958  0.00  0.00    -0.307 N 
ATOM      8  C   UNL     1      34.970 -15.659 -22.815  0.00  0.00    +0.026 C 
ATOM      9  C   UNL     1      34.595 -14.874 -21.548  0.00  0.00    +0.026 C 
ATOM     10  C   UNL     1      34.014 -15.279 -23.955  0.00  0.00    +0.026 C 
ATOM     11  C   UNL     1      34.595 -13.368 -21.810  0.00  0.00    +0.091 C 
ATOM     12  C   UNL     1      34.012 -13.770 -24.203  0.00  0.00    +0.091 C 
BRANCH   8  13
ATOM     13  C   UNL     1      35.001 -17.156 -22.571  0.00  0.00    -0.022 C 
ATOM     14  C   UNL     1      34.666 -18.034 -23.600  0.00  0.00    -0.004 C 
ATOM     15  C   UNL     1      35.363 -17.648 -21.319  0.00  0.00    -0.004 C 
ATOM     16  C   UNL     1      34.693 -19.411 -23.374  0.00  0.00    -0.000 C 
ATOM     17  C   UNL     1      35.391 -19.024 -21.094  0.00  0.00    -0.000 C 
ATOM     18  C   UNL     1      35.055 -19.906 -22.122  0.00  0.00    -0.000 C 
ENDBRANCH   8  13
ENDBRANCH   1   7
BRANCH   4  19
ATOM     19  S   UNL     1      31.479  -7.532 -23.211  0.00  0.00    +0.061 S 
ATOM     20  O   UNL     1      32.507  -6.626 -23.708  0.00  0.00    -0.153 OA
ATOM     21  O   UNL     1      30.199  -7.606 -23.902  0.00  0.00    -0.153 OA
BRANCH  19  22
ATOM     22  N   UNL     1      31.190  -7.177 -21.564  0.00  0.00    -0.168 NA
ATOM     23  H   UNL     1      30.989  -8.065 -21.102  0.00  0.00    +0.149 HD
BRANCH  22  24
ATOM     24  C   UNL     1      32.227  -6.508 -20.766  0.00  0.00    +0.200 C 
BRANCH  24  26
ATOM     25  O   UNL     1      32.482  -8.672 -19.686  0.00  0.00    -0.249 OA
ATOM     26  C   UNL     1      32.813  -7.502 -19.810  0.00  0.00    +0.332 C 
BRANCH  26  27
ATOM     27  O   UNL     1      33.793  -6.917 -19.076  0.00  0.00    -0.479 OA
ATOM     28  H   UNL     1      33.582  -6.226 -18.478  0.00  0.00    +0.295 HD
ENDBRANCH  26  27
ENDBRANCH  24  26
ENDBRANCH  22  24
ENDBRANCH  19  22
ENDBRANCH   4  19
TORSDOF 7
ENDMDL
MODEL 8
REMARK VINA RESULT:      -9.1      9.482     13.113
REMARK  Name = 1948
REMARK  7 active torsions:
REMARK  status: ('A' for Active; 'I' for Inactive)
REMARK    1  A    between atoms: C_1  and  N_7
REMARK    2  A    between atoms: C_4  and  S_19
REMARK    3  A    between atoms: C_8  and  C_13
REMARK    4  A    between atoms: S_19  and  N_22
REMARK    5  A    between atoms: N_22  and  C_24
REMARK    6  A    between atoms: C_24  and  C_26
REMARK    7  A    between atoms: C_26  and  O_27
REMARK                            x       y       z     vdW  Elec       q    Type
REMARK                         _______ _______ _______ _____ _____    ______ ____
ROOT
ATOM      1  C   UNL     1      33.574 -12.897 -22.396  0.00  0.00    +0.048 C 
ATOM      2  C   UNL     1      32.444 -12.420 -21.704  0.00  0.00    +0.016 C 
ATOM      3  C   UNL     1      34.123 -12.086 -23.408  0.00  0.00    +0.016 C 
ATOM      4  C   UNL     1      32.446 -10.392 -23.017  0.00  0.00    +0.122 C 
ATOM      5  C   UNL     1      31.885 -11.179 -22.012  0.00  0.00    +0.021 C 
ATOM      6  C   UNL     1      33.564 -10.845 -23.716  0.00  0.00    +0.021 C 
ENDROOT
BRANCH   1   7
ATOM      7  N   UNL     1      34.134 -14.143 -22.089  0.00  0.00    -0.307 N 
ATOM      8  C   UNL     1      35.419 -16.648 -21.415  0.00  0.00    +0.026 C 
ATOM      9  C   UNL     1      34.750 -15.770 -20.345  0.00  0.00    +0.026 C 
ATOM     10  C   UNL     1      34.711 -16.441 -22.762  0.00  0.00    +0.026 C 
ATOM     11  C   UNL     1      34.741 -14.300 -20.761  0.00  0.00    +0.091 C 
ATOM     12  C   UNL     1      34.697 -14.966 -23.165  0.00  0.00    +0.091 C 
BRANCH   8  13
ATOM     13  C   UNL     1      35.461 -18.109 -21.010  0.00  0.00    -0.022 C 
ATOM     14  C   UNL     1      34.279 -18.845 -20.945  0.00  0.00    -0.004 C 
ATOM     15  C   UNL     1      36.679 -18.710 -20.703  0.00  0.00    -0.004 C 
ATOM     16  C   UNL     1      34.317 -20.189 -20.572  0.00  0.00    -0.000 C 
ATOM     17  C   UNL     1      36.718 -20.054 -20.331  0.00  0.00    -0.000 C 
ATOM     18  C   UNL     1      35.536 -20.793 -20.265  0.00  0.00    -0.000 C 
ENDBRANCH   8  13
ENDBRANCH   1   7
BRANCH   4  19
ATOM     19  S   UNL     1      31.746  -8.839 -23.402  0.00  0.00    +0.061 S 
ATOM     20  O   UNL     1      32.106  -8.489 -24.770  0.00  0.00    -0.153 OA
ATOM     21  O   UNL     1      30.340  -8.878 -23.022  0.00  0.00    -0.153 OA
BRANCH  19  22
ATOM     22  N   UNL     1      32.570  -7.790 -22.334  0.00  0.00    -0.168 NA
ATOM     23  H   UNL     1      32.829  -6.963 -22.874  0.00  0.00    +0.149 HD
BRANCH  22  24
ATOM     24  C   UNL     1      31.900  -7.309 -21.117  0.00  0.00    +0.200 C 
BRANCH  24  26
ATOM     25  O   UNL     1      32.162  -9.058 -19.448  0.00  0.00    -0.249 OA
ATOM     26  C   UNL     1      32.512  -7.992 -19.932  0.00  0.00    +0.332 C 
BRANCH  26  27
ATOM     27  O   UNL     1      33.541  -7.250 -19.449  0.00  0.00    -0.479 OA
ATOM     28  H   UNL     1      34.416  -7.414 -19.745  0.00  0.00    +0.295 HD
ENDBRANCH  26  27
ENDBRANCH  24  26
ENDBRANCH  22  24
ENDBRANCH  19  22
ENDBRANCH   4  19
TORSDOF 7
ENDMDL
MODEL 9
REMARK VINA RESULT:      -8.8     12.541     16.458
REMARK  Name = 1948
REMARK  7 active torsions:
REMARK  status: ('A' for Active; 'I' for Inactive)
REMARK    1  A    between atoms: C_1  and  N_7
REMARK    2  A    between atoms: C_4  and  S_19
REMARK    3  A    between atoms: C_8  and  C_13
REMARK    4  A    between atoms: S_19  and  N_22
REMARK    5  A    between atoms: N_22  and  C_24
REMARK    6  A    between atoms: C_24  and  C_26
REMARK    7  A    between atoms: C_26  and  O_27
REMARK                            x       y       z     vdW  Elec       q    Type
REMARK                         _______ _______ _______ _____ _____    ______ ____
ROOT
ATOM      1  C   UNL     1      31.957  -9.121 -22.416  0.00  0.00    +0.048 C 
ATOM      2  C   UNL     1      32.141  -8.367 -21.241  0.00  0.00    +0.016 C 
ATOM      3  C   UNL     1      31.373  -8.485 -23.528  0.00  0.00    +0.016 C 
ATOM      4  C   UNL     1      31.181  -6.416 -22.295  0.00  0.00    +0.122 C 
ATOM      5  C   UNL     1      31.756  -7.027 -21.181  0.00  0.00    +0.021 C 
ATOM      6  C   UNL     1      30.988  -7.145 -23.468  0.00  0.00    +0.021 C 
ENDROOT
BRANCH   1   7
ATOM      7  N   UNL     1      32.342 -10.466 -22.476  0.00  0.00    -0.307 N 
ATOM      8  C   UNL     1      33.075 -13.254 -22.735  0.00  0.00    +0.026 C 
ATOM      9  C   UNL     1      33.937 -12.134 -23.338  0.00  0.00    +0.026 C 
ATOM     10  C   UNL     1      32.343 -12.725 -21.494  0.00  0.00    +0.026 C 
ATOM     11  C   UNL     1      33.095 -10.900 -23.660  0.00  0.00    +0.091 C 
ATOM     12  C   UNL     1      31.512 -11.484 -21.821  0.00  0.00    +0.091 C 
BRANCH   8  13
ATOM     13  C   UNL     1      33.888 -14.499 -22.432  0.00  0.00    -0.022 C 
ATOM     14  C   UNL     1      34.199 -14.820 -21.112  0.00  0.00    -0.004 C 
ATOM     15  C   UNL     1      34.322 -15.316 -23.474  0.00  0.00    -0.004 C 
ATOM     16  C   UNL     1      34.947 -15.964 -20.834  0.00  0.00    -0.000 C 
ATOM     17  C   UNL     1      35.069 -16.460 -23.195  0.00  0.00    -0.000 C 
ATOM     18  C   UNL     1      35.382 -16.783 -21.874  0.00  0.00    -0.000 C 
ENDBRANCH   8  13
ENDBRANCH   1   7
BRANCH   4  19
ATOM     19  S   UNL     1      30.699  -4.740 -22.219  0.00  0.00    +0.061 S 
ATOM     20  O   UNL     1      29.502  -4.633 -21.394  0.00  0.00    -0.153 OA
ATOM     21  O   UNL     1      31.876  -3.954 -21.875  0.00  0.00    -0.153 OA
BRANCH  19  22
ATOM     22  N   UNL     1      30.275  -4.406 -23.841  0.00  0.00    -0.168 NA
ATOM     23  H   UNL     1      29.285  -4.158 -23.843  0.00  0.00    +0.149 HD
BRANCH  22  24
ATOM     24  C   UNL     1      30.979  -3.347 -24.578  0.00  0.00    +0.200 C 
BRANCH  24  26
ATOM     25  O   UNL     1      31.896  -4.055 -26.716  0.00  0.00    -0.249 OA
ATOM     26  C   UNL     1      31.975  -3.984 -25.498  0.00  0.00    +0.332 C 
BRANCH  26  27
ATOM     27  O   UNL     1      33.013  -4.486 -24.782  0.00  0.00    -0.479 OA
ATOM     28  H   UNL     1      33.342  -4.015 -24.041  0.00  0.00    +0.295 HD
ENDBRANCH  26  27
ENDBRANCH  24  26
ENDBRANCH  22  24
ENDBRANCH  19  22
ENDBRANCH   4  19
TORSDOF 7
ENDMDL
