MODEL 1
REMARK VINA RESULT:     -11.2      0.000      0.000
REMARK  Name = 10477723
REMARK  8 active torsions:
REMARK  status: ('A' for Active; 'I' for Inactive)
REMARK    1  A    between atoms: C_1  and  C_9
REMARK    2  A    between atoms: C_2  and  N_24
REMARK    3  A    between atoms: N_8  and  C_13
REMARK    4  A    between atoms: C_11  and  C_21
REMARK    5  A    between atoms: C_12  and  C_20
REMARK    6  A    between atoms: C_21  and  C_22
REMARK    7  A    between atoms: N_24  and  C_26
REMARK    8  A    between atoms: C_26  and  C_29
REMARK                            x       y       z     vdW  Elec       q    Type
REMARK                         _______ _______ _______ _____ _____    ______ ____
ROOT
ATOM      1  C   UNL     1      34.235 -15.473 -22.817  0.00  0.00    +0.067 C 
ATOM      2  C   UNL     1      33.577 -14.261 -22.541  0.00  0.00    +0.049 C 
ATOM      3  C   UNL     1      34.404 -15.911 -24.131  0.00  0.00    +0.006 C 
ATOM      4  C   UNL     1      33.095 -13.501 -23.622  0.00  0.00    +0.014 C 
ATOM      5  C   UNL     1      33.918 -15.144 -25.190  0.00  0.00    +0.000 C 
ATOM      6  C   UNL     1      33.264 -13.938 -24.935  0.00  0.00    +0.001 C 
ENDROOT
BRANCH   1   9
ATOM      7  O   UNL     1      35.027 -15.762 -20.649  0.00  0.00    -0.270 OA
ATOM      8  N   UNL     1      34.876 -17.665 -22.014  0.00  0.00    -0.280 N 
ATOM      9  C   UNL     1      34.753 -16.298 -21.734  0.00  0.00    +0.251 C 
ATOM     10  H   UNL     1      34.619 -17.941 -22.923  0.00  0.00    +0.155 HD
BRANCH   8  13
ATOM     11  C   UNL     1      36.197 -20.728 -19.487  0.00  0.00    -0.018 C 
ATOM     12  C   UNL     1      34.853 -20.661 -19.858  0.00  0.00    +0.069 C 
ATOM     13  C   UNL     1      35.322 -18.702 -21.159  0.00  0.00    +0.050 C 
ATOM     14  C   UNL     1      37.099 -19.775 -19.958  0.00  0.00    -0.003 C 
ATOM     15  C   UNL     1      34.413 -19.640 -20.701  0.00  0.00    +0.018 C 
ATOM     16  C   UNL     1      36.659 -18.754 -20.800  0.00  0.00    +0.014 C 
BRANCH  12  20
ATOM     17  F   UNL     1      34.280 -22.961 -19.540  0.00  0.00    -0.166 F 
ATOM     18  F   UNL     1      33.594 -21.559 -18.034  0.00  0.00    -0.166 F 
ATOM     19  F   UNL     1      32.664 -21.579 -20.000  0.00  0.00    -0.166 F 
ATOM     20  C   UNL     1      33.869 -21.671 -19.367  0.00  0.00    +0.418 C 
ENDBRANCH  12  20
BRANCH  11  21
ATOM     21  C   UNL     1      36.690 -21.812 -18.586  0.00  0.00    +0.026 C 
BRANCH  21  22
ATOM     22  C   UNL     1      36.853 -21.333 -17.137  0.00  0.00    +0.005 C 
ATOM     23  C   UNL     1      36.283 -22.331 -16.143  0.00  0.00    +0.000 C 
ENDBRANCH  21  22
ENDBRANCH  11  21
ENDBRANCH   8  13
ENDBRANCH   1   9
BRANCH   2  24
ATOM     24  N   UNL     1      33.399 -13.807 -21.240  0.00  0.00    -0.329 N 
ATOM     25  H   UNL     1      34.200 -13.660 -20.687  0.00  0.00    +0.147 HD
BRANCH  24  26
ATOM     26  C   UNL     1      32.115 -13.538 -20.653  0.00  0.00    +0.116 C 
BRANCH  26  29
ATOM     27  O   UNL     1      31.723  -8.125 -19.456  0.00  0.00    -0.270 OA
ATOM     28  N   UNL     1      31.675  -9.821 -21.025  0.00  0.00    -0.280 N 
ATOM     29  C   UNL     1      32.002 -12.072 -20.378  0.00  0.00    +0.012 C 
ATOM     30  C   UNL     1      31.771 -11.156 -21.331  0.00  0.00    +0.061 C 
ATOM     31  C   UNL     1      32.150 -11.627 -19.007  0.00  0.00    +0.003 C 
ATOM     32  C   UNL     1      32.062 -10.332 -18.679  0.00  0.00    +0.058 C 
ATOM     33  C   UNL     1      31.806  -9.317 -19.741  0.00  0.00    +0.250 C 
ATOM     34  H   UNL     1      31.504  -9.187 -21.758  0.00  0.00    +0.155 HD
ENDBRANCH  26  29
ENDBRANCH  24  26
ENDBRANCH   2  24
TORSDOF 8
ENDMDL
MODEL 2
REMARK VINA RESULT:     -11.0      2.081      3.211
REMARK  Name = 10477723
REMARK  8 active torsions:
REMARK  status: ('A' for Active; 'I' for Inactive)
REMARK    1  A    between atoms: C_1  and  C_9
REMARK    2  A    between atoms: C_2  and  N_24
REMARK    3  A    between atoms: N_8  and  C_13
REMARK    4  A    between atoms: C_11  and  C_21
REMARK    5  A    between atoms: C_12  and  C_20
REMARK    6  A    between atoms: C_21  and  C_22
REMARK    7  A    between atoms: N_24  and  C_26
REMARK    8  A    between atoms: C_26  and  C_29
REMARK                            x       y       z     vdW  Elec       q    Type
REMARK                         _______ _______ _______ _____ _____    ______ ____
ROOT
ATOM      1  C   UNL     1      35.126 -18.513 -22.330  0.00  0.00    +0.067 C 
ATOM      2  C   UNL     1      35.099 -17.128 -22.575  0.00  0.00    +0.049 C 
ATOM      3  C   UNL     1      34.685 -19.419 -23.295  0.00  0.00    +0.006 C 
ATOM      4  C   UNL     1      34.616 -16.680 -23.818  0.00  0.00    +0.014 C 
ATOM      5  C   UNL     1      34.208 -18.954 -24.521  0.00  0.00    +0.000 C 
ATOM      6  C   UNL     1      34.175 -17.585 -24.783  0.00  0.00    +0.001 C 
ENDROOT
BRANCH   1   9
ATOM      7  O   UNL     1      36.500 -18.403 -20.456  0.00  0.00    -0.270 OA
ATOM      8  N   UNL     1      35.012 -20.211 -20.607  0.00  0.00    -0.280 N 
ATOM      9  C   UNL     1      35.616 -19.031 -21.059  0.00  0.00    +0.251 C 
ATOM     10  H   UNL     1      34.324 -20.593 -21.199  0.00  0.00    +0.155 HD
BRANCH   8  13
ATOM     11  C   UNL     1      35.752 -22.321 -17.070  0.00  0.00    -0.018 C 
ATOM     12  C   UNL     1      34.468 -22.303 -17.616  0.00  0.00    +0.069 C 
ATOM     13  C   UNL     1      35.261 -20.925 -19.410  0.00  0.00    +0.050 C 
ATOM     14  C   UNL     1      36.788 -21.636 -17.704  0.00  0.00    -0.003 C 
ATOM     15  C   UNL     1      34.221 -21.599 -18.795  0.00  0.00    +0.018 C 
ATOM     16  C   UNL     1      36.541 -20.932 -18.882  0.00  0.00    +0.014 C 
BRANCH  12  20
ATOM     17  F   UNL     1      33.333 -24.370 -17.213  0.00  0.00    -0.166 F 
ATOM     18  F   UNL     1      33.352 -22.927 -15.594  0.00  0.00    -0.166 F 
ATOM     19  F   UNL     1      32.120 -22.570 -17.350  0.00  0.00    -0.166 F 
ATOM     20  C   UNL     1      33.342 -23.029 -16.955  0.00  0.00    +0.418 C 
ENDBRANCH  12  20
BRANCH  11  21
ATOM     21  C   UNL     1      36.039 -23.067 -15.809  0.00  0.00    +0.026 C 
BRANCH  21  22
ATOM     22  C   UNL     1      37.488 -22.876 -15.340  0.00  0.00    +0.005 C 
ATOM     23  C   UNL     1      37.996 -24.080 -14.563  0.00  0.00    +0.000 C 
ENDBRANCH  21  22
ENDBRANCH  11  21
ENDBRANCH   8  13
ENDBRANCH   1   9
BRANCH   2  24
ATOM     24  N   UNL     1      35.534 -16.210 -21.628  0.00  0.00    -0.329 N 
ATOM     25  H   UNL     1      36.461 -15.885 -21.690  0.00  0.00    +0.147 HD
BRANCH  24  26
ATOM     26  C   UNL     1      34.712 -15.706 -20.562  0.00  0.00    +0.116 C 
BRANCH  26  29
ATOM     27  O   UNL     1      31.799 -11.282 -22.244  0.00  0.00    -0.270 OA
ATOM     28  N   UNL     1      33.626 -12.672 -22.504  0.00  0.00    -0.280 N 
ATOM     29  C   UNL     1      33.961 -14.508 -21.051  0.00  0.00    +0.012 C 
ATOM     30  C   UNL     1      34.353 -13.764 -22.095  0.00  0.00    +0.061 C 
ATOM     31  C   UNL     1      32.746 -14.140 -20.352  0.00  0.00    +0.003 C 
ATOM     32  C   UNL     1      32.016 -13.081 -20.727  0.00  0.00    +0.058 C 
ATOM     33  C   UNL     1      32.457 -12.257 -21.889  0.00  0.00    +0.250 C 
ATOM     34  H   UNL     1      33.954 -12.158 -23.276  0.00  0.00    +0.155 HD
ENDBRANCH  26  29
ENDBRANCH  24  26
ENDBRANCH   2  24
TORSDOF 8
ENDMDL
MODEL 3
REMARK VINA RESULT:     -10.7      6.259     11.225
REMARK  Name = 10477723
REMARK  8 active torsions:
REMARK  status: ('A' for Active; 'I' for Inactive)
REMARK    1  A    between atoms: C_1  and  C_9
REMARK    2  A    between atoms: C_2  and  N_24
REMARK    3  A    between atoms: N_8  and  C_13
REMARK    4  A    between atoms: C_11  and  C_21
REMARK    5  A    between atoms: C_12  and  C_20
REMARK    6  A    between atoms: C_21  and  C_22
REMARK    7  A    between atoms: N_24  and  C_26
REMARK    8  A    between atoms: C_26  and  C_29
REMARK                            x       y       z     vdW  Elec       q    Type
REMARK                         _______ _______ _______ _____ _____    ______ ____
ROOT
ATOM      1  C   UNL     1      31.245 -23.686 -15.368  0.00  0.00    +0.067 C 
ATOM      2  C   UNL     1      31.587 -24.665 -14.416  0.00  0.00    +0.049 C 
ATOM      3  C   UNL     1      29.914 -23.476 -15.730  0.00  0.00    +0.006 C 
ATOM      4  C   UNL     1      30.553 -25.425 -13.840  0.00  0.00    +0.014 C 
ATOM      5  C   UNL     1      28.904 -24.241 -15.148  0.00  0.00    +0.000 C 
ATOM      6  C   UNL     1      29.223 -25.216 -14.202  0.00  0.00    +0.001 C 
ENDROOT
BRANCH   1   9
ATOM      7  O   UNL     1      33.205 -22.435 -15.297  0.00  0.00    -0.270 OA
ATOM      8  N   UNL     1      32.138 -22.668 -17.374  0.00  0.00    -0.280 N 
ATOM      9  C   UNL     1      32.277 -22.871 -15.996  0.00  0.00    +0.251 C 
ATOM     10  H   UNL     1      31.346 -23.078 -17.790  0.00  0.00    +0.155 HD
BRANCH   8  13
ATOM     11  C   UNL     1      34.652 -20.541 -19.957  0.00  0.00    -0.018 C 
ATOM     12  C   UNL     1      35.198 -21.319 -18.935  0.00  0.00    +0.069 C 
ATOM     13  C   UNL     1      32.990 -21.949 -18.248  0.00  0.00    +0.050 C 
ATOM     14  C   UNL     1      33.268 -20.473 -20.117  0.00  0.00    -0.003 C 
ATOM     15  C   UNL     1      34.360 -22.028 -18.075  0.00  0.00    +0.018 C 
ATOM     16  C   UNL     1      32.431 -21.182 -19.256  0.00  0.00    +0.014 C 
BRANCH  12  20
ATOM     17  F   UNL     1      37.045 -22.206 -17.700  0.00  0.00    -0.166 F 
ATOM     18  F   UNL     1      37.337 -21.910 -19.829  0.00  0.00    -0.166 F 
ATOM     19  F   UNL     1      37.247 -20.192 -18.499  0.00  0.00    -0.166 F 
ATOM     20  C   UNL     1      36.677 -21.407 -18.745  0.00  0.00    +0.418 C 
ENDBRANCH  12  20
BRANCH  11  21
ATOM     21  C   UNL     1      35.529 -19.774 -20.891  0.00  0.00    +0.026 C 
BRANCH  21  22
ATOM     22  C   UNL     1      34.824 -19.450 -22.215  0.00  0.00    +0.005 C 
ATOM     23  C   UNL     1      35.324 -18.149 -22.820  0.00  0.00    +0.000 C 
ENDBRANCH  21  22
ENDBRANCH  11  21
ENDBRANCH   8  13
ENDBRANCH   1   9
BRANCH   2  24
ATOM     24  N   UNL     1      32.906 -24.889 -14.042  0.00  0.00    -0.329 N 
ATOM     25  H   UNL     1      33.473 -25.424 -14.643  0.00  0.00    +0.147 HD
BRANCH  24  26
ATOM     26  C   UNL     1      33.493 -24.388 -12.830  0.00  0.00    +0.116 C 
BRANCH  26  29
ATOM     27  O   UNL     1      39.006 -24.458 -13.525  0.00  0.00    -0.270 OA
ATOM     28  N   UNL     1      37.178 -23.980 -12.195  0.00  0.00    -0.280 N 
ATOM     29  C   UNL     1      34.981 -24.388 -12.972  0.00  0.00    +0.012 C 
ATOM     30  C   UNL     1      35.816 -23.958 -12.014  0.00  0.00    +0.061 C 
ATOM     31  C   UNL     1      35.543 -24.881 -14.213  0.00  0.00    +0.003 C 
ATOM     32  C   UNL     1      36.866 -24.914 -14.419  0.00  0.00    +0.058 C 
ATOM     33  C   UNL     1      37.790 -24.435 -13.351  0.00  0.00    +0.250 C 
ATOM     34  H   UNL     1      37.749 -23.655 -11.463  0.00  0.00    +0.155 HD
ENDBRANCH  26  29
ENDBRANCH  24  26
ENDBRANCH   2  24
TORSDOF 8
ENDMDL
MODEL 4
REMARK VINA RESULT:     -10.5      6.000     10.441
REMARK  Name = 10477723
REMARK  8 active torsions:
REMARK  status: ('A' for Active; 'I' for Inactive)
REMARK    1  A    between atoms: C_1  and  C_9
REMARK    2  A    between atoms: C_2  and  N_24
REMARK    3  A    between atoms: N_8  and  C_13
REMARK    4  A    between atoms: C_11  and  C_21
REMARK    5  A    between atoms: C_12  and  C_20
REMARK    6  A    between atoms: C_21  and  C_22
REMARK    7  A    between atoms: N_24  and  C_26
REMARK    8  A    between atoms: C_26  and  C_29
REMARK                            x       y       z     vdW  Elec       q    Type
REMARK                         _______ _______ _______ _____ _____    ______ ____
ROOT
ATOM      1  C   UNL     1      35.251 -23.982 -14.771  0.00  0.00    +0.067 C 
ATOM      2  C   UNL     1      34.351 -23.832 -13.700  0.00  0.00    +0.049 C 
ATOM      3  C   UNL     1      36.482 -24.613 -14.587  0.00  0.00    +0.006 C 
ATOM      4  C   UNL     1      34.723 -24.335 -12.440  0.00  0.00    +0.014 C 
ATOM      5  C   UNL     1      36.833 -25.104 -13.330  0.00  0.00    +0.000 C 
ATOM      6  C   UNL     1      35.953 -24.966 -12.256  0.00  0.00    +0.001 C 
ENDROOT
BRANCH   1   9
ATOM      7  O   UNL     1      33.932 -23.952 -16.686  0.00  0.00    -0.270 OA
ATOM      8  N   UNL     1      35.741 -22.461 -16.589  0.00  0.00    -0.280 N 
ATOM      9  C   UNL     1      34.915 -23.479 -16.096  0.00  0.00    +0.251 C 
ATOM     10  H   UNL     1      36.485 -22.191 -16.003  0.00  0.00    +0.155 HD
BRANCH   8  13
ATOM     11  C   UNL     1      35.462 -20.416 -20.230  0.00  0.00    -0.018 C 
ATOM     12  C   UNL     1      34.306 -20.874 -19.596  0.00  0.00    +0.069 C 
ATOM     13  C   UNL     1      35.646 -21.769 -17.821  0.00  0.00    +0.050 C 
ATOM     14  C   UNL     1      36.710 -20.641 -19.650  0.00  0.00    -0.003 C 
ATOM     15  C   UNL     1      34.399 -21.555 -18.382  0.00  0.00    +0.018 C 
ATOM     16  C   UNL     1      36.803 -21.322 -18.436  0.00  0.00    +0.014 C 
BRANCH  12  20
ATOM     17  F   UNL     1      33.006 -20.119 -21.457  0.00  0.00    -0.166 F 
ATOM     18  F   UNL     1      32.212 -21.782 -20.313  0.00  0.00    -0.166 F 
ATOM     19  F   UNL     1      32.198 -19.779 -19.467  0.00  0.00    -0.166 F 
ATOM     20  C   UNL     1      32.958 -20.644 -20.198  0.00  0.00    +0.418 C 
ENDBRANCH  12  20
BRANCH  11  21
ATOM     21  C   UNL     1      35.386 -19.684 -21.529  0.00  0.00    +0.026 C 
BRANCH  21  22
ATOM     22  C   UNL     1      36.158 -18.358 -21.493  0.00  0.00    +0.005 C 
ATOM     23  C   UNL     1      35.264 -17.193 -21.098  0.00  0.00    +0.000 C 
ENDBRANCH  21  22
ENDBRANCH  11  21
ENDBRANCH   8  13
ENDBRANCH   1   9
BRANCH   2  24
ATOM     24  N   UNL     1      33.121 -23.207 -13.861  0.00  0.00    -0.329 N 
ATOM     25  H   UNL     1      33.098 -22.352 -14.348  0.00  0.00    +0.147 HD
BRANCH  24  26
ATOM     26  C   UNL     1      31.881 -23.734 -13.362  0.00  0.00    +0.116 C 
BRANCH  26  29
ATOM     27  O   UNL     1      27.938 -23.535 -17.273  0.00  0.00    -0.270 OA
ATOM     28  N   UNL     1      29.946 -22.757 -16.436  0.00  0.00    -0.280 N 
ATOM     29  C   UNL     1      30.845 -23.645 -14.438  0.00  0.00    +0.012 C 
ATOM     30  C   UNL     1      30.926 -22.798 -15.475  0.00  0.00    +0.061 C 
ATOM     31  C   UNL     1      29.698 -24.525 -14.346  0.00  0.00    +0.003 C 
ATOM     32  C   UNL     1      28.726 -24.507 -15.268  0.00  0.00    +0.058 C 
ATOM     33  C   UNL     1      28.821 -23.564 -16.419  0.00  0.00    +0.250 C 
ATOM     34  H   UNL     1      30.050 -22.119 -17.179  0.00  0.00    +0.155 HD
ENDBRANCH  26  29
ENDBRANCH  24  26
ENDBRANCH   2  24
TORSDOF 8
ENDMDL
MODEL 5
REMARK VINA RESULT:     -10.5      6.754     11.324
REMARK  Name = 10477723
REMARK  8 active torsions:
REMARK  status: ('A' for Active; 'I' for Inactive)
REMARK    1  A    between atoms: C_1  and  C_9
REMARK    2  A    between atoms: C_2  and  N_24
REMARK    3  A    between atoms: N_8  and  C_13
REMARK    4  A    between atoms: C_11  and  C_21
REMARK    5  A    between atoms: C_12  and  C_20
REMARK    6  A    between atoms: C_21  and  C_22
REMARK    7  A    between atoms: N_24  and  C_26
REMARK    8  A    between atoms: C_26  and  C_29
REMARK                            x       y       z     vdW  Elec       q    Type
REMARK                         _______ _______ _______ _____ _____    ______ ____
ROOT
ATOM      1  C   UNL     1      36.410 -24.421 -13.263  0.00  0.00    +0.067 C 
ATOM      2  C   UNL     1      35.348 -24.678 -12.377  0.00  0.00    +0.049 C 
ATOM      3  C   UNL     1      37.727 -24.376 -12.806  0.00  0.00    +0.006 C 
ATOM      4  C   UNL     1      35.648 -24.889 -11.018  0.00  0.00    +0.014 C 
ATOM      5  C   UNL     1      38.004 -24.587 -11.456  0.00  0.00    +0.000 C 
ATOM      6  C   UNL     1      36.965 -24.844 -10.562  0.00  0.00    +0.001 C 
ENDROOT
BRANCH   1   9
ATOM      7  O   UNL     1      35.861 -25.163 -15.398  0.00  0.00    -0.270 OA
ATOM      8  N   UNL     1      36.239 -22.865 -15.110  0.00  0.00    -0.280 N 
ATOM      9  C   UNL     1      36.154 -24.195 -14.680  0.00  0.00    +0.251 C 
ATOM     10  H   UNL     1      36.483 -22.206 -14.420  0.00  0.00    +0.155 HD
BRANCH   8  13
ATOM     11  C   UNL     1      35.596 -21.327 -18.949  0.00  0.00    -0.018 C 
ATOM     12  C   UNL     1      34.523 -21.823 -18.207  0.00  0.00    +0.069 C 
ATOM     13  C   UNL     1      36.021 -22.345 -16.409  0.00  0.00    +0.050 C 
ATOM     14  C   UNL     1      36.882 -21.345 -18.410  0.00  0.00    -0.003 C 
ATOM     15  C   UNL     1      34.738 -22.336 -16.928  0.00  0.00    +0.018 C 
ATOM     16  C   UNL     1      37.097 -21.857 -17.131  0.00  0.00    +0.014 C 
BRANCH  12  20
ATOM     17  F   UNL     1      32.706 -20.574 -19.134  0.00  0.00    -0.166 F 
ATOM     18  F   UNL     1      32.991 -22.592 -19.875  0.00  0.00    -0.166 F 
ATOM     19  F   UNL     1      32.213 -22.274 -17.870  0.00  0.00    -0.166 F 
ATOM     20  C   UNL     1      33.136 -21.815 -18.763  0.00  0.00    +0.418 C 
ENDBRANCH  12  20
BRANCH  11  21
ATOM     21  C   UNL     1      35.390 -20.773 -20.320  0.00  0.00    +0.026 C 
BRANCH  21  22
ATOM     22  C   UNL     1      36.200 -19.491 -20.555  0.00  0.00    +0.005 C 
ATOM     23  C   UNL     1      35.400 -18.446 -21.315  0.00  0.00    +0.000 C 
ENDBRANCH  21  22
ENDBRANCH  11  21
ENDBRANCH   8  13
ENDBRANCH   1   9
BRANCH   2  24
ATOM     24  N   UNL     1      34.030 -24.727 -12.811  0.00  0.00    -0.329 N 
ATOM     25  H   UNL     1      33.664 -25.599 -13.083  0.00  0.00    +0.147 HD
BRANCH  24  26
ATOM     26  C   UNL     1      33.166 -23.580 -12.887  0.00  0.00    +0.116 C 
BRANCH  26  29
ATOM     27  O   UNL     1      28.664 -24.735 -15.932  0.00  0.00    -0.270 OA
ATOM     28  N   UNL     1      30.214 -25.394 -14.351  0.00  0.00    -0.280 N 
ATOM     29  C   UNL     1      31.953 -23.935 -13.686  0.00  0.00    +0.012 C 
ATOM     30  C   UNL     1      31.327 -25.118 -13.594  0.00  0.00    +0.061 C 
ATOM     31  C   UNL     1      31.432 -22.942 -14.604  0.00  0.00    +0.003 C 
ATOM     32  C   UNL     1      30.350 -23.183 -15.355  0.00  0.00    +0.058 C 
ATOM     33  C   UNL     1      29.657 -24.499 -15.250  0.00  0.00    +0.250 C 
ATOM     34  H   UNL     1      29.789 -26.276 -14.248  0.00  0.00    +0.155 HD
ENDBRANCH  26  29
ENDBRANCH  24  26
ENDBRANCH   2  24
TORSDOF 8
ENDMDL
MODEL 6
REMARK VINA RESULT:     -10.3      3.744      6.087
REMARK  Name = 10477723
REMARK  8 active torsions:
REMARK  status: ('A' for Active; 'I' for Inactive)
REMARK    1  A    between atoms: C_1  and  C_9
REMARK    2  A    between atoms: C_2  and  N_24
REMARK    3  A    between atoms: N_8  and  C_13
REMARK    4  A    between atoms: C_11  and  C_21
REMARK    5  A    between atoms: C_12  and  C_20
REMARK    6  A    between atoms: C_21  and  C_22
REMARK    7  A    between atoms: N_24  and  C_26
REMARK    8  A    between atoms: C_26  and  C_29
REMARK                            x       y       z     vdW  Elec       q    Type
REMARK                         _______ _______ _______ _____ _____    ______ ____
ROOT
ATOM      1  C   UNL     1      32.074 -11.200 -20.429  0.00  0.00    +0.067 C 
ATOM      2  C   UNL     1      31.949 -10.014 -21.176  0.00  0.00    +0.049 C 
ATOM      3  C   UNL     1      31.944 -11.187 -19.040  0.00  0.00    +0.006 C 
ATOM      4  C   UNL     1      31.688  -8.816 -20.487  0.00  0.00    +0.014 C 
ATOM      5  C   UNL     1      31.687  -9.988 -18.375  0.00  0.00    +0.000 C 
ATOM      6  C   UNL     1      31.558  -8.802 -19.099  0.00  0.00    +0.001 C 
ENDROOT
BRANCH   1   9
ATOM      7  O   UNL     1      31.569 -12.859 -21.980  0.00  0.00    -0.270 OA
ATOM      8  N   UNL     1      33.500 -13.140 -20.677  0.00  0.00    -0.280 N 
ATOM      9  C   UNL     1      32.344 -12.469 -21.093  0.00  0.00    +0.251 C 
ATOM     10  H   UNL     1      34.015 -12.704 -19.961  0.00  0.00    +0.155 HD
BRANCH   8  13
ATOM     11  C   UNL     1      35.052 -16.765 -22.082  0.00  0.00    -0.018 C 
ATOM     12  C   UNL     1      34.499 -15.848 -22.977  0.00  0.00    +0.069 C 
ATOM     13  C   UNL     1      34.025 -14.367 -21.154  0.00  0.00    +0.050 C 
ATOM     14  C   UNL     1      35.086 -16.472 -20.719  0.00  0.00    -0.003 C 
ATOM     15  C   UNL     1      33.983 -14.640 -22.510  0.00  0.00    +0.018 C 
ATOM     16  C   UNL     1      34.569 -15.265 -20.251  0.00  0.00    +0.014 C 
BRANCH  12  20
ATOM     17  F   UNL     1      33.783 -17.290 -24.747  0.00  0.00    -0.166 F 
ATOM     18  F   UNL     1      33.836 -15.164 -25.171  0.00  0.00    -0.166 F 
ATOM     19  F   UNL     1      35.694 -16.279 -24.988  0.00  0.00    -0.166 F 
ATOM     20  C   UNL     1      34.452 -16.139 -24.442  0.00  0.00    +0.418 C 
ENDBRANCH  12  20
BRANCH  11  21
ATOM     21  C   UNL     1      35.611 -18.064 -22.560  0.00  0.00    +0.026 C 
BRANCH  21  22
ATOM     22  C   UNL     1      34.657 -19.237 -22.298  0.00  0.00    +0.005 C 
ATOM     23  C   UNL     1      34.929 -19.901 -20.958  0.00  0.00    +0.000 C 
ENDBRANCH  21  22
ENDBRANCH  11  21
ENDBRANCH   8  13
ENDBRANCH   1   9
BRANCH   2  24
ATOM     24  N   UNL     1      32.075 -10.006 -22.559  0.00  0.00    -0.329 N 
ATOM     25  H   UNL     1      31.272 -10.188 -23.098  0.00  0.00    +0.147 HD
BRANCH  24  26
ATOM     26  C   UNL     1      33.307  -9.746 -23.251  0.00  0.00    +0.116 C 
BRANCH  26  29
ATOM     27  O   UNL     1      33.473  -4.475 -25.004  0.00  0.00    -0.270 OA
ATOM     28  N   UNL     1      32.294  -6.445 -24.743  0.00  0.00    -0.280 N 
ATOM     29  C   UNL     1      33.305  -8.332 -23.738  0.00  0.00    +0.012 C 
ATOM     30  C   UNL     1      32.243  -7.749 -24.313  0.00  0.00    +0.061 C 
ATOM     31  C   UNL     1      34.520  -7.558 -23.574  0.00  0.00    +0.003 C 
ATOM     32  C   UNL     1      34.599  -6.285 -23.983  0.00  0.00    +0.058 C 
ATOM     33  C   UNL     1      33.416  -5.642 -24.623  0.00  0.00    +0.250 C 
ATOM     34  H   UNL     1      31.489  -6.061 -25.159  0.00  0.00    +0.155 HD
ENDBRANCH  26  29
ENDBRANCH  24  26
ENDBRANCH   2  24
TORSDOF 8
ENDMDL
MODEL 7
REMARK VINA RESULT:     -10.2      2.547      3.824
REMARK  Name = 10477723
REMARK  8 active torsions:
REMARK  status: ('A' for Active; 'I' for Inactive)
REMARK    1  A    between atoms: C_1  and  C_9
REMARK    2  A    between atoms: C_2  and  N_24
REMARK    3  A    between atoms: N_8  and  C_13
REMARK    4  A    between atoms: C_11  and  C_21
REMARK    5  A    between atoms: C_12  and  C_20
REMARK    6  A    between atoms: C_21  and  C_22
REMARK    7  A    between atoms: N_24  and  C_26
REMARK    8  A    between atoms: C_26  and  C_29
REMARK                            x       y       z     vdW  Elec       q    Type
REMARK                         _______ _______ _______ _____ _____    ______ ____
ROOT
ATOM      1  C   UNL     1      34.979 -18.561 -22.270  0.00  0.00    +0.067 C 
ATOM      2  C   UNL     1      35.100 -17.165 -22.398  0.00  0.00    +0.049 C 
ATOM      3  C   UNL     1      34.527 -19.340 -23.336  0.00  0.00    +0.006 C 
ATOM      4  C   UNL     1      34.754 -16.575 -23.627  0.00  0.00    +0.014 C 
ATOM      5  C   UNL     1      34.189 -18.736 -24.547  0.00  0.00    +0.000 C 
ATOM      6  C   UNL     1      34.303 -17.353 -24.693  0.00  0.00    +0.001 C 
ENDROOT
BRANCH   1   9
ATOM      7  O   UNL     1      36.306 -18.821 -20.378  0.00  0.00    -0.270 OA
ATOM      8  N   UNL     1      34.475 -20.267 -20.627  0.00  0.00    -0.280 N 
ATOM      9  C   UNL     1      35.323 -19.223 -21.019  0.00  0.00    +0.251 C 
ATOM     10  H   UNL     1      33.735 -20.471 -21.243  0.00  0.00    +0.155 HD
BRANCH   8  13
ATOM     11  C   UNL     1      34.677 -22.632 -17.181  0.00  0.00    -0.018 C 
ATOM     12  C   UNL     1      35.727 -21.769 -17.498  0.00  0.00    +0.069 C 
ATOM     13  C   UNL     1      34.544 -21.067 -19.461  0.00  0.00    +0.050 C 
ATOM     14  C   UNL     1      33.561 -22.706 -18.014  0.00  0.00    -0.003 C 
ATOM     15  C   UNL     1      35.660 -20.981 -18.646  0.00  0.00    +0.018 C 
ATOM     16  C   UNL     1      33.494 -21.918 -19.163  0.00  0.00    +0.014 C 
BRANCH  12  20
ATOM     17  F   UNL     1      36.635 -21.631 -15.289  0.00  0.00    -0.166 F 
ATOM     18  F   UNL     1      37.794 -22.722 -16.762  0.00  0.00    -0.166 F 
ATOM     19  F   UNL     1      37.672 -20.554 -16.869  0.00  0.00    -0.166 F 
ATOM     20  C   UNL     1      36.933 -21.673 -16.621  0.00  0.00    +0.418 C 
ENDBRANCH  12  20
BRANCH  11  21
ATOM     21  C   UNL     1      34.727 -23.486 -15.957  0.00  0.00    +0.026 C 
BRANCH  21  22
ATOM     22  C   UNL     1      33.798 -22.968 -14.851  0.00  0.00    +0.005 C 
ATOM     23  C   UNL     1      32.570 -23.848 -14.684  0.00  0.00    +0.000 C 
ENDBRANCH  21  22
ENDBRANCH  11  21
ENDBRANCH   8  13
ENDBRANCH   1   9
BRANCH   2  24
ATOM     24  N   UNL     1      35.547 -16.372 -21.349  0.00  0.00    -0.329 N 
ATOM     25  H   UNL     1      36.513 -16.198 -21.280  0.00  0.00    +0.147 HD
BRANCH  24  26
ATOM     26  C   UNL     1      34.684 -15.789 -20.359  0.00  0.00    +0.116 C 
BRANCH  26  29
ATOM     27  O   UNL     1      31.994 -11.394 -22.440  0.00  0.00    -0.270 OA
ATOM     28  N   UNL     1      33.843 -12.780 -22.454  0.00  0.00    -0.280 N 
ATOM     29  C   UNL     1      33.997 -14.599 -20.951  0.00  0.00    +0.012 C 
ATOM     30  C   UNL     1      34.516 -13.864 -21.946  0.00  0.00    +0.061 C 
ATOM     31  C   UNL     1      32.704 -14.228 -20.413  0.00  0.00    +0.003 C 
ATOM     32  C   UNL     1      32.024 -13.176 -20.888  0.00  0.00    +0.058 C 
ATOM     33  C   UNL     1      32.605 -12.362 -21.995  0.00  0.00    +0.250 C 
ATOM     34  H   UNL     1      34.264 -12.272 -23.185  0.00  0.00    +0.155 HD
ENDBRANCH  26  29
ENDBRANCH  24  26
ENDBRANCH   2  24
TORSDOF 8
ENDMDL
MODEL 8
REMARK VINA RESULT:     -10.2      6.655      9.874
REMARK  Name = 10477723
REMARK  8 active torsions:
REMARK  status: ('A' for Active; 'I' for Inactive)
REMARK    1  A    between atoms: C_1  and  C_9
REMARK    2  A    between atoms: C_2  and  N_24
REMARK    3  A    between atoms: N_8  and  C_13
REMARK    4  A    between atoms: C_11  and  C_21
REMARK    5  A    between atoms: C_12  and  C_20
REMARK    6  A    between atoms: C_21  and  C_22
REMARK    7  A    between atoms: N_24  and  C_26
REMARK    8  A    between atoms: C_26  and  C_29
REMARK                            x       y       z     vdW  Elec       q    Type
REMARK                         _______ _______ _______ _____ _____    ______ ____
ROOT
ATOM      1  C   UNL     1      34.533 -21.307 -19.476  0.00  0.00    +0.067 C 
ATOM      2  C   UNL     1      35.890 -21.036 -19.227  0.00  0.00    +0.049 C 
ATOM      3  C   UNL     1      33.823 -20.580 -20.433  0.00  0.00    +0.006 C 
ATOM      4  C   UNL     1      36.515 -20.016 -19.967  0.00  0.00    +0.014 C 
ATOM      5  C   UNL     1      34.459 -19.571 -21.155  0.00  0.00    +0.000 C 
ATOM      6  C   UNL     1      35.806 -19.289 -20.923  0.00  0.00    +0.001 C 
ENDROOT
BRANCH   1   9
ATOM      7  O   UNL     1      34.076 -23.540 -19.011  0.00  0.00    -0.270 OA
ATOM      8  N   UNL     1      32.959 -21.914 -17.739  0.00  0.00    -0.280 N 
ATOM      9  C   UNL     1      33.838 -22.353 -18.737  0.00  0.00    +0.251 C 
ATOM     10  H   UNL     1      32.876 -20.938 -17.640  0.00  0.00    +0.155 HD
BRANCH   8  13
ATOM     11  C   UNL     1      30.641 -24.214 -15.121  0.00  0.00    -0.018 C 
ATOM     12  C   UNL     1      30.037 -23.237 -15.914  0.00  0.00    +0.069 C 
ATOM     13  C   UNL     1      32.174 -22.692 -16.854  0.00  0.00    +0.050 C 
ATOM     14  C   UNL     1      32.018 -24.422 -15.201  0.00  0.00    -0.003 C 
ATOM     15  C   UNL     1      30.810 -22.471 -16.787  0.00  0.00    +0.018 C 
ATOM     16  C   UNL     1      32.790 -23.656 -16.074  0.00  0.00    +0.014 C 
BRANCH  12  20
ATOM     17  F   UNL     1      28.162 -22.409 -14.680  0.00  0.00    -0.166 F 
ATOM     18  F   UNL     1      28.100 -22.180 -16.836  0.00  0.00    -0.166 F 
ATOM     19  F   UNL     1      27.840 -24.148 -15.947  0.00  0.00    -0.166 F 
ATOM     20  C   UNL     1      28.564 -22.996 -15.846  0.00  0.00    +0.418 C 
ENDBRANCH  12  20
BRANCH  11  21
ATOM     21  C   UNL     1      29.834 -25.046 -14.180  0.00  0.00    +0.026 C 
BRANCH  21  22
ATOM     22  C   UNL     1      30.394 -25.013 -12.751  0.00  0.00    +0.005 C 
ATOM     23  C   UNL     1      30.754 -23.602 -12.316  0.00  0.00    +0.000 C 
ENDBRANCH  21  22
ENDBRANCH  11  21
ENDBRANCH   8  13
ENDBRANCH   1   9
BRANCH   2  24
ATOM     24  N   UNL     1      36.615 -21.748 -18.279  0.00  0.00    -0.329 N 
ATOM     25  H   UNL     1      36.953 -22.638 -18.528  0.00  0.00    +0.147 HD
BRANCH  24  26
ATOM     26  C   UNL     1      36.903 -21.262 -16.958  0.00  0.00    +0.116 C 
BRANCH  26  29
ATOM     27  O   UNL     1      37.465 -25.597 -13.526  0.00  0.00    -0.270 OA
ATOM     28  N   UNL     1      38.431 -24.037 -14.931  0.00  0.00    -0.280 N 
ATOM     29  C   UNL     1      37.102 -22.427 -16.042  0.00  0.00    +0.012 C 
ATOM     30  C   UNL     1      38.303 -22.966 -15.781  0.00  0.00    +0.061 C 
ATOM     31  C   UNL     1      35.931 -22.998 -15.407  0.00  0.00    +0.003 C 
ATOM     32  C   UNL     1      36.025 -24.042 -14.574  0.00  0.00    +0.058 C 
ATOM     33  C   UNL     1      37.362 -24.638 -14.287  0.00  0.00    +0.250 C 
ATOM     34  H   UNL     1      39.333 -24.398 -14.770  0.00  0.00    +0.155 HD
ENDBRANCH  26  29
ENDBRANCH  24  26
ENDBRANCH   2  24
TORSDOF 8
ENDMDL
MODEL 9
REMARK VINA RESULT:      -9.9      7.278     12.389
REMARK  Name = 10477723
REMARK  8 active torsions:
REMARK  status: ('A' for Active; 'I' for Inactive)
REMARK    1  A    between atoms: C_1  and  C_9
REMARK    2  A    between atoms: C_2  and  N_24
REMARK    3  A    between atoms: N_8  and  C_13
REMARK    4  A    between atoms: C_11  and  C_21
REMARK    5  A    between atoms: C_12  and  C_20
REMARK    6  A    between atoms: C_21  and  C_22
REMARK    7  A    between atoms: N_24  and  C_26
REMARK    8  A    between atoms: C_26  and  C_29
REMARK                            x       y       z     vdW  Elec       q    Type
REMARK                         _______ _______ _______ _____ _____    ______ ____
ROOT
ATOM      1  C   UNL     1      32.082  -9.770 -21.136  0.00  0.00    +0.067 C 
ATOM      2  C   UNL     1      32.161 -11.174 -21.167  0.00  0.00    +0.049 C 
ATOM      3  C   UNL     1      31.844  -9.094 -19.939  0.00  0.00    +0.006 C 
ATOM      4  C   UNL     1      31.995 -11.879 -19.961  0.00  0.00    +0.014 C 
ATOM      5  C   UNL     1      31.681  -9.811 -18.754  0.00  0.00    +0.000 C 
ATOM      6  C   UNL     1      31.757 -11.204 -18.765  0.00  0.00    +0.001 C 
ENDROOT
BRANCH   1   9
ATOM      7  O   UNL     1      31.570  -9.289 -23.354  0.00  0.00    -0.270 OA
ATOM      8  N   UNL     1      33.158  -7.931 -22.287  0.00  0.00    -0.280 N 
ATOM      9  C   UNL     1      32.246  -8.991 -22.357  0.00  0.00    +0.251 C 
ATOM     10  H   UNL     1      33.620  -7.821 -21.424  0.00  0.00    +0.155 HD
BRANCH   8  13
ATOM     11  C   UNL     1      34.181  -5.176 -25.265  0.00  0.00    -0.018 C 
ATOM     12  C   UNL     1      32.883  -5.201 -24.754  0.00  0.00    +0.069 C 
ATOM     13  C   UNL     1      33.504  -6.998 -23.295  0.00  0.00    +0.050 C 
ATOM     14  C   UNL     1      35.137  -6.069 -24.784  0.00  0.00    -0.003 C 
ATOM     15  C   UNL     1      32.542  -6.119 -23.761  0.00  0.00    +0.018 C 
ATOM     16  C   UNL     1      34.796  -6.988 -23.791  0.00  0.00    +0.014 C 
BRANCH  12  20
ATOM     17  F   UNL     1      31.665  -4.303 -26.607  0.00  0.00    -0.166 F 
ATOM     18  F   UNL     1      30.604  -4.474 -24.723  0.00  0.00    -0.166 F 
ATOM     19  F   UNL     1      32.138  -2.953 -24.969  0.00  0.00    -0.166 F 
ATOM     20  C   UNL     1      31.842  -4.253 -25.254  0.00  0.00    +0.418 C 
ENDBRANCH  12  20
BRANCH  11  21
ATOM     21  C   UNL     1      34.568  -4.201 -26.328  0.00  0.00    +0.026 C 
BRANCH  21  22
ATOM     22  C   UNL     1      35.135  -4.897 -27.574  0.00  0.00    +0.005 C 
ATOM     23  C   UNL     1      34.100  -5.783 -28.248  0.00  0.00    +0.000 C 
ENDBRANCH  21  22
ENDBRANCH  11  21
ENDBRANCH   8  13
ENDBRANCH   1   9
BRANCH   2  24
ATOM     24  N   UNL     1      32.397 -11.866 -22.349  0.00  0.00    -0.329 N 
ATOM     25  H   UNL     1      31.624 -12.249 -22.822  0.00  0.00    +0.147 HD
BRANCH  24  26
ATOM     26  C   UNL     1      33.701 -12.055 -22.922  0.00  0.00    +0.116 C 
BRANCH  26  29
ATOM     27  O   UNL     1      34.063 -17.151 -25.108  0.00  0.00    -0.270 OA
ATOM     28  N   UNL     1      33.187 -15.014 -25.186  0.00  0.00    -0.280 N 
ATOM     29  C   UNL     1      33.767 -13.413 -23.546  0.00  0.00    +0.012 C 
ATOM     30  C   UNL     1      33.091 -13.752 -24.653  0.00  0.00    +0.061 C 
ATOM     31  C   UNL     1      34.610 -14.408 -22.913  0.00  0.00    +0.003 C 
ATOM     32  C   UNL     1      34.724 -15.646 -23.410  0.00  0.00    +0.058 C 
ATOM     33  C   UNL     1      33.970 -16.019 -24.641  0.00  0.00    +0.250 C 
ATOM     34  H   UNL     1      32.672 -15.216 -26.001  0.00  0.00    +0.155 HD
ENDBRANCH  26  29
ENDBRANCH  24  26
ENDBRANCH   2  24
TORSDOF 8
ENDMDL
