MODEL 1
REMARK VINA RESULT:     -12.3      0.000      0.000
REMARK  Name = 11538455
REMARK  6 active torsions:
REMARK  status: ('A' for Active; 'I' for Inactive)
REMARK    1  A    between atoms: C_4  and  C_19
REMARK    2  A    between atoms: C_12  and  C_15
REMARK    3  A    between atoms: N_14  and  O_17
REMARK    4  A    between atoms: C_19  and  N_20
REMARK    5  A    between atoms: N_20  and  C_23
REMARK    6  A    between atoms: C_23  and  C_25
REMARK                            x       y       z     vdW  Elec       q    Type
REMARK                         _______ _______ _______ _____ _____    ______ ____
ROOT
ATOM      1  N   UNL     1      35.079 -22.130 -17.657  0.00  0.00    -0.253 N 
ATOM      2  N   UNL     1      36.410 -23.061 -15.943  0.00  0.00    -0.203 NA
ATOM      3  N   UNL     1      34.005 -23.099 -15.791  0.00  0.00    -0.180 NA
ATOM      4  C   UNL     1      34.875 -20.906 -20.272  0.00  0.00    -0.018 C 
ATOM      5  C   UNL     1      36.050 -20.612 -19.334  0.00  0.00    +0.020 C 
ATOM      6  C   UNL     1      33.632 -21.245 -19.443  0.00  0.00    +0.020 C 
ATOM      7  C   UNL     1      36.307 -21.772 -18.373  0.00  0.00    +0.101 C 
ATOM      8  C   UNL     1      33.898 -22.406 -18.486  0.00  0.00    +0.101 C 
ATOM      9  C   UNL     1      35.167 -22.786 -16.422  0.00  0.00    +0.090 C 
ATOM     10  C   UNL     1      36.458 -23.690 -14.751  0.00  0.00    +0.170 C 
ATOM     11  C   UNL     1      34.127 -23.727 -14.603  0.00  0.00    +0.113 C 
ATOM     12  C   UNL     1      35.339 -24.052 -14.029  0.00  0.00    +0.078 C 
ENDROOT
BRANCH  12  15
ATOM     13  O   UNL     1      34.588 -24.520 -11.854  0.00  0.00    -0.268 OA
ATOM     14  N   UNL     1      36.495 -25.602 -12.566  0.00  0.00    -0.194 N 
ATOM     15  C   UNL     1      35.430 -24.729 -12.750  0.00  0.00    +0.267 C 
ATOM     16  H   UNL     1      37.156 -25.765 -13.277  0.00  0.00    +0.183 HD
BRANCH  14  17
ATOM     17  O   UNL     1      36.583 -26.244 -11.322  0.00  0.00    -0.295 OA
ATOM     18  H   UNL     1      37.322 -25.870 -10.817  0.00  0.00    +0.241 HD
ENDBRANCH  14  17
ENDBRANCH  12  15
BRANCH   4  19
ATOM     19  C   UNL     1      34.606 -19.720 -21.195  0.00  0.00    -0.081 C 
BRANCH  19  20
ATOM     20  N   UNL     1      35.442 -18.584 -20.838  0.00  0.00    +0.386 N 
ATOM     21  H   UNL     1      36.157 -18.891 -20.178  0.00  0.00    -0.084 HD
ATOM     22  H   UNL     1      34.852 -17.866 -20.418  0.00  0.00    -0.084 HD
BRANCH  20  23
ATOM     23  C   UNL     1      36.091 -18.022 -22.016  0.00  0.00    -0.053 C 
BRANCH  23  25
ATOM     24  N   UNL     1      34.157 -15.667 -24.028  0.00  0.00    -0.284 N 
ATOM     25  C   UNL     1      35.261 -16.911 -22.597  0.00  0.00    -0.028 C 
ATOM     26  C   UNL     1      34.735 -15.820 -21.879  0.00  0.00    +0.009 C 
ATOM     27  C   UNL     1      34.903 -16.809 -23.905  0.00  0.00    +0.059 C 
ATOM     28  C   UNL     1      34.038 -15.044 -22.807  0.00  0.00    +0.051 C 
ATOM     29  C   UNL     1      34.772 -15.401 -20.535  0.00  0.00    +0.001 C 
ATOM     30  C   UNL     1      33.373 -13.862 -22.456  0.00  0.00    +0.015 C 
ATOM     31  C   UNL     1      33.582 -15.199 -25.271  0.00  0.00    +0.117 C 
ATOM     32  C   UNL     1      34.112 -14.221 -20.169  0.00  0.00    +0.000 C 
ATOM     33  C   UNL     1      33.423 -13.466 -21.117  0.00  0.00    +0.001 C 
ENDBRANCH  23  25
ENDBRANCH  20  23
ENDBRANCH  19  20
ENDBRANCH   4  19
TORSDOF 6
ENDMDL
MODEL 2
REMARK VINA RESULT:     -12.1      0.733      1.921
REMARK  Name = 11538455
REMARK  6 active torsions:
REMARK  status: ('A' for Active; 'I' for Inactive)
REMARK    1  A    between atoms: C_4  and  C_19
REMARK    2  A    between atoms: C_12  and  C_15
REMARK    3  A    between atoms: N_14  and  O_17
REMARK    4  A    between atoms: C_19  and  N_20
REMARK    5  A    between atoms: N_20  and  C_23
REMARK    6  A    between atoms: C_23  and  C_25
REMARK                            x       y       z     vdW  Elec       q    Type
REMARK                         _______ _______ _______ _____ _____    ______ ____
ROOT
ATOM      1  N   UNL     1      35.245 -22.168 -17.497  0.00  0.00    -0.253 N 
ATOM      2  N   UNL     1      36.592 -23.108 -15.802  0.00  0.00    -0.203 NA
ATOM      3  N   UNL     1      34.189 -23.134 -15.620  0.00  0.00    -0.180 NA
ATOM      4  C   UNL     1      35.015 -20.938 -20.108  0.00  0.00    -0.018 C 
ATOM      5  C   UNL     1      36.203 -20.651 -19.184  0.00  0.00    +0.020 C 
ATOM      6  C   UNL     1      33.781 -21.272 -19.264  0.00  0.00    +0.020 C 
ATOM      7  C   UNL     1      36.466 -21.815 -18.228  0.00  0.00    +0.101 C 
ATOM      8  C   UNL     1      34.052 -22.436 -18.313  0.00  0.00    +0.101 C 
ATOM      9  C   UNL     1      35.344 -22.826 -16.265  0.00  0.00    +0.090 C 
ATOM     10  C   UNL     1      36.652 -23.740 -14.611  0.00  0.00    +0.170 C 
ATOM     11  C   UNL     1      34.322 -23.765 -14.435  0.00  0.00    +0.113 C 
ATOM     12  C   UNL     1      35.540 -24.097 -13.876  0.00  0.00    +0.078 C 
ENDROOT
BRANCH  12  15
ATOM     13  O   UNL     1      34.882 -24.484 -11.655  0.00  0.00    -0.268 OA
ATOM     14  N   UNL     1      36.627 -25.749 -12.474  0.00  0.00    -0.194 N 
ATOM     15  C   UNL     1      35.643 -24.776 -12.600  0.00  0.00    +0.267 C 
ATOM     16  H   UNL     1      37.224 -25.977 -13.223  0.00  0.00    +0.183 HD
BRANCH  14  17
ATOM     17  O   UNL     1      36.729 -26.394 -11.232  0.00  0.00    -0.295 OA
ATOM     18  H   UNL     1      37.000 -27.315 -11.367  0.00  0.00    +0.241 HD
ENDBRANCH  14  17
ENDBRANCH  12  15
BRANCH   4  19
ATOM     19  C   UNL     1      34.741 -19.749 -21.026  0.00  0.00    -0.081 C 
BRANCH  19  20
ATOM     20  N   UNL     1      35.708 -18.686 -20.802  0.00  0.00    +0.386 N 
ATOM     21  H   UNL     1      36.592 -19.098 -20.499  0.00  0.00    -0.084 HD
ATOM     22  H   UNL     1      35.342 -18.059 -20.086  0.00  0.00    -0.084 HD
BRANCH  20  23
ATOM     23  C   UNL     1      35.933 -17.919 -22.020  0.00  0.00    -0.053 C 
BRANCH  23  25
ATOM     24  N   UNL     1      34.291 -14.760 -21.209  0.00  0.00    -0.284 N 
ATOM     25  C   UNL     1      35.191 -16.612 -21.966  0.00  0.00    -0.028 C 
ATOM     26  C   UNL     1      34.576 -15.973 -23.059  0.00  0.00    +0.009 C 
ATOM     27  C   UNL     1      35.012 -15.865 -20.843  0.00  0.00    +0.059 C 
ATOM     28  C   UNL     1      34.011 -14.799 -22.556  0.00  0.00    +0.051 C 
ATOM     29  C   UNL     1      34.435 -16.261 -24.430  0.00  0.00    +0.001 C 
ATOM     30  C   UNL     1      33.308 -13.895 -23.360  0.00  0.00    +0.015 C 
ATOM     31  C   UNL     1      33.891 -13.709 -20.298  0.00  0.00    +0.117 C 
ATOM     32  C   UNL     1      33.734 -15.365 -25.248  0.00  0.00    +0.000 C 
ATOM     33  C   UNL     1      33.180 -14.201 -24.718  0.00  0.00    +0.001 C 
ENDBRANCH  23  25
ENDBRANCH  20  23
ENDBRANCH  19  20
ENDBRANCH   4  19
TORSDOF 6
ENDMDL
MODEL 3
REMARK VINA RESULT:     -11.7      2.208      2.539
REMARK  Name = 11538455
REMARK  6 active torsions:
REMARK  status: ('A' for Active; 'I' for Inactive)
REMARK    1  A    between atoms: C_4  and  C_19
REMARK    2  A    between atoms: C_12  and  C_15
REMARK    3  A    between atoms: N_14  and  O_17
REMARK    4  A    between atoms: C_19  and  N_20
REMARK    5  A    between atoms: N_20  and  C_23
REMARK    6  A    between atoms: C_23  and  C_25
REMARK                            x       y       z     vdW  Elec       q    Type
REMARK                         _______ _______ _______ _____ _____    ______ ____
ROOT
ATOM      1  N   UNL     1      33.891 -21.989 -18.143  0.00  0.00    -0.253 N 
ATOM      2  N   UNL     1      33.888 -23.535 -16.359  0.00  0.00    -0.203 NA
ATOM      3  N   UNL     1      31.850 -22.447 -17.047  0.00  0.00    -0.180 NA
ATOM      4  C   UNL     1      35.304 -20.661 -20.292  0.00  0.00    -0.018 C 
ATOM      5  C   UNL     1      35.993 -21.009 -18.969  0.00  0.00    +0.020 C 
ATOM      6  C   UNL     1      33.811 -20.424 -20.044  0.00  0.00    +0.020 C 
ATOM      7  C   UNL     1      35.333 -22.209 -18.289  0.00  0.00    +0.101 C 
ATOM      8  C   UNL     1      33.160 -21.628 -19.365  0.00  0.00    +0.101 C 
ATOM      9  C   UNL     1      33.185 -22.681 -17.150  0.00  0.00    +0.090 C 
ATOM     10  C   UNL     1      33.178 -24.182 -15.411  0.00  0.00    +0.170 C 
ATOM     11  C   UNL     1      31.203 -23.128 -16.079  0.00  0.00    +0.113 C 
ATOM     12  C   UNL     1      31.821 -24.017 -15.224  0.00  0.00    +0.078 C 
ENDROOT
BRANCH  12  15
ATOM     13  O   UNL     1      30.551 -25.829 -14.438  0.00  0.00    -0.268 OA
ATOM     14  N   UNL     1      31.011 -24.137 -12.941  0.00  0.00    -0.194 N 
ATOM     15  C   UNL     1      31.091 -24.732 -14.195  0.00  0.00    +0.267 C 
ATOM     16  H   UNL     1      31.440 -23.271 -12.754  0.00  0.00    +0.183 HD
BRANCH  14  17
ATOM     17  O   UNL     1      30.292 -24.828 -11.954  0.00  0.00    -0.295 OA
ATOM     18  H   UNL     1      29.346 -24.637 -12.049  0.00  0.00    +0.241 HD
ENDBRANCH  14  17
ENDBRANCH  12  15
BRANCH   4  19
ATOM     19  C   UNL     1      35.949 -19.436 -20.935  0.00  0.00    -0.081 C 
BRANCH  19  20
ATOM     20  N   UNL     1      35.090 -18.879 -21.969  0.00  0.00    +0.386 N 
ATOM     21  H   UNL     1      34.345 -18.338 -21.529  0.00  0.00    -0.084 HD
ATOM     22  H   UNL     1      34.698 -19.647 -22.515  0.00  0.00    -0.084 HD
BRANCH  20  23
ATOM     23  C   UNL     1      35.844 -18.011 -22.864  0.00  0.00    -0.053 C 
BRANCH  23  25
ATOM     24  N   UNL     1      33.929 -15.263 -24.319  0.00  0.00    -0.284 N 
ATOM     25  C   UNL     1      35.052 -16.777 -23.195  0.00  0.00    -0.028 C 
ATOM     26  C   UNL     1      34.661 -15.784 -22.277  0.00  0.00    +0.009 C 
ATOM     27  C   UNL     1      34.600 -16.451 -24.436  0.00  0.00    +0.059 C 
ATOM     28  C   UNL     1      33.950 -14.833 -23.012  0.00  0.00    +0.051 C 
ATOM     29  C   UNL     1      34.832 -15.583 -20.894  0.00  0.00    +0.001 C 
ATOM     30  C   UNL     1      33.399 -13.685 -22.429  0.00  0.00    +0.015 C 
ATOM     31  C   UNL     1      33.292 -14.575 -25.421  0.00  0.00    +0.117 C 
ATOM     32  C   UNL     1      34.287 -14.440 -20.296  0.00  0.00    +0.000 C 
ATOM     33  C   UNL     1      33.581 -13.507 -21.055  0.00  0.00    +0.001 C 
ENDBRANCH  23  25
ENDBRANCH  20  23
ENDBRANCH  19  20
ENDBRANCH   4  19
TORSDOF 6
ENDMDL
MODEL 4
REMARK VINA RESULT:     -11.0      0.564      1.398
REMARK  Name = 11538455
REMARK  6 active torsions:
REMARK  status: ('A' for Active; 'I' for Inactive)
REMARK    1  A    between atoms: C_4  and  C_19
REMARK    2  A    between atoms: C_12  and  C_15
REMARK    3  A    between atoms: N_14  and  O_17
REMARK    4  A    between atoms: C_19  and  N_20
REMARK    5  A    between atoms: N_20  and  C_23
REMARK    6  A    between atoms: C_23  and  C_25
REMARK                            x       y       z     vdW  Elec       q    Type
REMARK                         _______ _______ _______ _____ _____    ______ ____
ROOT
ATOM      1  N   UNL     1      35.321 -22.251 -17.453  0.00  0.00    -0.253 N 
ATOM      2  N   UNL     1      34.281 -23.303 -15.614  0.00  0.00    -0.203 NA
ATOM      3  N   UNL     1      36.683 -23.177 -15.762  0.00  0.00    -0.180 NA
ATOM      4  C   UNL     1      35.108 -20.716 -19.898  0.00  0.00    -0.018 C 
ATOM      5  C   UNL     1      34.066 -21.772 -19.517  0.00  0.00    +0.020 C 
ATOM      6  C   UNL     1      36.467 -21.103 -19.307  0.00  0.00    +0.020 C 
ATOM      7  C   UNL     1      33.991 -21.968 -18.002  0.00  0.00    +0.101 C 
ATOM      8  C   UNL     1      36.384 -21.295 -17.793  0.00  0.00    +0.101 C 
ATOM      9  C   UNL     1      35.433 -22.933 -16.235  0.00  0.00    +0.090 C 
ATOM     10  C   UNL     1      34.425 -23.961 -14.444  0.00  0.00    +0.170 C 
ATOM     11  C   UNL     1      36.754 -23.838 -14.588  0.00  0.00    +0.113 C 
ATOM     12  C   UNL     1      35.648 -24.258 -13.878  0.00  0.00    +0.078 C 
ENDROOT
BRANCH  12  15
ATOM     13  O   UNL     1      34.999 -24.709 -11.666  0.00  0.00    -0.268 OA
ATOM     14  N   UNL     1      36.765 -25.924 -12.514  0.00  0.00    -0.194 N 
ATOM     15  C   UNL     1      35.764 -24.965 -12.618  0.00  0.00    +0.267 C 
ATOM     16  H   UNL     1      37.366 -26.123 -13.268  0.00  0.00    +0.183 HD
BRANCH  14  17
ATOM     17  O   UNL     1      36.879 -26.595 -11.288  0.00  0.00    -0.295 OA
ATOM     18  H   UNL     1      37.815 -26.663 -11.042  0.00  0.00    +0.241 HD
ENDBRANCH  14  17
ENDBRANCH  12  15
BRANCH   4  19
ATOM     19  C   UNL     1      35.198 -20.564 -21.415  0.00  0.00    -0.081 C 
BRANCH  19  20
ATOM     20  N   UNL     1      34.620 -19.300 -21.845  0.00  0.00    +0.386 N 
ATOM     21  H   UNL     1      34.216 -18.826 -21.037  0.00  0.00    -0.084 HD
ATOM     22  H   UNL     1      33.902 -19.491 -22.543  0.00  0.00    -0.084 HD
BRANCH  20  23
ATOM     23  C   UNL     1      35.633 -18.440 -22.445  0.00  0.00    -0.053 C 
BRANCH  23  25
ATOM     24  N   UNL     1      34.137 -15.605 -24.194  0.00  0.00    -0.284 N 
ATOM     25  C   UNL     1      35.020 -17.147 -22.907  0.00  0.00    -0.028 C 
ATOM     26  C   UNL     1      34.745 -16.033 -22.092  0.00  0.00    +0.009 C 
ATOM     27  C   UNL     1      34.645 -16.876 -24.186  0.00  0.00    +0.059 C 
ATOM     28  C   UNL     1      34.185 -15.066 -22.929  0.00  0.00    +0.051 C 
ATOM     29  C   UNL     1      34.910 -15.734 -20.725  0.00  0.00    +0.001 C 
ATOM     30  C   UNL     1      33.779 -13.809 -22.466  0.00  0.00    +0.015 C 
ATOM     31  C   UNL     1      33.624 -14.940 -25.373  0.00  0.00    +0.117 C 
ATOM     32  C   UNL     1      34.509 -14.480 -20.247  0.00  0.00    +0.000 C 
ATOM     33  C   UNL     1      33.952 -13.534 -21.106  0.00  0.00    +0.001 C 
ENDBRANCH  23  25
ENDBRANCH  20  23
ENDBRANCH  19  20
ENDBRANCH   4  19
TORSDOF 6
ENDMDL
MODEL 5
REMARK VINA RESULT:     -10.9      1.856      2.904
REMARK  Name = 11538455
REMARK  6 active torsions:
REMARK  status: ('A' for Active; 'I' for Inactive)
REMARK    1  A    between atoms: C_4  and  C_19
REMARK    2  A    between atoms: C_12  and  C_15
REMARK    3  A    between atoms: N_14  and  O_17
REMARK    4  A    between atoms: C_19  and  N_20
REMARK    5  A    between atoms: N_20  and  C_23
REMARK    6  A    between atoms: C_23  and  C_25
REMARK                            x       y       z     vdW  Elec       q    Type
REMARK                         _______ _______ _______ _____ _____    ______ ____
ROOT
ATOM      1  N   UNL     1      33.807 -21.941 -18.191  0.00  0.00    -0.253 N 
ATOM      2  N   UNL     1      34.311 -23.203 -16.261  0.00  0.00    -0.203 NA
ATOM      3  N   UNL     1      32.041 -22.558 -16.751  0.00  0.00    -0.180 NA
ATOM      4  C   UNL     1      34.669 -20.721 -20.671  0.00  0.00    -0.018 C 
ATOM      5  C   UNL     1      35.576 -20.766 -19.437  0.00  0.00    +0.020 C 
ATOM      6  C   UNL     1      33.204 -20.691 -20.226  0.00  0.00    +0.020 C 
ATOM      7  C   UNL     1      35.234 -21.948 -18.530  0.00  0.00    +0.101 C 
ATOM      8  C   UNL     1      32.870 -21.876 -19.321  0.00  0.00    +0.101 C 
ATOM      9  C   UNL     1      33.371 -22.590 -17.029  0.00  0.00    +0.090 C 
ATOM     10  C   UNL     1      33.858 -23.815 -15.147  0.00  0.00    +0.170 C 
ATOM     11  C   UNL     1      31.657 -23.190 -15.622  0.00  0.00    +0.113 C 
ATOM     12  C   UNL     1      32.529 -23.842 -14.774  0.00  0.00    +0.078 C 
ENDROOT
BRANCH  12  15
ATOM     13  O   UNL     1      32.812 -25.328 -12.978  0.00  0.00    -0.268 OA
ATOM     14  N   UNL     1      30.799 -24.214 -13.117  0.00  0.00    -0.194 N 
ATOM     15  C   UNL     1      32.079 -24.511 -13.570  0.00  0.00    +0.267 C 
ATOM     16  H   UNL     1      30.223 -23.568 -13.587  0.00  0.00    +0.183 HD
BRANCH  14  17
ATOM     17  O   UNL     1      30.365 -24.875 -11.958  0.00  0.00    -0.295 OA
ATOM     18  H   UNL     1      29.540 -25.349 -12.146  0.00  0.00    +0.241 HD
ENDBRANCH  14  17
ENDBRANCH  12  15
BRANCH   4  19
ATOM     19  C   UNL     1      34.998 -19.511 -21.543  0.00  0.00    -0.081 C 
BRANCH  19  20
ATOM     20  N   UNL     1      35.477 -18.402 -20.733  0.00  0.00    +0.386 N 
ATOM     21  H   UNL     1      36.197 -18.742 -20.094  0.00  0.00    -0.084 HD
ATOM     22  H   UNL     1      34.690 -18.017 -20.211  0.00  0.00    -0.084 HD
BRANCH  20  23
ATOM     23  C   UNL     1      36.040 -17.349 -21.569  0.00  0.00    -0.053 C 
BRANCH  23  25
ATOM     24  N   UNL     1      33.874 -14.462 -21.016  0.00  0.00    -0.284 N 
ATOM     25  C   UNL     1      35.112 -16.168 -21.626  0.00  0.00    -0.028 C 
ATOM     26  C   UNL     1      34.529 -15.639 -22.793  0.00  0.00    +0.009 C 
ATOM     27  C   UNL     1      34.707 -15.443 -20.549  0.00  0.00    +0.059 C 
ATOM     28  C   UNL     1      33.748 -14.557 -22.383  0.00  0.00    +0.051 C 
ATOM     29  C   UNL     1      34.578 -15.960 -24.164  0.00  0.00    +0.001 C 
ATOM     30  C   UNL     1      33.008 -13.777 -23.280  0.00  0.00    +0.015 C 
ATOM     31  C   UNL     1      33.230 -13.472 -20.179  0.00  0.00    +0.117 C 
ATOM     32  C   UNL     1      33.843 -15.188 -25.073  0.00  0.00    +0.000 C 
ATOM     33  C   UNL     1      33.071 -14.113 -24.635  0.00  0.00    +0.001 C 
ENDBRANCH  23  25
ENDBRANCH  20  23
ENDBRANCH  19  20
ENDBRANCH   4  19
TORSDOF 6
ENDMDL
MODEL 6
REMARK VINA RESULT:     -10.8      6.272     10.440
REMARK  Name = 11538455
REMARK  6 active torsions:
REMARK  status: ('A' for Active; 'I' for Inactive)
REMARK    1  A    between atoms: C_4  and  C_19
REMARK    2  A    between atoms: C_12  and  C_15
REMARK    3  A    between atoms: N_14  and  O_17
REMARK    4  A    between atoms: C_19  and  N_20
REMARK    5  A    between atoms: N_20  and  C_23
REMARK    6  A    between atoms: C_23  and  C_25
REMARK                            x       y       z     vdW  Elec       q    Type
REMARK                         _______ _______ _______ _____ _____    ______ ____
ROOT
ATOM      1  N   UNL     1      33.156 -13.113 -21.822  0.00  0.00    -0.253 N 
ATOM      2  N   UNL     1      34.323 -14.814 -22.970  0.00  0.00    -0.203 NA
ATOM      3  N   UNL     1      34.053 -14.907 -20.577  0.00  0.00    -0.180 NA
ATOM      4  C   UNL     1      31.560 -10.698 -21.890  0.00  0.00    -0.018 C 
ATOM      5  C   UNL     1      32.687 -10.948 -22.898  0.00  0.00    +0.020 C 
ATOM      6  C   UNL     1      31.886 -11.412 -20.574  0.00  0.00    +0.020 C 
ATOM      7  C   UNL     1      32.933 -12.442 -23.107  0.00  0.00    +0.101 C 
ATOM      8  C   UNL     1      32.129 -12.904 -20.792  0.00  0.00    +0.101 C 
ATOM      9  C   UNL     1      33.867 -14.319 -21.788  0.00  0.00    +0.090 C 
ATOM     10  C   UNL     1      35.007 -15.975 -22.900  0.00  0.00    +0.170 C 
ATOM     11  C   UNL     1      34.744 -16.065 -20.581  0.00  0.00    +0.113 C 
ATOM     12  C   UNL     1      35.250 -16.652 -21.723  0.00  0.00    +0.078 C 
ENDROOT
BRANCH  12  15
ATOM     13  O   UNL     1      36.195 -18.551 -22.730  0.00  0.00    -0.268 OA
ATOM     14  N   UNL     1      36.438 -18.339 -20.448  0.00  0.00    -0.194 N 
ATOM     15  C   UNL     1      35.987 -17.900 -21.687  0.00  0.00    +0.267 C 
ATOM     16  H   UNL     1      36.272 -17.820 -19.627  0.00  0.00    +0.183 HD
BRANCH  14  17
ATOM     17  O   UNL     1      37.140 -19.553 -20.420  0.00  0.00    -0.295 OA
ATOM     18  H   UNL     1      36.821 -20.093 -19.680  0.00  0.00    +0.241 HD
ENDBRANCH  14  17
ENDBRANCH  12  15
BRANCH   4  19
ATOM     19  C   UNL     1      31.357  -9.203 -21.662  0.00  0.00    -0.081 C 
BRANCH  19  20
ATOM     20  N   UNL     1      32.208  -8.721 -20.585  0.00  0.00    +0.386 N 
ATOM     21  H   UNL     1      33.184  -8.891 -20.831  0.00  0.00    -0.084 HD
ATOM     22  H   UNL     1      31.964  -9.218 -19.729  0.00  0.00    -0.084 HD
BRANCH  20  23
ATOM     23  C   UNL     1      32.015  -7.293 -20.364  0.00  0.00    -0.053 C 
BRANCH  23  25
ATOM     24  N   UNL     1      31.625  -5.260 -23.372  0.00  0.00    -0.284 N 
ATOM     25  C   UNL     1      32.123  -6.539 -21.660  0.00  0.00    -0.028 C 
ATOM     26  C   UNL     1      33.252  -6.512 -22.501  0.00  0.00    +0.009 C 
ATOM     27  C   UNL     1      31.137  -5.772 -22.199  0.00  0.00    +0.059 C 
ATOM     28  C   UNL     1      32.913  -5.695 -23.581  0.00  0.00    +0.051 C 
ATOM     29  C   UNL     1      34.534  -7.095 -22.466  0.00  0.00    +0.001 C 
ATOM     30  C   UNL     1      33.797  -5.430 -24.634  0.00  0.00    +0.015 C 
ATOM     31  C   UNL     1      30.878  -4.385 -24.252  0.00  0.00    +0.117 C 
ATOM     32  C   UNL     1      35.429  -6.840 -23.513  0.00  0.00    +0.000 C 
ATOM     33  C   UNL     1      35.064  -6.019 -24.579  0.00  0.00    +0.001 C 
ENDBRANCH  23  25
ENDBRANCH  20  23
ENDBRANCH  19  20
ENDBRANCH   4  19
TORSDOF 6
ENDMDL
MODEL 7
REMARK VINA RESULT:     -10.6      5.683     11.421
REMARK  Name = 11538455
REMARK  6 active torsions:
REMARK  status: ('A' for Active; 'I' for Inactive)
REMARK    1  A    between atoms: C_4  and  C_19
REMARK    2  A    between atoms: C_12  and  C_15
REMARK    3  A    between atoms: N_14  and  O_17
REMARK    4  A    between atoms: C_19  and  N_20
REMARK    5  A    between atoms: N_20  and  C_23
REMARK    6  A    between atoms: C_23  and  C_25
REMARK                            x       y       z     vdW  Elec       q    Type
REMARK                         _______ _______ _______ _____ _____    ______ ____
ROOT
ATOM      1  N   UNL     1      34.410 -15.250 -22.407  0.00  0.00    -0.253 N 
ATOM      2  N   UNL     1      33.998 -13.400 -23.814  0.00  0.00    -0.203 NA
ATOM      3  N   UNL     1      33.249 -13.394 -21.523  0.00  0.00    -0.180 NA
ATOM      4  C   UNL     1      35.649 -17.831 -21.977  0.00  0.00    -0.018 C 
ATOM      5  C   UNL     1      35.078 -17.429 -23.340  0.00  0.00    +0.020 C 
ATOM      6  C   UNL     1      34.873 -17.116 -20.867  0.00  0.00    +0.020 C 
ATOM      7  C   UNL     1      35.085 -15.912 -23.529  0.00  0.00    +0.101 C 
ATOM      8  C   UNL     1      34.886 -15.601 -21.062  0.00  0.00    +0.101 C 
ATOM      9  C   UNL     1      33.868 -13.972 -22.587  0.00  0.00    +0.090 C 
ATOM     10  C   UNL     1      33.462 -12.170 -23.953  0.00  0.00    +0.170 C 
ATOM     11  C   UNL     1      32.736 -12.164 -21.732  0.00  0.00    +0.113 C 
ATOM     12  C   UNL     1      32.814 -11.497 -22.937  0.00  0.00    +0.078 C 
ENDROOT
BRANCH  12  15
ATOM     13  O   UNL     1      32.251  -9.629 -24.246  0.00  0.00    -0.268 OA
ATOM     14  N   UNL     1      31.728  -9.540 -22.003  0.00  0.00    -0.194 N 
ATOM     15  C   UNL     1      32.251 -10.174 -23.123  0.00  0.00    +0.267 C 
ATOM     16  H   UNL     1      31.729  -9.974 -21.119  0.00  0.00    +0.183 HD
BRANCH  14  17
ATOM     17  O   UNL     1      31.197  -8.255 -22.188  0.00  0.00    -0.295 OA
ATOM     18  H   UNL     1      31.810  -7.725 -22.721  0.00  0.00    +0.241 HD
ENDBRANCH  14  17
ENDBRANCH  12  15
BRANCH   4  19
ATOM     19  C   UNL     1      35.595 -19.345 -21.789  0.00  0.00    -0.081 C 
BRANCH  19  20
ATOM     20  N   UNL     1      35.699 -19.698 -20.382  0.00  0.00    +0.386 N 
ATOM     21  H   UNL     1      35.355 -18.921 -19.817  0.00  0.00    -0.084 HD
ATOM     22  H   UNL     1      36.677 -19.891 -20.166  0.00  0.00    -0.084 HD
BRANCH  20  23
ATOM     23  C   UNL     1      34.913 -20.888 -20.082  0.00  0.00    -0.053 C 
BRANCH  23  25
ATOM     24  N   UNL     1      36.512 -22.034 -17.006  0.00  0.00    -0.284 N 
ATOM     25  C   UNL     1      35.311 -21.462 -18.750  0.00  0.00    -0.028 C 
ATOM     26  C   UNL     1      34.455 -22.138 -17.861  0.00  0.00    +0.009 C 
ATOM     27  C   UNL     1      36.562 -21.403 -18.220  0.00  0.00    +0.059 C 
ATOM     28  C   UNL     1      35.238 -22.492 -16.761  0.00  0.00    +0.051 C 
ATOM     29  C   UNL     1      33.092 -22.492 -17.866  0.00  0.00    +0.001 C 
ATOM     30  C   UNL     1      34.723 -23.187 -15.659  0.00  0.00    +0.015 C 
ATOM     31  C   UNL     1      37.646 -22.186 -16.119  0.00  0.00    +0.117 C 
ATOM     32  C   UNL     1      32.562 -23.188 -16.771  0.00  0.00    +0.000 C 
ATOM     33  C   UNL     1      33.368 -23.528 -15.686  0.00  0.00    +0.001 C 
ENDBRANCH  23  25
ENDBRANCH  20  23
ENDBRANCH  19  20
ENDBRANCH   4  19
TORSDOF 6
ENDMDL
MODEL 8
REMARK VINA RESULT:     -10.3      2.520      4.622
REMARK  Name = 11538455
REMARK  6 active torsions:
REMARK  status: ('A' for Active; 'I' for Inactive)
REMARK    1  A    between atoms: C_4  and  C_19
REMARK    2  A    between atoms: C_12  and  C_15
REMARK    3  A    between atoms: N_14  and  O_17
REMARK    4  A    between atoms: C_19  and  N_20
REMARK    5  A    between atoms: N_20  and  C_23
REMARK    6  A    between atoms: C_23  and  C_25
REMARK                            x       y       z     vdW  Elec       q    Type
REMARK                         _______ _______ _______ _____ _____    ______ ____
ROOT
ATOM      1  N   UNL     1      35.392 -19.163 -21.420  0.00  0.00    -0.253 N 
ATOM      2  N   UNL     1      36.660 -19.721 -19.508  0.00  0.00    -0.203 NA
ATOM      3  N   UNL     1      34.730 -21.025 -20.129  0.00  0.00    -0.180 NA
ATOM      4  C   UNL     1      35.031 -17.535 -23.786  0.00  0.00    -0.018 C 
ATOM      5  C   UNL     1      35.623 -16.960 -22.496  0.00  0.00    +0.020 C 
ATOM      6  C   UNL     1      34.072 -18.679 -23.443  0.00  0.00    +0.020 C 
ATOM      7  C   UNL     1      36.307 -18.041 -21.659  0.00  0.00    +0.101 C 
ATOM      8  C   UNL     1      34.764 -19.756 -22.608  0.00  0.00    +0.101 C 
ATOM      9  C   UNL     1      35.601 -19.998 -20.316  0.00  0.00    +0.090 C 
ATOM     10  C   UNL     1      36.829 -20.544 -18.452  0.00  0.00    +0.170 C 
ATOM     11  C   UNL     1      34.959 -21.807 -19.054  0.00  0.00    +0.113 C 
ATOM     12  C   UNL     1      36.003 -21.613 -18.173  0.00  0.00    +0.078 C 
ENDROOT
BRANCH  12  15
ATOM     13  O   UNL     1      35.296 -23.189 -16.582  0.00  0.00    -0.268 OA
ATOM     14  N   UNL     1      37.481 -22.467 -16.451  0.00  0.00    -0.194 N 
ATOM     15  C   UNL     1      36.218 -22.477 -17.029  0.00  0.00    +0.267 C 
ATOM     16  H   UNL     1      38.206 -21.904 -16.808  0.00  0.00    +0.183 HD
BRANCH  14  17
ATOM     17  O   UNL     1      37.678 -23.295 -15.336  0.00  0.00    -0.295 OA
ATOM     18  H   UNL     1      38.563 -23.689 -15.378  0.00  0.00    +0.241 HD
ENDBRANCH  14  17
ENDBRANCH  12  15
BRANCH   4  19
ATOM     19  C   UNL     1      34.316 -16.449 -24.588  0.00  0.00    -0.081 C 
BRANCH  19  20
ATOM     20  N   UNL     1      34.230 -15.213 -23.826  0.00  0.00    +0.386 N 
ATOM     21  H   UNL     1      35.170 -14.838 -23.692  0.00  0.00    -0.084 HD
ATOM     22  H   UNL     1      33.795 -15.415 -22.926  0.00  0.00    -0.084 HD
BRANCH  20  23
ATOM     23  C   UNL     1      33.418 -14.224 -24.523  0.00  0.00    -0.053 C 
BRANCH  23  25
ATOM     24  N   UNL     1      32.831 -10.995 -22.923  0.00  0.00    -0.284 N 
ATOM     25  C   UNL     1      33.129 -13.051 -23.628  0.00  0.00    -0.028 C 
ATOM     26  C   UNL     1      32.805 -13.124 -22.260  0.00  0.00    +0.009 C 
ATOM     27  C   UNL     1      33.142 -11.749 -24.022  0.00  0.00    +0.059 C 
ATOM     28  C   UNL     1      32.620 -11.808 -21.833  0.00  0.00    +0.051 C 
ATOM     29  C   UNL     1      32.647 -14.169 -21.328  0.00  0.00    +0.001 C 
ATOM     30  C   UNL     1      32.283 -11.482 -20.513  0.00  0.00    +0.015 C 
ATOM     31  C   UNL     1      32.739  -9.550 -22.925  0.00  0.00    +0.117 C 
ATOM     32  C   UNL     1      32.310 -13.859 -20.005  0.00  0.00    +0.000 C 
ATOM     33  C   UNL     1      32.131 -12.535 -19.606  0.00  0.00    +0.001 C 
ENDBRANCH  23  25
ENDBRANCH  20  23
ENDBRANCH  19  20
ENDBRANCH   4  19
TORSDOF 6
ENDMDL
MODEL 9
REMARK VINA RESULT:     -10.0      2.074      4.096
REMARK  Name = 11538455
REMARK  6 active torsions:
REMARK  status: ('A' for Active; 'I' for Inactive)
REMARK    1  A    between atoms: C_4  and  C_19
REMARK    2  A    between atoms: C_12  and  C_15
REMARK    3  A    between atoms: N_14  and  O_17
REMARK    4  A    between atoms: C_19  and  N_20
REMARK    5  A    between atoms: N_20  and  C_23
REMARK    6  A    between atoms: C_23  and  C_25
REMARK                            x       y       z     vdW  Elec       q    Type
REMARK                         _______ _______ _______ _____ _____    ______ ____
ROOT
ATOM      1  N   UNL     1      35.487 -19.694 -20.750  0.00  0.00    -0.253 N 
ATOM      2  N   UNL     1      36.652 -20.309 -18.791  0.00  0.00    -0.203 NA
ATOM      3  N   UNL     1      34.621 -21.442 -19.422  0.00  0.00    -0.180 NA
ATOM      4  C   UNL     1      35.336 -18.115 -23.172  0.00  0.00    -0.018 C 
ATOM      5  C   UNL     1      35.952 -17.558 -21.884  0.00  0.00    +0.020 C 
ATOM      6  C   UNL     1      34.266 -19.152 -22.820  0.00  0.00    +0.020 C 
ATOM      7  C   UNL     1      36.510 -18.672 -20.999  0.00  0.00    +0.101 C 
ATOM      8  C   UNL     1      34.832 -20.262 -21.936  0.00  0.00    +0.101 C 
ATOM      9  C   UNL     1      35.590 -20.510 -19.617  0.00  0.00    +0.090 C 
ATOM     10  C   UNL     1      36.718 -21.110 -17.708  0.00  0.00    +0.170 C 
ATOM     11  C   UNL     1      34.749 -22.209 -18.319  0.00  0.00    +0.113 C 
ATOM     12  C   UNL     1      35.787 -22.086 -17.418  0.00  0.00    +0.078 C 
ENDROOT
BRANCH  12  15
ATOM     13  O   UNL     1      34.989 -23.739 -15.953  0.00  0.00    -0.268 OA
ATOM     14  N   UNL     1      37.029 -22.789 -15.457  0.00  0.00    -0.194 N 
ATOM     15  C   UNL     1      35.892 -22.930 -16.244  0.00  0.00    +0.267 C 
ATOM     16  H   UNL     1      37.741 -22.149 -15.691  0.00  0.00    +0.183 HD
BRANCH  14  17
ATOM     17  O   UNL     1      37.118 -23.599 -14.316  0.00  0.00    -0.295 OA
ATOM     18  H   UNL     1      36.974 -24.525 -14.565  0.00  0.00    +0.241 HD
ENDBRANCH  14  17
ENDBRANCH  12  15
BRANCH   4  19
ATOM     19  C   UNL     1      34.747 -16.992 -24.023  0.00  0.00    -0.081 C 
BRANCH  19  20
ATOM     20  N   UNL     1      35.269 -15.699 -23.610  0.00  0.00    +0.386 N 
ATOM     21  H   UNL     1      36.210 -15.583 -23.987  0.00  0.00    -0.084 HD
ATOM     22  H   UNL     1      35.286 -15.666 -22.590  0.00  0.00    -0.084 HD
BRANCH  20  23
ATOM     23  C   UNL     1      34.424 -14.615 -24.095  0.00  0.00    -0.053 C 
BRANCH  23  25
ATOM     24  N   UNL     1      32.743 -13.648 -21.001  0.00  0.00    -0.284 N 
ATOM     25  C   UNL     1      33.692 -13.965 -22.954  0.00  0.00    -0.028 C 
ATOM     26  C   UNL     1      33.186 -12.652 -22.946  0.00  0.00    +0.009 C 
ATOM     27  C   UNL     1      33.417 -14.564 -21.763  0.00  0.00    +0.059 C 
ATOM     28  C   UNL     1      32.588 -12.471 -21.697  0.00  0.00    +0.051 C 
ATOM     29  C   UNL     1      33.169 -11.586 -23.867  0.00  0.00    +0.001 C 
ATOM     30  C   UNL     1      31.970 -11.273 -21.322  0.00  0.00    +0.015 C 
ATOM     31  C   UNL     1      32.270 -13.897 -19.656  0.00  0.00    +0.117 C 
ATOM     32  C   UNL     1      32.555 -10.380 -23.505  0.00  0.00    +0.000 C 
ATOM     33  C   UNL     1      31.965 -10.229 -22.251  0.00  0.00    +0.001 C 
ENDBRANCH  23  25
ENDBRANCH  20  23
ENDBRANCH  19  20
ENDBRANCH   4  19
TORSDOF 6
ENDMDL
