MODEL 1
REMARK VINA RESULT:     -10.6      0.000      0.000
REMARK  Name = 24812717
REMARK  2 active torsions:
REMARK  status: ('A' for Active; 'I' for Inactive)
REMARK    1  A    between atoms: N_2  and  C_31
REMARK    2  A    between atoms: C_4  and  C_12
REMARK                            x       y       z     vdW  Elec       q    Type
REMARK                         _______ _______ _______ _____ _____    ______ ____
ROOT
ATOM      1  O   UNL     1      34.543 -15.644 -21.415  0.00  0.00    -0.269 OA
ATOM      2  N   UNL     1      33.840 -15.207 -23.620  0.00  0.00    -0.233 N 
ATOM      3  C   UNL     1      34.368 -16.008 -22.580  0.00  0.00    +0.256 C 
ATOM      4  C   UNL     1      34.694 -17.450 -22.921  0.00  0.00    +0.050 C 
ATOM      5  C   UNL     1      33.568 -15.777 -24.858  0.00  0.00    +0.072 C 
ATOM      6  C   UNL     1      34.414 -17.930 -24.149  0.00  0.00    -0.016 C 
ATOM      7  C   UNL     1      33.821 -17.059 -25.136  0.00  0.00    +0.012 C 
ATOM      8  C   UNL     1      34.671 -19.333 -24.633  0.00  0.00    +0.031 C 
ENDROOT
BRANCH   4  12
ATOM      9  N   UNL     1      37.036 -20.678 -18.931  0.00  0.00    -0.338 NA
ATOM     10  N   UNL     1      34.931 -21.787 -18.546  0.00  0.00    -0.170 NA
ATOM     11  N   UNL     1      36.840 -22.374 -17.320  0.00  0.00    -0.293 N 
ATOM     12  C   UNL     1      35.299 -18.296 -21.877  0.00  0.00    +0.004 C 
ATOM     13  C   UNL     1      34.527 -19.239 -21.205  0.00  0.00    +0.004 C 
ATOM     14  C   UNL     1      36.645 -18.157 -21.558  0.00  0.00    +0.003 C 
ATOM     15  C   UNL     1      35.110 -20.044 -20.211  0.00  0.00    +0.051 C 
ATOM     16  C   UNL     1      36.469 -19.913 -19.879  0.00  0.00    +0.146 C 
ATOM     17  C   UNL     1      37.217 -18.961 -20.568  0.00  0.00    +0.033 C 
ATOM     18  C   UNL     1      34.396 -21.005 -19.502  0.00  0.00    +0.114 C 
ATOM     19  C   UNL     1      36.237 -21.573 -18.316  0.00  0.00    +0.141 C 
ATOM     20  H   UNL     1      37.795 -22.260 -17.109  0.00  0.00    +0.155 HD
ATOM     21  H   UNL     1      36.306 -23.045 -16.838  0.00  0.00    +0.155 HD
ENDBRANCH   4  12
BRANCH   2  31
ATOM     22  N   UNL     1      34.933 -10.399 -23.966  0.00  0.00    -0.333 N 
ATOM     23  C   UNL     1      32.912  -9.629 -22.859  0.00  0.00    +0.038 C 
ATOM     24  C   UNL     1      34.354  -9.233 -23.306  0.00  0.00    +0.091 C 
ATOM     25  C   UNL     1      32.995 -11.134 -22.928  0.00  0.00    -0.008 C 
ATOM     26  C   UNL     1      34.184 -11.503 -23.565  0.00  0.00    +0.042 C 
ATOM     27  C   UNL     1      32.613  -9.119 -21.448  0.00  0.00    +0.006 C 
ATOM     28  C   UNL     1      31.867  -9.104 -23.854  0.00  0.00    +0.006 C 
ATOM     29  C   UNL     1      32.086 -12.087 -22.497  0.00  0.00    -0.002 C 
ATOM     30  C   UNL     1      34.468 -12.834 -23.818  0.00  0.00    +0.029 C 
ATOM     31  C   UNL     1      33.562 -13.803 -23.382  0.00  0.00    +0.060 C 
ATOM     32  C   UNL     1      32.380 -13.433 -22.723  0.00  0.00    +0.015 C 
ATOM     33  H   UNL     1      35.705 -10.404 -24.577  0.00  0.00    +0.147 HD
ENDBRANCH   2  31
TORSDOF 2
ENDMDL
MODEL 2
REMARK VINA RESULT:     -10.3      3.262      6.417
REMARK  Name = 24812717
REMARK  2 active torsions:
REMARK  status: ('A' for Active; 'I' for Inactive)
REMARK    1  A    between atoms: N_2  and  C_31
REMARK    2  A    between atoms: C_4  and  C_12
REMARK                            x       y       z     vdW  Elec       q    Type
REMARK                         _______ _______ _______ _____ _____    ______ ____
ROOT
ATOM      1  O   UNL     1      34.439 -10.589 -23.987  0.00  0.00    -0.269 OA
ATOM      2  N   UNL     1      32.947  -9.034 -23.037  0.00  0.00    -0.233 N 
ATOM      3  C   UNL     1      33.496 -10.322 -23.239  0.00  0.00    +0.256 C 
ATOM      4  C   UNL     1      32.905 -11.456 -22.423  0.00  0.00    +0.050 C 
ATOM      5  C   UNL     1      31.971  -8.846 -22.065  0.00  0.00    +0.072 C 
ATOM      6  C   UNL     1      31.950 -11.199 -21.507  0.00  0.00    -0.016 C 
ATOM      7  C   UNL     1      31.486  -9.845 -21.324  0.00  0.00    +0.012 C 
ATOM      8  C   UNL     1      31.275 -12.213 -20.621  0.00  0.00    +0.031 C 
ENDROOT
BRANCH   4  12
ATOM      9  N   UNL     1      34.847 -16.677 -23.321  0.00  0.00    -0.338 NA
ATOM     10  N   UNL     1      35.363 -16.923 -20.979  0.00  0.00    -0.170 NA
ATOM     11  N   UNL     1      35.791 -18.660 -22.493  0.00  0.00    -0.293 N 
ATOM     12  C   UNL     1      33.415 -12.820 -22.650  0.00  0.00    +0.004 C 
ATOM     13  C   UNL     1      33.906 -13.571 -21.587  0.00  0.00    +0.004 C 
ATOM     14  C   UNL     1      33.407 -13.366 -23.930  0.00  0.00    +0.003 C 
ATOM     15  C   UNL     1      34.390 -14.872 -21.810  0.00  0.00    +0.051 C 
ATOM     16  C   UNL     1      34.387 -15.434 -23.097  0.00  0.00    +0.146 C 
ATOM     17  C   UNL     1      33.890 -14.660 -24.143  0.00  0.00    +0.033 C 
ATOM     18  C   UNL     1      34.894 -15.675 -20.791  0.00  0.00    +0.114 C 
ATOM     19  C   UNL     1      35.310 -17.354 -22.250  0.00  0.00    +0.141 C 
ATOM     20  H   UNL     1      35.776 -19.027 -23.406  0.00  0.00    +0.155 HD
ATOM     21  H   UNL     1      36.140 -19.202 -21.750  0.00  0.00    +0.155 HD
ENDBRANCH   4  12
BRANCH   2  31
ATOM     22  N   UNL     1      32.726  -6.013 -26.943  0.00  0.00    -0.333 N 
ATOM     23  C   UNL     1      34.597  -4.623 -26.259  0.00  0.00    +0.038 C 
ATOM     24  C   UNL     1      33.677  -5.031 -27.452  0.00  0.00    +0.091 C 
ATOM     25  C   UNL     1      34.341  -5.760 -25.301  0.00  0.00    -0.008 C 
ATOM     26  C   UNL     1      33.262  -6.520 -25.762  0.00  0.00    +0.042 C 
ATOM     27  C   UNL     1      36.061  -4.538 -26.695  0.00  0.00    +0.006 C 
ATOM     28  C   UNL     1      34.141  -3.292 -25.645  0.00  0.00    +0.006 C 
ATOM     29  C   UNL     1      34.983  -6.072 -24.112  0.00  0.00    -0.002 C 
ATOM     30  C   UNL     1      32.779  -7.586 -25.022  0.00  0.00    +0.029 C 
ATOM     31  C   UNL     1      33.422  -7.913 -23.826  0.00  0.00    +0.060 C 
ATOM     32  C   UNL     1      34.518  -7.163 -23.375  0.00  0.00    +0.015 C 
ATOM     33  H   UNL     1      31.868  -6.268 -27.356  0.00  0.00    +0.147 HD
ENDBRANCH   2  31
TORSDOF 2
ENDMDL
MODEL 3
REMARK VINA RESULT:     -10.1      3.764      6.979
REMARK  Name = 24812717
REMARK  2 active torsions:
REMARK  status: ('A' for Active; 'I' for Inactive)
REMARK    1  A    between atoms: N_2  and  C_31
REMARK    2  A    between atoms: C_4  and  C_12
REMARK                            x       y       z     vdW  Elec       q    Type
REMARK                         _______ _______ _______ _____ _____    ______ ____
ROOT
ATOM      1  O   UNL     1      34.510 -10.331 -23.985  0.00  0.00    -0.269 OA
ATOM      2  N   UNL     1      33.014  -8.693 -23.195  0.00  0.00    -0.233 N 
ATOM      3  C   UNL     1      33.538 -10.003 -23.302  0.00  0.00    +0.256 C 
ATOM      4  C   UNL     1      32.875 -11.079 -22.463  0.00  0.00    +0.050 C 
ATOM      5  C   UNL     1      31.995  -8.431 -22.287  0.00  0.00    +0.072 C 
ATOM      6  C   UNL     1      31.882 -10.752 -21.612  0.00  0.00    -0.016 C 
ATOM      7  C   UNL     1      31.446  -9.378 -21.523  0.00  0.00    +0.012 C 
ATOM      8  C   UNL     1      31.135 -11.701 -20.713  0.00  0.00    +0.031 C 
ENDROOT
BRANCH   4  12
ATOM      9  N   UNL     1      34.742 -16.382 -22.938  0.00  0.00    -0.338 NA
ATOM     10  N   UNL     1      33.860 -16.526 -25.177  0.00  0.00    -0.170 NA
ATOM     11  N   UNL     1      34.977 -18.343 -24.206  0.00  0.00    -0.293 N 
ATOM     12  C   UNL     1      33.359 -12.465 -22.594  0.00  0.00    +0.004 C 
ATOM     13  C   UNL     1      33.142 -13.175 -23.771  0.00  0.00    +0.004 C 
ATOM     14  C   UNL     1      34.037 -13.071 -21.542  0.00  0.00    +0.003 C 
ATOM     15  C   UNL     1      33.608 -14.496 -23.890  0.00  0.00    +0.051 C 
ATOM     16  C   UNL     1      34.294 -15.119 -22.835  0.00  0.00    +0.146 C 
ATOM     17  C   UNL     1      34.497 -14.385 -21.669  0.00  0.00    +0.033 C 
ATOM     18  C   UNL     1      33.424 -15.260 -25.038  0.00  0.00    +0.114 C 
ATOM     19  C   UNL     1      34.502 -17.017 -24.104  0.00  0.00    +0.141 C 
ATOM     20  H   UNL     1      35.455 -18.754 -23.449  0.00  0.00    +0.155 HD
ATOM     21  H   UNL     1      34.831 -18.856 -25.033  0.00  0.00    +0.155 HD
ENDBRANCH   4  12
BRANCH   2  31
ATOM     22  N   UNL     1      32.966  -5.750 -27.166  0.00  0.00    -0.333 N 
ATOM     23  C   UNL     1      34.939  -4.483 -26.531  0.00  0.00    +0.038 C 
ATOM     24  C   UNL     1      33.979  -4.850 -27.706  0.00  0.00    +0.091 C 
ATOM     25  C   UNL     1      34.613  -5.577 -25.545  0.00  0.00    -0.008 C 
ATOM     26  C   UNL     1      33.477  -6.269 -25.979  0.00  0.00    +0.042 C 
ATOM     27  C   UNL     1      36.400  -4.512 -26.983  0.00  0.00    +0.006 C 
ATOM     28  C   UNL     1      34.585  -3.109 -25.944  0.00  0.00    +0.006 C 
ATOM     29  C   UNL     1      35.244  -5.909 -24.355  0.00  0.00    -0.002 C 
ATOM     30  C   UNL     1      32.928  -7.280 -25.211  0.00  0.00    +0.029 C 
ATOM     31  C   UNL     1      33.559  -7.626 -24.014  0.00  0.00    +0.060 C 
ATOM     32  C   UNL     1      34.711  -6.948 -23.590  0.00  0.00    +0.015 C 
ATOM     33  H   UNL     1      32.088  -5.952 -27.565  0.00  0.00    +0.147 HD
ENDBRANCH   2  31
TORSDOF 2
ENDMDL
MODEL 4
REMARK VINA RESULT:      -9.8      1.423      9.292
REMARK  Name = 24812717
REMARK  2 active torsions:
REMARK  status: ('A' for Active; 'I' for Inactive)
REMARK    1  A    between atoms: N_2  and  C_31
REMARK    2  A    between atoms: C_4  and  C_12
REMARK                            x       y       z     vdW  Elec       q    Type
REMARK                         _______ _______ _______ _____ _____    ______ ____
ROOT
ATOM      1  O   UNL     1      34.520 -15.397 -21.227  0.00  0.00    -0.269 OA
ATOM      2  N   UNL     1      34.697 -17.150 -22.790  0.00  0.00    -0.233 N 
ATOM      3  C   UNL     1      34.367 -15.840 -22.367  0.00  0.00    +0.256 C 
ATOM      4  C   UNL     1      33.831 -14.893 -23.423  0.00  0.00    +0.050 C 
ATOM      5  C   UNL     1      34.599 -17.484 -24.135  0.00  0.00    +0.072 C 
ATOM      6  C   UNL     1      33.752 -15.292 -24.708  0.00  0.00    -0.016 C 
ATOM      7  C   UNL     1      34.164 -16.629 -25.064  0.00  0.00    +0.012 C 
ATOM      8  C   UNL     1      33.250 -14.468 -25.864  0.00  0.00    +0.031 C 
ENDROOT
BRANCH   4  12
ATOM      9  N   UNL     1      32.248  -9.722 -21.810  0.00  0.00    -0.338 NA
ATOM     10  N   UNL     1      33.992  -8.735 -23.151  0.00  0.00    -0.170 NA
ATOM     11  N   UNL     1      32.538  -7.395 -21.894  0.00  0.00    -0.293 N 
ATOM     12  C   UNL     1      33.424 -13.539 -23.005  0.00  0.00    +0.004 C 
ATOM     13  C   UNL     1      34.105 -12.424 -23.482  0.00  0.00    +0.004 C 
ATOM     14  C   UNL     1      32.354 -13.368 -22.132  0.00  0.00    +0.003 C 
ATOM     15  C   UNL     1      33.711 -11.135 -23.081  0.00  0.00    +0.051 C 
ATOM     16  C   UNL     1      32.633 -10.950 -22.200  0.00  0.00    +0.146 C 
ATOM     17  C   UNL     1      31.969 -12.084 -21.739  0.00  0.00    +0.033 C 
ATOM     18  C   UNL     1      34.350  -9.979 -23.521  0.00  0.00    +0.114 C 
ATOM     19  C   UNL     1      32.948  -8.682 -22.307  0.00  0.00    +0.141 C 
ATOM     20  H   UNL     1      31.778  -7.296 -21.276  0.00  0.00    +0.155 HD
ATOM     21  H   UNL     1      33.011  -6.598 -22.225  0.00  0.00    +0.155 HD
ENDBRANCH   4  12
BRANCH   2  31
ATOM     22  N   UNL     1      34.002 -21.011 -19.782  0.00  0.00    -0.333 N 
ATOM     23  C   UNL     1      36.310 -21.132 -19.034  0.00  0.00    +0.038 C 
ATOM     24  C   UNL     1      34.844 -21.572 -18.731  0.00  0.00    +0.091 C 
ATOM     25  C   UNL     1      36.072 -19.990 -19.991  0.00  0.00    -0.008 C 
ATOM     26  C   UNL     1      34.726 -19.976 -20.369  0.00  0.00    +0.042 C 
ATOM     27  C   UNL     1      37.029 -20.690 -17.757  0.00  0.00    +0.006 C 
ATOM     28  C   UNL     1      37.089 -22.259 -19.727  0.00  0.00    +0.006 C 
ATOM     29  C   UNL     1      36.972 -19.070 -20.507  0.00  0.00    -0.002 C 
ATOM     30  C   UNL     1      34.262 -19.063 -21.301  0.00  0.00    +0.029 C 
ATOM     31  C   UNL     1      35.158 -18.128 -21.822  0.00  0.00    +0.060 C 
ATOM     32  C   UNL     1      36.504 -18.128 -21.426  0.00  0.00    +0.015 C 
ATOM     33  H   UNL     1      33.096 -21.307 -20.028  0.00  0.00    +0.147 HD
ENDBRANCH   2  31
TORSDOF 2
ENDMDL
MODEL 5
REMARK VINA RESULT:      -9.2      3.374      6.445
REMARK  Name = 24812717
REMARK  2 active torsions:
REMARK  status: ('A' for Active; 'I' for Inactive)
REMARK    1  A    between atoms: N_2  and  C_31
REMARK    2  A    between atoms: C_4  and  C_12
REMARK                            x       y       z     vdW  Elec       q    Type
REMARK                         _______ _______ _______ _____ _____    ______ ____
ROOT
ATOM      1  O   UNL     1      33.996 -10.703 -23.723  0.00  0.00    -0.269 OA
ATOM      2  N   UNL     1      32.467  -9.160 -22.812  0.00  0.00    -0.233 N 
ATOM      3  C   UNL     1      33.121 -10.412 -22.905  0.00  0.00    +0.256 C 
ATOM      4  C   UNL     1      32.746 -11.460 -21.875  0.00  0.00    +0.050 C 
ATOM      5  C   UNL     1      31.593  -8.916 -21.760  0.00  0.00    +0.072 C 
ATOM      6  C   UNL     1      31.880 -11.155 -20.889  0.00  0.00    -0.016 C 
ATOM      7  C   UNL     1      31.301  -9.834 -20.834  0.00  0.00    +0.012 C 
ATOM      8  C   UNL     1      31.418 -12.082 -19.796  0.00  0.00    +0.031 C 
ENDROOT
BRANCH   4  12
ATOM      9  N   UNL     1      35.131 -16.561 -22.241  0.00  0.00    -0.338 NA
ATOM     10  N   UNL     1      34.461 -16.744 -24.549  0.00  0.00    -0.170 NA
ATOM     11  N   UNL     1      35.654 -18.469 -23.503  0.00  0.00    -0.293 N 
ATOM     12  C   UNL     1      33.366 -12.794 -21.978  0.00  0.00    +0.004 C 
ATOM     13  C   UNL     1      33.318 -13.499 -23.176  0.00  0.00    +0.004 C 
ATOM     14  C   UNL     1      34.005 -13.355 -20.877  0.00  0.00    +0.003 C 
ATOM     15  C   UNL     1      33.912 -14.770 -23.268  0.00  0.00    +0.051 C 
ATOM     16  C   UNL     1      34.560 -15.346 -22.164  0.00  0.00    +0.146 C 
ATOM     17  C   UNL     1      34.593 -14.618 -20.977  0.00  0.00    +0.033 C 
ATOM     18  C   UNL     1      33.900 -15.526 -24.436  0.00  0.00    +0.114 C 
ATOM     19  C   UNL     1      35.051 -17.193 -23.429  0.00  0.00    +0.141 C 
ATOM     20  H   UNL     1      36.102 -18.848 -22.712  0.00  0.00    +0.155 HD
ATOM     21  H   UNL     1      35.628 -18.977 -24.345  0.00  0.00    +0.155 HD
ENDBRANCH   4  12
BRANCH   2  31
ATOM     22  N   UNL     1      35.352  -5.752 -24.932  0.00  0.00    -0.333 N 
ATOM     23  C   UNL     1      33.749  -5.136 -26.649  0.00  0.00    +0.038 C 
ATOM     24  C   UNL     1      35.048  -4.704 -25.899  0.00  0.00    +0.091 C 
ATOM     25  C   UNL     1      33.212  -6.185 -25.707  0.00  0.00    -0.008 C 
ATOM     26  C   UNL     1      34.180  -6.480 -24.742  0.00  0.00    +0.042 C 
ATOM     27  C   UNL     1      32.793  -3.954 -26.823  0.00  0.00    +0.006 C 
ATOM     28  C   UNL     1      34.084  -5.761 -28.011  0.00  0.00    +0.006 C 
ATOM     29  C   UNL     1      31.990  -6.841 -25.722  0.00  0.00    -0.002 C 
ATOM     30  C   UNL     1      33.960  -7.468 -23.798  0.00  0.00    +0.029 C 
ATOM     31  C   UNL     1      32.731  -8.131 -23.800  0.00  0.00    +0.060 C 
ATOM     32  C   UNL     1      31.751  -7.818 -24.753  0.00  0.00    +0.015 C 
ATOM     33  H   UNL     1      36.221  -5.914 -24.495  0.00  0.00    +0.147 HD
ENDBRANCH   2  31
TORSDOF 2
ENDMDL
MODEL 6
REMARK VINA RESULT:      -9.1      3.327      6.629
REMARK  Name = 24812717
REMARK  2 active torsions:
REMARK  status: ('A' for Active; 'I' for Inactive)
REMARK    1  A    between atoms: N_2  and  C_31
REMARK    2  A    between atoms: C_4  and  C_12
REMARK                            x       y       z     vdW  Elec       q    Type
REMARK                         _______ _______ _______ _____ _____    ______ ____
ROOT
ATOM      1  O   UNL     1      33.522 -10.329 -23.846  0.00  0.00    -0.269 OA
ATOM      2  N   UNL     1      32.179  -8.966 -22.472  0.00  0.00    -0.233 N 
ATOM      3  C   UNL     1      32.791 -10.180 -22.864  0.00  0.00    +0.256 C 
ATOM      4  C   UNL     1      32.566 -11.383 -21.968  0.00  0.00    +0.050 C 
ATOM      5  C   UNL     1      31.485  -8.901 -21.270  0.00  0.00    +0.072 C 
ATOM      6  C   UNL     1      31.870 -11.247 -20.822  0.00  0.00    -0.016 C 
ATOM      7  C   UNL     1      31.327  -9.957 -20.468  0.00  0.00    +0.012 C 
ATOM      8  C   UNL     1      31.571 -12.341 -19.831  0.00  0.00    +0.031 C 
ENDROOT
BRANCH   4  12
ATOM      9  N   UNL     1      34.757 -16.332 -23.562  0.00  0.00    -0.338 NA
ATOM     10  N   UNL     1      35.394 -16.820 -21.289  0.00  0.00    -0.170 NA
ATOM     11  N   UNL     1      35.849 -18.337 -23.016  0.00  0.00    -0.293 N 
ATOM     12  C   UNL     1      33.141 -12.677 -22.377  0.00  0.00    +0.004 C 
ATOM     13  C   UNL     1      33.723 -13.516 -21.432  0.00  0.00    +0.004 C 
ATOM     14  C   UNL     1      33.105 -13.068 -23.712  0.00  0.00    +0.003 C 
ATOM     15  C   UNL     1      34.269 -14.749 -21.828  0.00  0.00    +0.051 C 
ATOM     16  C   UNL     1      34.238 -15.155 -23.172  0.00  0.00    +0.146 C 
ATOM     17  C   UNL     1      33.650 -14.296 -24.097  0.00  0.00    +0.033 C 
ATOM     18  C   UNL     1      34.865 -15.634 -20.934  0.00  0.00    +0.114 C 
ATOM     19  C   UNL     1      35.306 -17.101 -22.599  0.00  0.00    +0.141 C 
ATOM     20  H   UNL     1      35.812 -18.594 -23.966  0.00  0.00    +0.155 HD
ATOM     21  H   UNL     1      36.262 -18.939 -22.357  0.00  0.00    +0.155 HD
ENDBRANCH   4  12
BRANCH   2  31
ATOM     22  N   UNL     1      32.375  -4.077 -23.175  0.00  0.00    -0.333 N 
ATOM     23  C   UNL     1      32.713  -4.208 -25.577  0.00  0.00    +0.038 C 
ATOM     24  C   UNL     1      32.299  -3.279 -24.393  0.00  0.00    +0.091 C 
ATOM     25  C   UNL     1      32.553  -5.567 -24.941  0.00  0.00    -0.008 C 
ATOM     26  C   UNL     1      32.352  -5.414 -23.565  0.00  0.00    +0.042 C 
ATOM     27  C   UNL     1      31.792  -4.010 -26.783  0.00  0.00    +0.006 C 
ATOM     28  C   UNL     1      34.177  -3.971 -25.973  0.00  0.00    +0.006 C 
ATOM     29  C   UNL     1      32.614  -6.825 -25.521  0.00  0.00    -0.002 C 
ATOM     30  C   UNL     1      32.247  -6.518 -22.738  0.00  0.00    +0.029 C 
ATOM     31  C   UNL     1      32.301  -7.790 -23.313  0.00  0.00    +0.060 C 
ATOM     32  C   UNL     1      32.480  -7.943 -24.696  0.00  0.00    +0.015 C 
ATOM     33  H   UNL     1      32.432  -3.736 -22.252  0.00  0.00    +0.147 HD
ENDBRANCH   2  31
TORSDOF 2
ENDMDL
MODEL 7
REMARK VINA RESULT:      -9.1      3.085     10.095
REMARK  Name = 24812717
REMARK  2 active torsions:
REMARK  status: ('A' for Active; 'I' for Inactive)
REMARK    1  A    between atoms: N_2  and  C_31
REMARK    2  A    between atoms: C_4  and  C_12
REMARK                            x       y       z     vdW  Elec       q    Type
REMARK                         _______ _______ _______ _____ _____    ______ ____
ROOT
ATOM      1  O   UNL     1      33.440 -20.018 -20.145  0.00  0.00    -0.269 OA
ATOM      2  N   UNL     1      35.186 -21.035 -18.935  0.00  0.00    -0.233 N 
ATOM      3  C   UNL     1      34.639 -20.239 -19.970  0.00  0.00    +0.256 C 
ATOM      4  C   UNL     1      35.622 -19.563 -20.907  0.00  0.00    +0.050 C 
ATOM      5  C   UNL     1      36.564 -21.097 -18.768  0.00  0.00    +0.072 C 
ATOM      6  C   UNL     1      36.947 -19.679 -20.690  0.00  0.00    -0.016 C 
ATOM      7  C   UNL     1      37.420 -20.464 -19.575  0.00  0.00    +0.012 C 
ATOM      8  C   UNL     1      38.040 -19.064 -21.524  0.00  0.00    +0.031 C 
ENDROOT
BRANCH   4  12
ATOM      9  N   UNL     1      33.568 -16.566 -25.224  0.00  0.00    -0.338 NA
ATOM     10  N   UNL     1      33.967 -14.510 -24.029  0.00  0.00    -0.170 NA
ATOM     11  N   UNL     1      33.033 -14.489 -26.178  0.00  0.00    -0.293 N 
ATOM     12  C   UNL     1      35.086 -18.773 -22.030  0.00  0.00    +0.004 C 
ATOM     13  C   UNL     1      35.038 -17.385 -21.951  0.00  0.00    +0.004 C 
ATOM     14  C   UNL     1      34.626 -19.412 -23.177  0.00  0.00    +0.003 C 
ATOM     15  C   UNL     1      34.527 -16.638 -23.027  0.00  0.00    +0.051 C 
ATOM     16  C   UNL     1      34.059 -17.271 -24.190  0.00  0.00    +0.146 C 
ATOM     17  C   UNL     1      34.119 -18.661 -24.241  0.00  0.00    +0.033 C 
ATOM     18  C   UNL     1      34.451 -15.248 -23.012  0.00  0.00    +0.114 C 
ATOM     19  C   UNL     1      33.549 -15.224 -25.087  0.00  0.00    +0.141 C 
ATOM     20  H   UNL     1      32.712 -14.961 -26.981  0.00  0.00    +0.155 HD
ATOM     21  H   UNL     1      32.994 -13.507 -26.135  0.00  0.00    +0.155 HD
ENDBRANCH   4  12
BRANCH   2  31
ATOM     22  N   UNL     1      34.307 -23.778 -14.918  0.00  0.00    -0.333 N 
ATOM     23  C   UNL     1      31.901 -23.881 -15.238  0.00  0.00    +0.038 C 
ATOM     24  C   UNL     1      33.121 -24.519 -14.502  0.00  0.00    +0.091 C 
ATOM     25  C   UNL     1      32.598 -23.121 -16.339  0.00  0.00    -0.008 C 
ATOM     26  C   UNL     1      33.975 -23.113 -16.095  0.00  0.00    +0.042 C 
ATOM     27  C   UNL     1      30.954 -24.958 -15.772  0.00  0.00    +0.006 C 
ATOM     28  C   UNL     1      31.148 -22.914 -14.313  0.00  0.00    +0.006 C 
ATOM     29  C   UNL     1      32.059 -22.468 -17.437  0.00  0.00    -0.002 C 
ATOM     30  C   UNL     1      34.836 -22.416 -16.926  0.00  0.00    +0.029 C 
ATOM     31  C   UNL     1      34.305 -21.761 -18.038  0.00  0.00    +0.060 C 
ATOM     32  C   UNL     1      32.927 -21.789 -18.295  0.00  0.00    +0.015 C 
ATOM     33  H   UNL     1      35.176 -23.754 -14.454  0.00  0.00    +0.147 HD
ENDBRANCH   2  31
TORSDOF 2
ENDMDL
MODEL 8
REMARK VINA RESULT:      -8.2      4.449      7.631
REMARK  Name = 24812717
REMARK  2 active torsions:
REMARK  status: ('A' for Active; 'I' for Inactive)
REMARK    1  A    between atoms: N_2  and  C_31
REMARK    2  A    between atoms: C_4  and  C_12
REMARK                            x       y       z     vdW  Elec       q    Type
REMARK                         _______ _______ _______ _____ _____    ______ ____
ROOT
ATOM      1  O   UNL     1      32.814  -9.625 -22.884  0.00  0.00    -0.269 OA
ATOM      2  N   UNL     1      31.745  -8.362 -21.207  0.00  0.00    -0.233 N 
ATOM      3  C   UNL     1      32.304  -9.536 -21.765  0.00  0.00    +0.256 C 
ATOM      4  C   UNL     1      32.322 -10.772 -20.885  0.00  0.00    +0.050 C 
ATOM      5  C   UNL     1      31.323  -8.361 -19.883  0.00  0.00    +0.072 C 
ATOM      6  C   UNL     1      31.883 -10.699 -19.613  0.00  0.00    -0.016 C 
ATOM      7  C   UNL     1      31.381  -9.445 -19.105  0.00  0.00    +0.012 C 
ATOM      8  C   UNL     1      31.844 -11.832 -18.622  0.00  0.00    +0.031 C 
ENDROOT
BRANCH   4  12
ATOM      9  N   UNL     1      34.337 -15.583 -23.038  0.00  0.00    -0.338 NA
ATOM     10  N   UNL     1      33.530 -14.979 -25.228  0.00  0.00    -0.170 NA
ATOM     11  N   UNL     1      34.661 -17.001 -24.880  0.00  0.00    -0.293 N 
ATOM     12  C   UNL     1      32.845 -12.027 -21.455  0.00  0.00    +0.004 C 
ATOM     13  C   UNL     1      32.684 -12.303 -22.809  0.00  0.00    +0.004 C 
ATOM     14  C   UNL     1      33.504 -12.943 -20.641  0.00  0.00    +0.003 C 
ATOM     15  C   UNL     1      33.185 -13.502 -23.346  0.00  0.00    +0.051 C 
ATOM     16  C   UNL     1      33.853 -14.434 -22.535  0.00  0.00    +0.146 C 
ATOM     17  C   UNL     1      34.000 -14.132 -21.183  0.00  0.00    +0.033 C 
ATOM     18  C   UNL     1      33.058 -13.839 -24.690  0.00  0.00    +0.114 C 
ATOM     19  C   UNL     1      34.149 -15.793 -24.357  0.00  0.00    +0.141 C 
ATOM     20  H   UNL     1      35.125 -17.636 -24.286  0.00  0.00    +0.155 HD
ATOM     21  H   UNL     1      34.554 -17.208 -25.836  0.00  0.00    +0.155 HD
ENDBRANCH   4  12
BRANCH   2  31
ATOM     22  N   UNL     1      32.200  -3.487 -21.888  0.00  0.00    -0.333 N 
ATOM     23  C   UNL     1      31.481  -3.516 -24.209  0.00  0.00    +0.038 C 
ATOM     24  C   UNL     1      31.714  -2.617 -22.954  0.00  0.00    +0.091 C 
ATOM     25  C   UNL     1      31.445  -4.885 -23.575  0.00  0.00    -0.008 C 
ATOM     26  C   UNL     1      31.859  -4.790 -22.243  0.00  0.00    +0.042 C 
ATOM     27  C   UNL     1      30.170  -3.156 -24.910  0.00  0.00    +0.006 C 
ATOM     28  C   UNL     1      32.660  -3.408 -25.185  0.00  0.00    +0.006 C 
ATOM     29  C   UNL     1      31.109  -6.107 -24.137  0.00  0.00    -0.002 C 
ATOM     30  C   UNL     1      31.982  -5.923 -21.458  0.00  0.00    +0.029 C 
ATOM     31  C   UNL     1      31.640  -7.159 -22.011  0.00  0.00    +0.060 C 
ATOM     32  C   UNL     1      31.203  -7.250 -23.341  0.00  0.00    +0.015 C 
ATOM     33  H   UNL     1      32.678  -3.206 -21.074  0.00  0.00    +0.147 HD
ENDBRANCH   2  31
TORSDOF 2
ENDMDL
MODEL 9
REMARK VINA RESULT:      -8.2      3.437     10.813
REMARK  Name = 24812717
REMARK  2 active torsions:
REMARK  status: ('A' for Active; 'I' for Inactive)
REMARK    1  A    between atoms: N_2  and  C_31
REMARK    2  A    between atoms: C_4  and  C_12
REMARK                            x       y       z     vdW  Elec       q    Type
REMARK                         _______ _______ _______ _____ _____    ______ ____
ROOT
ATOM      1  O   UNL     1      34.443 -11.040 -23.618  0.00  0.00    -0.269 OA
ATOM      2  N   UNL     1      32.952 -11.934 -22.028  0.00  0.00    -0.233 N 
ATOM      3  C   UNL     1      33.539 -10.897 -22.791  0.00  0.00    +0.256 C 
ATOM      4  C   UNL     1      32.969  -9.503 -22.610  0.00  0.00    +0.050 C 
ATOM      5  C   UNL     1      31.850 -11.660 -21.227  0.00  0.00    +0.072 C 
ATOM      6  C   UNL     1      31.905  -9.312 -21.804  0.00  0.00    -0.016 C 
ATOM      7  C   UNL     1      31.329 -10.436 -21.106  0.00  0.00    +0.012 C 
ATOM      8  C   UNL     1      31.226  -7.996 -21.530  0.00  0.00    +0.031 C 
ENDROOT
BRANCH   4  12
ATOM      9  N   UNL     1      35.387  -5.242 -25.407  0.00  0.00    -0.338 NA
ATOM     10  N   UNL     1      33.499  -5.108 -26.900  0.00  0.00    -0.170 NA
ATOM     11  N   UNL     1      35.323  -3.655 -27.135  0.00  0.00    -0.293 N 
ATOM     12  C   UNL     1      33.595  -8.391 -23.346  0.00  0.00    +0.004 C 
ATOM     13  C   UNL     1      32.941  -7.811 -24.429  0.00  0.00    +0.004 C 
ATOM     14  C   UNL     1      34.842  -7.912 -22.961  0.00  0.00    +0.003 C 
ATOM     15  C   UNL     1      33.543  -6.749 -25.126  0.00  0.00    +0.051 C 
ATOM     16  C   UNL     1      34.802  -6.257 -24.747  0.00  0.00    +0.146 C 
ATOM     17  C   UNL     1      35.434  -6.855 -23.659  0.00  0.00    +0.033 C 
ATOM     18  C   UNL     1      32.944  -6.126 -26.217  0.00  0.00    +0.114 C 
ATOM     19  C   UNL     1      34.703  -4.722 -26.447  0.00  0.00    +0.141 C 
ATOM     20  H   UNL     1      36.207  -3.331 -26.846  0.00  0.00    +0.155 HD
ATOM     21  H   UNL     1      34.871  -3.236 -27.902  0.00  0.00    +0.155 HD
ENDBRANCH   4  12
BRANCH   2  31
ATOM     22  N   UNL     1      34.367 -15.955 -24.532  0.00  0.00    -0.333 N 
ATOM     23  C   UNL     1      35.098 -17.193 -22.574  0.00  0.00    +0.038 C 
ATOM     24  C   UNL     1      34.695 -17.301 -24.078  0.00  0.00    +0.091 C 
ATOM     25  C   UNL     1      34.524 -15.843 -22.223  0.00  0.00    -0.008 C 
ATOM     26  C   UNL     1      34.115 -15.194 -23.392  0.00  0.00    +0.042 C 
ATOM     27  C   UNL     1      34.481 -18.328 -21.754  0.00  0.00    +0.006 C 
ATOM     28  C   UNL     1      36.625 -17.183 -22.416  0.00  0.00    +0.006 C 
ATOM     29  C   UNL     1      34.405 -15.231 -20.984  0.00  0.00    -0.002 C 
ATOM     30  C   UNL     1      33.616 -13.904 -23.349  0.00  0.00    +0.029 C 
ATOM     31  C   UNL     1      33.486 -13.281 -22.106  0.00  0.00    +0.060 C 
ATOM     32  C   UNL     1      33.875 -13.941 -20.931  0.00  0.00    +0.015 C 
ATOM     33  H   UNL     1      34.330 -15.642 -25.466  0.00  0.00    +0.147 HD
ENDBRANCH   2  31
TORSDOF 2
ENDMDL
