MODEL 1
REMARK VINA RESULT:     -11.5      0.000      0.000
REMARK  Name = 4565
REMARK  4 active torsions:
REMARK  status: ('A' for Active; 'I' for Inactive)
REMARK    1  A    between atoms: N_5  and  C_15
REMARK    2  A    between atoms: C_6  and  O_21
REMARK    3  A    between atoms: O_21  and  C_22
REMARK    4  A    between atoms: C_22  and  C_23
REMARK                            x       y       z     vdW  Elec       q    Type
REMARK                         _______ _______ _______ _____ _____    ______ ____
ROOT
ATOM      1  N   UNL     1      32.688 -23.632 -15.545  0.00  0.00    -0.293 NA
ATOM      2  N   UNL     1      29.322 -22.909 -16.837  0.00  0.00    -0.266 NA
ATOM      3  N   UNL     1      30.882 -24.249 -14.025  0.00  0.00    -0.316 NA
ATOM      4  N   UNL     1      28.662 -23.766 -14.888  0.00  0.00    -0.296 N 
ATOM      5  N   UNL     1      33.125 -24.598 -13.457  0.00  0.00    -0.238 N 
ATOM      6  C   UNL     1      31.813 -23.178 -16.468  0.00  0.00    +0.288 C 
ATOM      7  C   UNL     1      30.467 -23.255 -16.177  0.00  0.00    +0.215 C 
ATOM      8  C   UNL     1      30.031 -23.785 -14.970  0.00  0.00    +0.196 C 
ATOM      9  C   UNL     1      32.176 -24.133 -14.395  0.00  0.00    +0.207 C 
ATOM     10  C   UNL     1      28.267 -23.235 -16.025  0.00  0.00    +0.164 C 
ATOM     11  H   UNL     1      29.264 -22.501 -17.731  0.00  0.00    +0.126 HD
ATOM     12  H   UNL     1      28.100 -24.081 -14.143  0.00  0.00    +0.150 HD
ATOM     13  H   UNL     1      32.725 -24.957 -12.631  0.00  0.00    +0.166 HD
ENDROOT
BRANCH   5  15
ATOM     14 CL   UNL     1      37.566 -23.119 -11.355  0.00  0.00    -0.082 Cl
ATOM     15  C   UNL     1      34.531 -24.648 -13.471  0.00  0.00    +0.059 C 
ATOM     16  C   UNL     1      35.268 -23.940 -12.517  0.00  0.00    +0.027 C 
ATOM     17  C   UNL     1      35.197 -25.404 -14.439  0.00  0.00    +0.015 C 
ATOM     18  C   UNL     1      36.661 -23.991 -12.532  0.00  0.00    +0.059 C 
ATOM     19  C   UNL     1      36.590 -25.455 -14.452  0.00  0.00    +0.002 C 
ATOM     20  C   UNL     1      37.323 -24.748 -13.498  0.00  0.00    +0.011 C 
ENDBRANCH   5  15
BRANCH   6  21
ATOM     21  O   UNL     1      32.299 -22.663 -17.645  0.00  0.00    -0.453 OA
BRANCH  21  22
ATOM     22  C   UNL     1      33.633 -22.990 -17.988  0.00  0.00    +0.208 C 
BRANCH  22  23
ATOM     23  C   UNL     1      34.008 -22.226 -19.256  0.00  0.00    +0.044 C 
ATOM     24  C   UNL     1      32.992 -21.110 -19.537  0.00  0.00    +0.004 C 
ATOM     25  C   UNL     1      35.429 -21.656 -19.145  0.00  0.00    +0.004 C 
ATOM     26  C   UNL     1      33.375 -20.297 -20.772  0.00  0.00    +0.000 C 
ATOM     27  C   UNL     1      35.807 -20.841 -20.380  0.00  0.00    +0.000 C 
ATOM     28  C   UNL     1      34.790 -19.739 -20.661  0.00  0.00    +0.000 C 
ENDBRANCH  22  23
ENDBRANCH  21  22
ENDBRANCH   6  21
TORSDOF 4
ENDMDL
MODEL 2
REMARK VINA RESULT:     -11.0      3.262      7.043
REMARK  Name = 4565
REMARK  4 active torsions:
REMARK  status: ('A' for Active; 'I' for Inactive)
REMARK    1  A    between atoms: N_5  and  C_15
REMARK    2  A    between atoms: C_6  and  O_21
REMARK    3  A    between atoms: O_21  and  C_22
REMARK    4  A    between atoms: C_22  and  C_23
REMARK                            x       y       z     vdW  Elec       q    Type
REMARK                         _______ _______ _______ _____ _____    ______ ____
ROOT
ATOM      1  N   UNL     1      35.172 -24.066 -15.254  0.00  0.00    -0.293 NA
ATOM      2  N   UNL     1      36.317 -25.775 -12.206  0.00  0.00    -0.266 NA
ATOM      3  N   UNL     1      37.535 -23.728 -14.748  0.00  0.00    -0.316 NA
ATOM      4  N   UNL     1      38.281 -24.860 -12.731  0.00  0.00    -0.296 N 
ATOM      5  N   UNL     1      36.541 -22.755 -16.630  0.00  0.00    -0.238 N 
ATOM      6  C   UNL     1      35.006 -24.843 -14.162  0.00  0.00    +0.288 C 
ATOM      7  C   UNL     1      36.102 -25.069 -13.354  0.00  0.00    +0.215 C 
ATOM      8  C   UNL     1      37.335 -24.510 -13.661  0.00  0.00    +0.196 C 
ATOM      9  C   UNL     1      36.410 -23.563 -15.477  0.00  0.00    +0.207 C 
ATOM     10  C   UNL     1      37.637 -25.620 -11.871  0.00  0.00    +0.164 C 
ATOM     11  H   UNL     1      35.648 -26.299 -11.708  0.00  0.00    +0.126 HD
ATOM     12  H   UNL     1      39.231 -24.601 -12.712  0.00  0.00    +0.150 HD
ATOM     13  H   UNL     1      37.451 -22.404 -16.767  0.00  0.00    +0.166 HD
ENDROOT
BRANCH   5  15
ATOM     14 CL   UNL     1      35.649 -20.124 -20.943  0.00  0.00    -0.082 Cl
ATOM     15  C   UNL     1      35.625 -22.355 -17.620  0.00  0.00    +0.059 C 
ATOM     16  C   UNL     1      36.042 -21.533 -18.670  0.00  0.00    +0.027 C 
ATOM     17  C   UNL     1      34.295 -22.779 -17.558  0.00  0.00    +0.015 C 
ATOM     18  C   UNL     1      35.133 -21.137 -19.651  0.00  0.00    +0.059 C 
ATOM     19  C   UNL     1      33.387 -22.383 -18.539  0.00  0.00    +0.002 C 
ATOM     20  C   UNL     1      33.806 -21.562 -19.587  0.00  0.00    +0.011 C 
ENDBRANCH   5  15
BRANCH   6  21
ATOM     21  O   UNL     1      33.764 -25.370 -13.906  0.00  0.00    -0.453 OA
BRANCH  21  22
ATOM     22  C   UNL     1      32.760 -24.469 -13.476  0.00  0.00    +0.208 C 
BRANCH  22  23
ATOM     23  C   UNL     1      31.580 -24.561 -14.442  0.00  0.00    +0.044 C 
ATOM     24  C   UNL     1      30.341 -25.127 -13.733  0.00  0.00    +0.004 C 
ATOM     25  C   UNL     1      31.277 -23.190 -15.060  0.00  0.00    +0.004 C 
ATOM     26  C   UNL     1      29.133 -25.179 -14.665  0.00  0.00    +0.000 C 
ATOM     27  C   UNL     1      30.067 -23.246 -15.989  0.00  0.00    +0.000 C 
ATOM     28  C   UNL     1      28.840 -23.816 -15.283  0.00  0.00    +0.000 C 
ENDBRANCH  22  23
ENDBRANCH  21  22
ENDBRANCH   6  21
TORSDOF 4
ENDMDL
MODEL 3
REMARK VINA RESULT:     -10.9      2.795      6.453
REMARK  Name = 4565
REMARK  4 active torsions:
REMARK  status: ('A' for Active; 'I' for Inactive)
REMARK    1  A    between atoms: N_5  and  C_15
REMARK    2  A    between atoms: C_6  and  O_21
REMARK    3  A    between atoms: O_21  and  C_22
REMARK    4  A    between atoms: C_22  and  C_23
REMARK                            x       y       z     vdW  Elec       q    Type
REMARK                         _______ _______ _______ _____ _____    ______ ____
ROOT
ATOM      1  N   UNL     1      33.537 -23.120 -16.083  0.00  0.00    -0.293 NA
ATOM      2  N   UNL     1      31.766 -24.702 -13.275  0.00  0.00    -0.266 NA
ATOM      3  N   UNL     1      31.169 -23.537 -16.503  0.00  0.00    -0.316 NA
ATOM      4  N   UNL     1      30.009 -24.583 -14.642  0.00  0.00    -0.296 N 
ATOM      5  N   UNL     1      32.537 -22.540 -18.120  0.00  0.00    -0.238 N 
ATOM      6  C   UNL     1      33.452 -23.646 -14.842  0.00  0.00    +0.288 C 
ATOM      7  C   UNL     1      32.227 -24.121 -14.422  0.00  0.00    +0.215 C 
ATOM      8  C   UNL     1      31.118 -24.058 -15.255  0.00  0.00    +0.196 C 
ATOM      9  C   UNL     1      32.405 -23.098 -16.828  0.00  0.00    +0.207 C 
ATOM     10  C   UNL     1      30.432 -24.960 -13.454  0.00  0.00    +0.164 C 
ATOM     11  H   UNL     1      32.294 -24.899 -12.467  0.00  0.00    +0.126 HD
ATOM     12  H   UNL     1      29.099 -24.660 -15.008  0.00  0.00    +0.150 HD
ATOM     13  H   UNL     1      31.699 -22.537 -18.638  0.00  0.00    +0.166 HD
ENDROOT
BRANCH   5  15
ATOM     14 CL   UNL     1      34.237 -19.455 -21.850  0.00  0.00    -0.082 Cl
ATOM     15  C   UNL     1      33.631 -21.988 -18.810  0.00  0.00    +0.059 C 
ATOM     16  C   UNL     1      33.418 -21.098 -19.866  0.00  0.00    +0.027 C 
ATOM     17  C   UNL     1      34.935 -22.328 -18.444  0.00  0.00    +0.015 C 
ATOM     18  C   UNL     1      34.503 -20.551 -20.550  0.00  0.00    +0.059 C 
ATOM     19  C   UNL     1      36.020 -21.780 -19.128  0.00  0.00    +0.002 C 
ATOM     20  C   UNL     1      35.804 -20.892 -20.181  0.00  0.00    +0.011 C 
ENDBRANCH   5  15
BRANCH   6  21
ATOM     21  O   UNL     1      34.581 -23.684 -14.060  0.00  0.00    -0.453 OA
BRANCH  21  22
ATOM     22  C   UNL     1      35.784 -23.223 -14.645  0.00  0.00    +0.208 C 
BRANCH  22  23
ATOM     23  C   UNL     1      36.953 -23.961 -13.997  0.00  0.00    +0.044 C 
ATOM     24  C   UNL     1      36.899 -23.825 -12.468  0.00  0.00    +0.004 C 
ATOM     25  C   UNL     1      36.959 -25.438 -14.413  0.00  0.00    +0.004 C 
ATOM     26  C   UNL     1      38.028 -24.600 -11.793  0.00  0.00    +0.000 C 
ATOM     27  C   UNL     1      38.088 -26.210 -13.734  0.00  0.00    +0.000 C 
ATOM     28  C   UNL     1      38.036 -26.065 -12.216  0.00  0.00    +0.000 C 
ENDBRANCH  22  23
ENDBRANCH  21  22
ENDBRANCH   6  21
TORSDOF 4
ENDMDL
MODEL 4
REMARK VINA RESULT:     -10.8      7.787     10.845
REMARK  Name = 4565
REMARK  4 active torsions:
REMARK  status: ('A' for Active; 'I' for Inactive)
REMARK    1  A    between atoms: N_5  and  C_15
REMARK    2  A    between atoms: C_6  and  O_21
REMARK    3  A    between atoms: O_21  and  C_22
REMARK    4  A    between atoms: C_22  and  C_23
REMARK                            x       y       z     vdW  Elec       q    Type
REMARK                         _______ _______ _______ _____ _____    ______ ____
ROOT
ATOM      1  N   UNL     1      34.731 -16.288 -22.320  0.00  0.00    -0.293 NA
ATOM      2  N   UNL     1      33.554 -13.414 -24.289  0.00  0.00    -0.266 NA
ATOM      3  N   UNL     1      34.351 -16.783 -24.679  0.00  0.00    -0.316 NA
ATOM      4  N   UNL     1      33.572 -14.878 -25.971  0.00  0.00    -0.296 N 
ATOM      5  N   UNL     1      35.103 -18.429 -23.195  0.00  0.00    -0.238 N 
ATOM      6  C   UNL     1      34.358 -15.001 -22.487  0.00  0.00    +0.288 C 
ATOM      7  C   UNL     1      33.979 -14.594 -23.749  0.00  0.00    +0.215 C 
ATOM      8  C   UNL     1      33.982 -15.487 -24.813  0.00  0.00    +0.196 C 
ATOM      9  C   UNL     1      34.705 -17.089 -23.412  0.00  0.00    +0.207 C 
ATOM     10  C   UNL     1      33.323 -13.633 -25.622  0.00  0.00    +0.164 C 
ATOM     11  H   UNL     1      33.434 -12.562 -23.810  0.00  0.00    +0.126 HD
ATOM     12  H   UNL     1      33.485 -15.281 -26.865  0.00  0.00    +0.150 HD
ATOM     13  H   UNL     1      35.074 -18.988 -24.005  0.00  0.00    +0.166 HD
ENDROOT
BRANCH   5  15
ATOM     14 CL   UNL     1      33.999 -21.720 -19.416  0.00  0.00    -0.082 Cl
ATOM     15  C   UNL     1      35.531 -19.119 -22.046  0.00  0.00    +0.059 C 
ATOM     16  C   UNL     1      34.655 -19.977 -21.377  0.00  0.00    +0.027 C 
ATOM     17  C   UNL     1      36.833 -18.949 -21.570  0.00  0.00    +0.015 C 
ATOM     18  C   UNL     1      35.081 -20.662 -20.239  0.00  0.00    +0.059 C 
ATOM     19  C   UNL     1      37.258 -19.635 -20.433  0.00  0.00    +0.002 C 
ATOM     20  C   UNL     1      36.381 -20.492 -19.766  0.00  0.00    +0.011 C 
ENDBRANCH   5  15
BRANCH   6  21
ATOM     21  O   UNL     1      34.373 -14.161 -21.400  0.00  0.00    -0.453 OA
BRANCH  21  22
ATOM     22  C   UNL     1      33.177 -14.058 -20.650  0.00  0.00    +0.208 C 
BRANCH  22  23
ATOM     23  C   UNL     1      32.656 -12.627 -20.764  0.00  0.00    +0.044 C 
ATOM     24  C   UNL     1      31.472 -12.557 -21.739  0.00  0.00    +0.004 C 
ATOM     25  C   UNL     1      32.260 -12.083 -19.385  0.00  0.00    +0.004 C 
ATOM     26  C   UNL     1      30.898 -11.145 -21.829  0.00  0.00    +0.000 C 
ATOM     27  C   UNL     1      31.684 -10.671 -19.480  0.00  0.00    +0.000 C 
ATOM     28  C   UNL     1      30.514 -10.604 -20.456  0.00  0.00    +0.000 C 
ENDBRANCH  22  23
ENDBRANCH  21  22
ENDBRANCH   6  21
TORSDOF 4
ENDMDL
MODEL 5
REMARK VINA RESULT:     -10.8      2.930      5.574
REMARK  Name = 4565
REMARK  4 active torsions:
REMARK  status: ('A' for Active; 'I' for Inactive)
REMARK    1  A    between atoms: N_5  and  C_15
REMARK    2  A    between atoms: C_6  and  O_21
REMARK    3  A    between atoms: O_21  and  C_22
REMARK    4  A    between atoms: C_22  and  C_23
REMARK                            x       y       z     vdW  Elec       q    Type
REMARK                         _______ _______ _______ _____ _____    ______ ____
ROOT
ATOM      1  N   UNL     1      34.832 -23.947 -15.022  0.00  0.00    -0.293 NA
ATOM      2  N   UNL     1      38.497 -24.135 -15.252  0.00  0.00    -0.266 NA
ATOM      3  N   UNL     1      35.885 -25.174 -13.194  0.00  0.00    -0.316 NA
ATOM      4  N   UNL     1      38.307 -25.293 -13.357  0.00  0.00    -0.296 N 
ATOM      5  N   UNL     1      33.564 -24.900 -13.299  0.00  0.00    -0.238 N 
ATOM      6  C   UNL     1      36.027 -23.698 -15.599  0.00  0.00    +0.288 C 
ATOM      7  C   UNL     1      37.160 -24.184 -14.980  0.00  0.00    +0.215 C 
ATOM      8  C   UNL     1      37.068 -24.907 -13.799  0.00  0.00    +0.196 C 
ATOM      9  C   UNL     1      34.835 -24.661 -13.870  0.00  0.00    +0.207 C 
ATOM     10  C   UNL     1      39.144 -24.813 -14.253  0.00  0.00    +0.164 C 
ATOM     11  H   UNL     1      38.920 -23.695 -16.025  0.00  0.00    +0.126 HD
ATOM     12  H   UNL     1      38.524 -25.813 -12.549  0.00  0.00    +0.150 HD
ATOM     13  H   UNL     1      33.596 -25.420 -12.463  0.00  0.00    +0.166 HD
ENDROOT
BRANCH   5  15
ATOM     14 CL   UNL     1      28.681 -26.300 -14.024  0.00  0.00    -0.082 Cl
ATOM     15  C   UNL     1      32.262 -24.541 -13.691  0.00  0.00    +0.059 C 
ATOM     16  C   UNL     1      31.235 -25.488 -13.667  0.00  0.00    +0.027 C 
ATOM     17  C   UNL     1      31.990 -23.235 -14.106  0.00  0.00    +0.015 C 
ATOM     18  C   UNL     1      29.944 -25.130 -14.056  0.00  0.00    +0.059 C 
ATOM     19  C   UNL     1      30.698 -22.878 -14.494  0.00  0.00    +0.002 C 
ATOM     20  C   UNL     1      29.675 -23.826 -14.469  0.00  0.00    +0.011 C 
ENDBRANCH   5  15
BRANCH   6  21
ATOM     21  O   UNL     1      36.061 -22.977 -16.768  0.00  0.00    -0.453 OA
BRANCH  21  22
ATOM     22  C   UNL     1      34.831 -22.790 -17.443  0.00  0.00    +0.208 C 
BRANCH  22  23
ATOM     23  C   UNL     1      35.120 -22.189 -18.818  0.00  0.00    +0.044 C 
ATOM     24  C   UNL     1      33.918 -21.373 -19.316  0.00  0.00    +0.004 C 
ATOM     25  C   UNL     1      36.387 -21.325 -18.776  0.00  0.00    +0.004 C 
ATOM     26  C   UNL     1      34.203 -20.718 -20.665  0.00  0.00    +0.000 C 
ATOM     27  C   UNL     1      36.666 -20.669 -20.127  0.00  0.00    +0.000 C 
ATOM     28  C   UNL     1      35.467 -19.867 -20.623  0.00  0.00    +0.000 C 
ENDBRANCH  22  23
ENDBRANCH  21  22
ENDBRANCH   6  21
TORSDOF 4
ENDMDL
MODEL 6
REMARK VINA RESULT:     -10.7      2.602      5.665
REMARK  Name = 4565
REMARK  4 active torsions:
REMARK  status: ('A' for Active; 'I' for Inactive)
REMARK    1  A    between atoms: N_5  and  C_15
REMARK    2  A    between atoms: C_6  and  O_21
REMARK    3  A    between atoms: O_21  and  C_22
REMARK    4  A    between atoms: C_22  and  C_23
REMARK                            x       y       z     vdW  Elec       q    Type
REMARK                         _______ _______ _______ _____ _____    ______ ____
ROOT
ATOM      1  N   UNL     1      35.151 -23.136 -16.867  0.00  0.00    -0.293 NA
ATOM      2  N   UNL     1      33.810 -21.479 -19.863  0.00  0.00    -0.266 NA
ATOM      3  N   UNL     1      36.733 -21.643 -17.973  0.00  0.00    -0.316 NA
ATOM      4  N   UNL     1      35.837 -20.554 -19.953  0.00  0.00    -0.296 N 
ATOM      5  N   UNL     1      37.322 -22.828 -16.043  0.00  0.00    -0.238 N 
ATOM      6  C   UNL     1      34.193 -22.865 -17.779  0.00  0.00    +0.288 C 
ATOM      7  C   UNL     1      34.496 -21.982 -18.795  0.00  0.00    +0.215 C 
ATOM      8  C   UNL     1      35.750 -21.393 -18.871  0.00  0.00    +0.196 C 
ATOM      9  C   UNL     1      36.347 -22.516 -17.018  0.00  0.00    +0.207 C 
ATOM     10  C   UNL     1      34.655 -20.627 -20.526  0.00  0.00    +0.164 C 
ATOM     11  H   UNL     1      32.881 -21.688 -20.112  0.00  0.00    +0.126 HD
ATOM     12  H   UNL     1      36.611 -20.015 -20.236  0.00  0.00    +0.150 HD
ATOM     13  H   UNL     1      38.180 -22.363 -16.178  0.00  0.00    +0.166 HD
ENDROOT
BRANCH   5  15
ATOM     14 CL   UNL     1      35.201 -24.051 -11.534  0.00  0.00    -0.082 Cl
ATOM     15  C   UNL     1      37.307 -23.671 -14.918  0.00  0.00    +0.059 C 
ATOM     16  C   UNL     1      36.371 -23.467 -13.901  0.00  0.00    +0.027 C 
ATOM     17  C   UNL     1      38.227 -24.718 -14.813  0.00  0.00    +0.015 C 
ATOM     18  C   UNL     1      36.356 -24.305 -12.786  0.00  0.00    +0.059 C 
ATOM     19  C   UNL     1      38.211 -25.555 -13.698  0.00  0.00    +0.002 C 
ATOM     20  C   UNL     1      37.275 -25.349 -12.684  0.00  0.00    +0.011 C 
ENDBRANCH   5  15
BRANCH   6  21
ATOM     21  O   UNL     1      32.969 -23.477 -17.655  0.00  0.00    -0.453 OA
BRANCH  21  22
ATOM     22  C   UNL     1      32.071 -22.933 -16.706  0.00  0.00    +0.208 C 
BRANCH  22  23
ATOM     23  C   UNL     1      31.700 -24.028 -15.707  0.00  0.00    +0.044 C 
ATOM     24  C   UNL     1      32.591 -23.948 -14.460  0.00  0.00    +0.004 C 
ATOM     25  C   UNL     1      30.217 -23.933 -15.326  0.00  0.00    +0.004 C 
ATOM     26  C   UNL     1      32.204 -25.000 -13.423  0.00  0.00    +0.000 C 
ATOM     27  C   UNL     1      29.834 -24.984 -14.287  0.00  0.00    +0.000 C 
ATOM     28  C   UNL     1      30.728 -24.908 -13.052  0.00  0.00    +0.000 C 
ENDBRANCH  22  23
ENDBRANCH  21  22
ENDBRANCH   6  21
TORSDOF 4
ENDMDL
MODEL 7
REMARK VINA RESULT:     -10.7      2.721      5.363
REMARK  Name = 4565
REMARK  4 active torsions:
REMARK  status: ('A' for Active; 'I' for Inactive)
REMARK    1  A    between atoms: N_5  and  C_15
REMARK    2  A    between atoms: C_6  and  O_21
REMARK    3  A    between atoms: O_21  and  C_22
REMARK    4  A    between atoms: C_22  and  C_23
REMARK                            x       y       z     vdW  Elec       q    Type
REMARK                         _______ _______ _______ _____ _____    ______ ____
ROOT
ATOM      1  N   UNL     1      33.600 -23.927 -14.839  0.00  0.00    -0.293 NA
ATOM      2  N   UNL     1      37.192 -23.291 -14.379  0.00  0.00    -0.266 NA
ATOM      3  N   UNL     1      34.367 -24.158 -12.534  0.00  0.00    -0.316 NA
ATOM      4  N   UNL     1      36.743 -23.736 -12.242  0.00  0.00    -0.296 N 
ATOM      5  N   UNL     1      32.127 -24.506 -13.113  0.00  0.00    -0.238 N 
ATOM      6  C   UNL     1      34.841 -23.610 -15.265  0.00  0.00    +0.288 C 
ATOM      7  C   UNL     1      35.855 -23.564 -14.331  0.00  0.00    +0.215 C 
ATOM      8  C   UNL     1      35.600 -23.837 -12.994  0.00  0.00    +0.196 C 
ATOM      9  C   UNL     1      33.441 -24.178 -13.517  0.00  0.00    +0.207 C 
ATOM     10  C   UNL     1      37.680 -23.406 -13.104  0.00  0.00    +0.164 C 
ATOM     11  H   UNL     1      37.711 -23.055 -15.182  0.00  0.00    +0.126 HD
ATOM     12  H   UNL     1      36.840 -23.878 -11.273  0.00  0.00    +0.150 HD
ATOM     13  H   UNL     1      32.041 -24.683 -12.148  0.00  0.00    +0.166 HD
ENDROOT
BRANCH   5  15
ATOM     14 CL   UNL     1      28.623 -22.347 -16.177  0.00  0.00    -0.082 Cl
ATOM     15  C   UNL     1      30.917 -24.629 -13.820  0.00  0.00    +0.059 C 
ATOM     16  C   UNL     1      30.425 -23.552 -14.562  0.00  0.00    +0.027 C 
ATOM     17  C   UNL     1      30.202 -25.829 -13.783  0.00  0.00    +0.015 C 
ATOM     18  C   UNL     1      29.226 -23.676 -15.263  0.00  0.00    +0.059 C 
ATOM     19  C   UNL     1      29.003 -25.952 -14.485  0.00  0.00    +0.002 C 
ATOM     20  C   UNL     1      28.515 -24.874 -15.225  0.00  0.00    +0.011 C 
ENDBRANCH   5  15
BRANCH   6  21
ATOM     21  O   UNL     1      35.037 -23.349 -16.600  0.00  0.00    -0.453 OA
BRANCH  21  22
ATOM     22  C   UNL     1      33.881 -23.180 -17.398  0.00  0.00    +0.208 C 
BRANCH  22  23
ATOM     23  C   UNL     1      34.297 -22.547 -18.725  0.00  0.00    +0.044 C 
ATOM     24  C   UNL     1      33.291 -21.469 -19.150  0.00  0.00    +0.004 C 
ATOM     25  C   UNL     1      35.713 -21.964 -18.627  0.00  0.00    +0.004 C 
ATOM     26  C   UNL     1      33.714 -20.784 -20.448  0.00  0.00    +0.000 C 
ATOM     27  C   UNL     1      36.131 -21.278 -19.925  0.00  0.00    +0.000 C 
ATOM     28  C   UNL     1      35.124 -20.213 -20.349  0.00  0.00    +0.000 C 
ENDBRANCH  22  23
ENDBRANCH  21  22
ENDBRANCH   6  21
TORSDOF 4
ENDMDL
MODEL 8
REMARK VINA RESULT:     -10.6      2.617      5.450
REMARK  Name = 4565
REMARK  4 active torsions:
REMARK  status: ('A' for Active; 'I' for Inactive)
REMARK    1  A    between atoms: N_5  and  C_15
REMARK    2  A    between atoms: C_6  and  O_21
REMARK    3  A    between atoms: O_21  and  C_22
REMARK    4  A    between atoms: C_22  and  C_23
REMARK                            x       y       z     vdW  Elec       q    Type
REMARK                         _______ _______ _______ _____ _____    ______ ____
ROOT
ATOM      1  N   UNL     1      35.107 -23.446 -16.238  0.00  0.00    -0.293 NA
ATOM      2  N   UNL     1      32.909 -22.203 -18.911  0.00  0.00    -0.266 NA
ATOM      3  N   UNL     1      36.241 -22.069 -17.902  0.00  0.00    -0.316 NA
ATOM      4  N   UNL     1      34.780 -21.254 -19.665  0.00  0.00    -0.296 N 
ATOM      5  N   UNL     1      37.400 -22.991 -16.090  0.00  0.00    -0.238 N 
ATOM      6  C   UNL     1      33.922 -23.311 -16.872  0.00  0.00    +0.288 C 
ATOM      7  C   UNL     1      33.887 -22.555 -18.025  0.00  0.00    +0.215 C 
ATOM      8  C   UNL     1      35.039 -21.954 -18.515  0.00  0.00    +0.196 C 
ATOM      9  C   UNL     1      36.180 -22.824 -16.785  0.00  0.00    +0.207 C 
ATOM     10  C   UNL     1      33.492 -21.424 -19.876  0.00  0.00    +0.164 C 
ATOM     11  H   UNL     1      31.960 -22.462 -18.867  0.00  0.00    +0.126 HD
ATOM     12  H   UNL     1      35.416 -20.738 -20.212  0.00  0.00    +0.150 HD
ATOM     13  H   UNL     1      38.162 -22.528 -16.510  0.00  0.00    +0.166 HD
ENDROOT
BRANCH   5  15
ATOM     14 CL   UNL     1      40.438 -26.413 -13.771  0.00  0.00    -0.082 Cl
ATOM     15  C   UNL     1      37.739 -23.688 -14.917  0.00  0.00    +0.059 C 
ATOM     16  C   UNL     1      38.797 -24.600 -14.924  0.00  0.00    +0.027 C 
ATOM     17  C   UNL     1      37.019 -23.472 -13.739  0.00  0.00    +0.015 C 
ATOM     18  C   UNL     1      39.133 -25.290 -13.760  0.00  0.00    +0.059 C 
ATOM     19  C   UNL     1      37.355 -24.162 -12.575  0.00  0.00    +0.002 C 
ATOM     20  C   UNL     1      38.413 -25.072 -12.585  0.00  0.00    +0.011 C 
ENDBRANCH   5  15
BRANCH   6  21
ATOM     21  O   UNL     1      32.815 -23.928 -16.344  0.00  0.00    -0.453 OA
BRANCH  21  22
ATOM     22  C   UNL     1      32.465 -23.595 -15.014  0.00  0.00    +0.208 C 
BRANCH  22  23
ATOM     23  C   UNL     1      30.945 -23.669 -14.879  0.00  0.00    +0.044 C 
ATOM     24  C   UNL     1      30.262 -23.006 -16.083  0.00  0.00    +0.004 C 
ATOM     25  C   UNL     1      30.485 -25.124 -14.723  0.00  0.00    +0.004 C 
ATOM     26  C   UNL     1      28.741 -23.113 -15.998  0.00  0.00    +0.000 C 
ATOM     27  C   UNL     1      28.964 -25.228 -14.640  0.00  0.00    +0.000 C 
ATOM     28  C   UNL     1      28.288 -24.560 -15.834  0.00  0.00    +0.000 C 
ENDBRANCH  22  23
ENDBRANCH  21  22
ENDBRANCH   6  21
TORSDOF 4
ENDMDL
MODEL 9
REMARK VINA RESULT:     -10.1      3.042      6.425
REMARK  Name = 4565
REMARK  4 active torsions:
REMARK  status: ('A' for Active; 'I' for Inactive)
REMARK    1  A    between atoms: N_5  and  C_15
REMARK    2  A    between atoms: C_6  and  O_21
REMARK    3  A    between atoms: O_21  and  C_22
REMARK    4  A    between atoms: C_22  and  C_23
REMARK                            x       y       z     vdW  Elec       q    Type
REMARK                         _______ _______ _______ _____ _____    ______ ____
ROOT
ATOM      1  N   UNL     1      33.997 -23.000 -16.935  0.00  0.00    -0.293 NA
ATOM      2  N   UNL     1      35.876 -21.331 -19.620  0.00  0.00    -0.266 NA
ATOM      3  N   UNL     1      32.593 -21.984 -18.653  0.00  0.00    -0.316 NA
ATOM      4  N   UNL     1      33.844 -20.883 -20.422  0.00  0.00    -0.296 N 
ATOM      5  N   UNL     1      31.660 -23.113 -16.827  0.00  0.00    -0.238 N 
ATOM      6  C   UNL     1      35.125 -22.598 -17.560  0.00  0.00    +0.288 C 
ATOM      7  C   UNL     1      34.997 -21.886 -18.735  0.00  0.00    +0.215 C 
ATOM      8  C   UNL     1      33.743 -21.595 -19.254  0.00  0.00    +0.196 C 
ATOM      9  C   UNL     1      32.816 -22.673 -17.513  0.00  0.00    +0.207 C 
ATOM     10  C   UNL     1      35.139 -20.742 -20.614  0.00  0.00    +0.164 C 
ATOM     11  H   UNL     1      36.858 -21.349 -19.557  0.00  0.00    +0.126 HD
ATOM     12  H   UNL     1      33.112 -20.552 -20.991  0.00  0.00    +0.150 HD
ATOM     13  H   UNL     1      30.817 -22.861 -17.270  0.00  0.00    +0.166 HD
ENDROOT
BRANCH   5  15
ATOM     14 CL   UNL     1      28.675 -26.178 -13.995  0.00  0.00    -0.082 Cl
ATOM     15  C   UNL     1      31.479 -23.839 -15.637  0.00  0.00    +0.059 C 
ATOM     16  C   UNL     1      30.303 -24.564 -15.429  0.00  0.00    +0.027 C 
ATOM     17  C   UNL     1      32.475 -23.838 -14.656  0.00  0.00    +0.015 C 
ATOM     18  C   UNL     1      30.125 -25.285 -14.248  0.00  0.00    +0.059 C 
ATOM     19  C   UNL     1      32.296 -24.559 -13.476  0.00  0.00    +0.002 C 
ATOM     20  C   UNL     1      31.121 -25.283 -13.272  0.00  0.00    +0.011 C 
ENDBRANCH   5  15
BRANCH   6  21
ATOM     21  O   UNL     1      36.340 -22.913 -17.001  0.00  0.00    -0.453 OA
BRANCH  21  22
ATOM     22  C   UNL     1      36.516 -22.606 -15.631  0.00  0.00    +0.208 C 
BRANCH  22  23
ATOM     23  C   UNL     1      36.563 -23.914 -14.843  0.00  0.00    +0.044 C 
ATOM     24  C   UNL     1      38.004 -24.433 -14.740  0.00  0.00    +0.004 C 
ATOM     25  C   UNL     1      35.947 -23.729 -13.450  0.00  0.00    +0.004 C 
ATOM     26  C   UNL     1      38.083 -25.713 -13.911  0.00  0.00    +0.000 C 
ATOM     27  C   UNL     1      36.031 -25.011 -12.623  0.00  0.00    +0.000 C 
ATOM     28  C   UNL     1      37.463 -25.529 -12.530  0.00  0.00    +0.000 C 
ENDBRANCH  22  23
ENDBRANCH  21  22
ENDBRANCH   6  21
TORSDOF 4
ENDMDL
