MODEL 1
REMARK VINA RESULT:     -12.2      0.000      0.000
REMARK  Name = 5327153
REMARK  6 active torsions:
REMARK  status: ('A' for Active; 'I' for Inactive)
REMARK    1  A    between atoms: C_3  and  C_15
REMARK    2  A    between atoms: C_10  and  O_24
REMARK    3  A    between atoms: C_11  and  N_18
REMARK    4  A    between atoms: N_18  and  S_20
REMARK    5  A    between atoms: O_24  and  C_25
REMARK    6  A    between atoms: C_25  and  C_26
REMARK                            x       y       z     vdW  Elec       q    Type
REMARK                         _______ _______ _______ _____ _____    ______ ____
ROOT
ATOM      1  O   UNL     1      37.253 -22.290 -16.020  0.00  0.00    -0.226 OA
ATOM      2  N   UNL     1      35.121 -23.194 -15.756  0.00  0.00    -0.235 N 
ATOM      3  C   UNL     1      35.402 -23.736 -14.426  0.00  0.00    +0.159 C 
ATOM      4  C   UNL     1      34.258 -23.503 -13.445  0.00  0.00    +0.055 C 
ATOM      5  C   UNL     1      33.822 -23.500 -16.373  0.00  0.00    +0.124 C 
ATOM      6  C   UNL     1      32.907 -23.827 -14.025  0.00  0.00    -0.022 C 
ATOM      7  C   UNL     1      32.703 -23.807 -15.412  0.00  0.00    -0.005 C 
ATOM      8  C   UNL     1      31.427 -24.089 -15.922  0.00  0.00    +0.013 C 
ATOM      9  C   UNL     1      31.830 -24.103 -13.169  0.00  0.00    -0.003 C 
ATOM     10  C   UNL     1      36.149 -22.570 -16.481  0.00  0.00    +0.406 C 
ATOM     11  C   UNL     1      30.365 -24.375 -15.065  0.00  0.00    +0.065 C 
ATOM     12  C   UNL     1      30.567 -24.380 -13.688  0.00  0.00    +0.016 C 
ENDROOT
BRANCH   3  15
ATOM     13  O   UNL     1      35.204 -25.864 -15.496  0.00  0.00    -0.273 OA
ATOM     14  N   UNL     1      36.625 -25.651 -13.664  0.00  0.00    -0.301 N 
ATOM     15  C   UNL     1      35.723 -25.192 -14.608  0.00  0.00    +0.241 C 
ATOM     16  C   UNL     1      37.080 -27.022 -13.607  0.00  0.00    +0.111 C 
ATOM     17  H   UNL     1      36.974 -25.014 -12.999  0.00  0.00    +0.150 HD
ENDBRANCH   3  15
BRANCH  11  18
ATOM     18  N   UNL     1      29.073 -24.659 -15.600  0.00  0.00    -0.213 N 
ATOM     19  H   UNL     1      28.715 -25.576 -15.628  0.00  0.00    +0.174 HD
BRANCH  18  20
ATOM     20  S   UNL     1      28.165 -23.310 -16.198  0.00  0.00    +0.091 S 
ATOM     21  O   UNL     1      27.550 -23.829 -17.617  0.00  0.00    -0.050 OA
ATOM     22  O   UNL     1      27.052 -23.060 -15.299  0.00  0.00    -0.050 OA
ATOM     23  O   UNL     1      29.102 -22.244 -16.503  0.00  0.00    -0.050 OA
ENDBRANCH  18  20
ENDBRANCH  11  18
BRANCH  10  24
ATOM     24  O   UNL     1      35.791 -22.309 -17.779  0.00  0.00    -0.430 OA
BRANCH  24  25
ATOM     25  C   UNL     1      36.797 -21.706 -18.600  0.00  0.00    +0.237 C 
BRANCH  25  26
ATOM     26  C   UNL     1      36.134 -20.821 -19.614  0.00  0.00    +0.021 C 
ATOM     27  C   UNL     1      34.788 -21.002 -19.912  0.00  0.00    -0.001 C 
ATOM     28  C   UNL     1      36.871 -19.827 -20.249  0.00  0.00    -0.001 C 
ATOM     29  C   UNL     1      34.171 -20.180 -20.854  0.00  0.00    -0.000 C 
ATOM     30  C   UNL     1      36.254 -19.004 -21.191  0.00  0.00    -0.000 C 
ATOM     31  C   UNL     1      34.904 -19.180 -21.494  0.00  0.00    -0.000 C 
ENDBRANCH  25  26
ENDBRANCH  24  25
ENDBRANCH  10  24
TORSDOF 6
ENDMDL
