MODEL 1
REMARK VINA RESULT:     -11.9      0.000      0.000
REMARK  Name = 58212050
REMARK  2 active torsions:
REMARK  status: ('A' for Active; 'I' for Inactive)
REMARK    1  A    between atoms: C_2  and  C_13
REMARK    2  A    between atoms: C_10  and  C_26
REMARK                            x       y       z     vdW  Elec       q    Type
REMARK                         _______ _______ _______ _____ _____    ______ ____
ROOT
ATOM      1  N   UNL     1      31.148 -10.590 -20.271  0.00  0.00    +0.389 N 
ATOM      2  C   UNL     1      32.096  -9.928 -22.461  0.00  0.00    +0.023 C 
ATOM      3  C   UNL     1      31.810  -9.502 -21.000  0.00  0.00    -0.068 C 
ATOM      4  C   UNL     1      32.676 -11.333 -22.564  0.00  0.00    -0.026 C 
ATOM      5  C   UNL     1      32.634 -12.195 -21.451  0.00  0.00    -0.047 C 
ATOM      6  C   UNL     1      32.074 -11.724 -20.128  0.00  0.00    -0.050 C 
ATOM      7  C   UNL     1      33.179 -11.821 -23.782  0.00  0.00    -0.004 C 
ATOM      8  C   UNL     1      33.157 -13.492 -21.555  0.00  0.00    -0.005 C 
ATOM      9  C   UNL     1      30.698 -10.133 -18.956  0.00  0.00    -0.100 C 
ATOM     10  C   UNL     1      33.681 -13.951 -22.762  0.00  0.00    +0.019 C 
ATOM     11  C   UNL     1      33.685 -13.117 -23.877  0.00  0.00    +0.001 C 
ATOM     12  H   UNL     1      30.328 -10.890 -20.799  0.00  0.00    -0.079 HD
ENDROOT
BRANCH   2  13
ATOM     13  C   UNL     1      32.932  -8.852 -23.143  0.00  0.00    -0.020 C 
ATOM     14  C   UNL     1      32.305  -7.815 -23.833  0.00  0.00    -0.004 C 
ATOM     15  C   UNL     1      34.321  -8.906 -23.078  0.00  0.00    -0.004 C 
ATOM     16  C   UNL     1      33.061  -6.817 -24.468  0.00  0.00    -0.000 C 
ATOM     17  C   UNL     1      34.474  -6.872 -24.402  0.00  0.00    -0.000 C 
ATOM     18  C   UNL     1      35.088  -7.923 -23.703  0.00  0.00    -0.000 C 
ATOM     19  C   UNL     1      32.446  -5.766 -25.168  0.00  0.00    -0.000 C 
ATOM     20  C   UNL     1      35.230  -5.873 -25.038  0.00  0.00    -0.000 C 
ATOM     21  C   UNL     1      33.213  -4.782 -25.793  0.00  0.00    -0.000 C 
ATOM     22  C   UNL     1      34.602  -4.836 -25.729  0.00  0.00    -0.000 C 
ENDBRANCH   2  13
BRANCH  10  26
ATOM     23  N   UNL     1      34.709 -15.803 -21.712  0.00  0.00    -0.147 NA
ATOM     24  N   UNL     1      35.228 -17.061 -21.717  0.00  0.00    -0.133 NA
ATOM     25  N   UNL     1      35.771 -19.074 -22.873  0.00  0.00    -0.341 N 
ATOM     26  C   UNL     1      34.212 -15.293 -22.859  0.00  0.00    +0.103 C 
ATOM     27  C   UNL     1      34.202 -15.991 -24.050  0.00  0.00    +0.024 C 
ATOM     28  C   UNL     1      34.730 -17.270 -24.054  0.00  0.00    +0.037 C 
ATOM     29  C   UNL     1      35.232 -17.766 -22.868  0.00  0.00    +0.147 C 
ATOM     30  H   UNL     1      36.137 -19.458 -22.043  0.00  0.00    +0.144 HD
ATOM     31  H   UNL     1      35.781 -19.599 -23.705  0.00  0.00    +0.144 HD
ENDBRANCH  10  26
TORSDOF 2
ENDMDL
MODEL 2
REMARK VINA RESULT:     -11.7      8.085     13.772
REMARK  Name = 58212050
REMARK  2 active torsions:
REMARK  status: ('A' for Active; 'I' for Inactive)
REMARK    1  A    between atoms: C_2  and  C_13
REMARK    2  A    between atoms: C_10  and  C_26
REMARK                            x       y       z     vdW  Elec       q    Type
REMARK                         _______ _______ _______ _____ _____    ______ ____
ROOT
ATOM      1  N   UNL     1      36.969 -23.054 -16.640  0.00  0.00    +0.389 N 
ATOM      2  C   UNL     1      34.527 -23.336 -16.928  0.00  0.00    +0.023 C 
ATOM      3  C   UNL     1      35.697 -23.204 -15.924  0.00  0.00    -0.068 C 
ATOM      4  C   UNL     1      34.607 -22.326 -18.066  0.00  0.00    -0.026 C 
ATOM      5  C   UNL     1      35.796 -21.604 -18.283  0.00  0.00    -0.047 C 
ATOM      6  C   UNL     1      36.982 -21.771 -17.361  0.00  0.00    -0.050 C 
ATOM      7  C   UNL     1      33.539 -22.161 -18.964  0.00  0.00    -0.004 C 
ATOM      8  C   UNL     1      35.870 -20.685 -19.340  0.00  0.00    -0.005 C 
ATOM      9  C   UNL     1      38.098 -23.126 -15.711  0.00  0.00    -0.100 C 
ATOM     10  C   UNL     1      34.791 -20.511 -20.204  0.00  0.00    +0.019 C 
ATOM     11  C   UNL     1      33.628 -21.254 -20.020  0.00  0.00    +0.001 C 
ATOM     12  H   UNL     1      37.063 -23.817 -17.310  0.00  0.00    -0.079 HD
ENDROOT
BRANCH   2  13
ATOM     13  C   UNL     1      33.207 -23.318 -16.165  0.00  0.00    -0.020 C 
ATOM     14  C   UNL     1      32.003 -23.203 -16.859  0.00  0.00    -0.004 C 
ATOM     15  C   UNL     1      33.205 -23.415 -14.777  0.00  0.00    -0.004 C 
ATOM     16  C   UNL     1      30.779 -23.184 -16.171  0.00  0.00    -0.000 C 
ATOM     17  C   UNL     1      30.777 -23.282 -14.760  0.00  0.00    -0.000 C 
ATOM     18  C   UNL     1      31.998 -23.397 -14.077  0.00  0.00    -0.000 C 
ATOM     19  C   UNL     1      29.557 -23.068 -16.855  0.00  0.00    -0.000 C 
ATOM     20  C   UNL     1      29.552 -23.262 -14.072  0.00  0.00    -0.000 C 
ATOM     21  C   UNL     1      28.349 -23.050 -16.155  0.00  0.00    -0.000 C 
ATOM     22  C   UNL     1      28.347 -23.147 -14.766  0.00  0.00    -0.000 C 
ENDBRANCH   2  13
BRANCH  10  26
ATOM     23  N   UNL     1      35.348 -18.342 -20.965  0.00  0.00    -0.147 NA
ATOM     24  N   UNL     1      35.464 -17.394 -21.932  0.00  0.00    -0.133 NA
ATOM     25  N   UNL     1      35.230 -16.713 -24.206  0.00  0.00    -0.341 N 
ATOM     26  C   UNL     1      34.881 -19.566 -21.295  0.00  0.00    +0.103 C 
ATOM     27  C   UNL     1      34.511 -19.906 -22.581  0.00  0.00    +0.024 C 
ATOM     28  C   UNL     1      34.629 -18.941 -23.565  0.00  0.00    +0.037 C 
ATOM     29  C   UNL     1      35.109 -17.700 -23.199  0.00  0.00    +0.147 C 
ATOM     30  H   UNL     1      35.569 -15.817 -23.978  0.00  0.00    +0.144 HD
ATOM     31  H   UNL     1      34.974 -16.923 -25.133  0.00  0.00    +0.144 HD
ENDBRANCH  10  26
TORSDOF 2
ENDMDL
MODEL 3
REMARK VINA RESULT:     -10.7      5.127      8.510
REMARK  Name = 58212050
REMARK  2 active torsions:
REMARK  status: ('A' for Active; 'I' for Inactive)
REMARK    1  A    between atoms: C_2  and  C_13
REMARK    2  A    between atoms: C_10  and  C_26
REMARK                            x       y       z     vdW  Elec       q    Type
REMARK                         _______ _______ _______ _____ _____    ______ ____
ROOT
ATOM      1  N   UNL     1      31.619  -4.124 -21.977  0.00  0.00    +0.389 N 
ATOM      2  C   UNL     1      32.734  -6.275 -21.467  0.00  0.00    +0.023 C 
ATOM      3  C   UNL     1      31.418  -5.462 -21.408  0.00  0.00    -0.068 C 
ATOM      4  C   UNL     1      33.444  -6.155 -22.810  0.00  0.00    -0.026 C 
ATOM      5  C   UNL     1      33.055  -5.157 -23.724  0.00  0.00    -0.047 C 
ATOM      6  C   UNL     1      31.895  -4.237 -23.419  0.00  0.00    -0.050 C 
ATOM      7  C   UNL     1      34.545  -6.969 -23.123  0.00  0.00    -0.004 C 
ATOM      8  C   UNL     1      33.720  -5.040 -24.953  0.00  0.00    -0.005 C 
ATOM      9  C   UNL     1      30.444  -3.283 -21.749  0.00  0.00    -0.100 C 
ATOM     10  C   UNL     1      34.792  -5.877 -25.261  0.00  0.00    +0.019 C 
ATOM     11  C   UNL     1      35.208  -6.836 -24.343  0.00  0.00    +0.001 C 
ATOM     12  H   UNL     1      32.417  -3.686 -21.516  0.00  0.00    -0.079 HD
ENDROOT
BRANCH   2  13
ATOM     13  C   UNL     1      32.457  -7.709 -21.031  0.00  0.00    -0.020 C 
ATOM     14  C   UNL     1      32.457  -8.737 -21.974  0.00  0.00    -0.004 C 
ATOM     15  C   UNL     1      32.202  -7.992 -19.693  0.00  0.00    -0.004 C 
ATOM     16  C   UNL     1      32.203 -10.063 -21.589  0.00  0.00    -0.000 C 
ATOM     17  C   UNL     1      31.944 -10.350 -20.228  0.00  0.00    -0.000 C 
ATOM     18  C   UNL     1      31.947  -9.304 -19.293  0.00  0.00    -0.000 C 
ATOM     19  C   UNL     1      32.199 -11.110 -22.526  0.00  0.00    -0.000 C 
ATOM     20  C   UNL     1      31.689 -11.677 -19.843  0.00  0.00    -0.000 C 
ATOM     21  C   UNL     1      31.944 -12.422 -22.126  0.00  0.00    -0.000 C 
ATOM     22  C   UNL     1      31.689 -12.705 -20.787  0.00  0.00    -0.000 C 
ENDBRANCH   2  13
BRANCH  10  26
ATOM     23  N   UNL     1      36.480  -4.842 -26.553  0.00  0.00    -0.147 NA
ATOM     24  N   UNL     1      37.175  -4.655 -27.707  0.00  0.00    -0.133 NA
ATOM     25  N   UNL     1      37.563  -5.181 -30.000  0.00  0.00    -0.341 N 
ATOM     26  C   UNL     1      35.475  -5.743 -26.529  0.00  0.00    +0.103 C 
ATOM     27  C   UNL     1      35.112  -6.493 -27.629  0.00  0.00    +0.024 C 
ATOM     28  C   UNL     1      35.819  -6.303 -28.804  0.00  0.00    +0.037 C 
ATOM     29  C   UNL     1      36.841  -5.375 -28.799  0.00  0.00    +0.147 C 
ATOM     30  H   UNL     1      38.299  -4.527 -30.032  0.00  0.00    +0.144 HD
ATOM     31  H   UNL     1      37.330  -5.699 -30.804  0.00  0.00    +0.144 HD
ENDBRANCH  10  26
TORSDOF 2
ENDMDL
MODEL 4
REMARK VINA RESULT:     -10.2      9.643     14.969
REMARK  Name = 58212050
REMARK  2 active torsions:
REMARK  status: ('A' for Active; 'I' for Inactive)
REMARK    1  A    between atoms: C_2  and  C_13
REMARK    2  A    between atoms: C_10  and  C_26
REMARK                            x       y       z     vdW  Elec       q    Type
REMARK                         _______ _______ _______ _____ _____    ______ ____
ROOT
ATOM      1  N   UNL     1      36.728 -23.794 -14.295  0.00  0.00    +0.389 N 
ATOM      2  C   UNL     1      34.555 -24.391 -15.319  0.00  0.00    +0.023 C 
ATOM      3  C   UNL     1      35.318 -24.084 -14.008  0.00  0.00    -0.068 C 
ATOM      4  C   UNL     1      34.883 -23.411 -16.438  0.00  0.00    -0.026 C 
ATOM      5  C   UNL     1      35.991 -22.550 -16.317  0.00  0.00    -0.047 C 
ATOM      6  C   UNL     1      36.828 -22.540 -15.058  0.00  0.00    -0.050 C 
ATOM      7  C   UNL     1      34.149 -23.407 -17.636  0.00  0.00    -0.004 C 
ATOM      8  C   UNL     1      36.298 -21.658 -17.355  0.00  0.00    -0.005 C 
ATOM      9  C   UNL     1      37.499 -23.696 -13.055  0.00  0.00    -0.100 C 
ATOM     10  C   UNL     1      35.540 -21.646 -18.525  0.00  0.00    +0.019 C 
ATOM     11  C   UNL     1      34.471 -22.525 -18.668  0.00  0.00    +0.001 C 
ATOM     12  H   UNL     1      37.116 -24.557 -14.849  0.00  0.00    -0.079 HD
ENDROOT
BRANCH   2  13
ATOM     13  C   UNL     1      33.067 -24.520 -15.015  0.00  0.00    -0.020 C 
ATOM     14  C   UNL     1      32.135 -23.821 -15.782  0.00  0.00    -0.004 C 
ATOM     15  C   UNL     1      32.639 -25.335 -13.971  0.00  0.00    -0.004 C 
ATOM     16  C   UNL     1      30.761 -23.928 -15.514  0.00  0.00    -0.000 C 
ATOM     17  C   UNL     1      30.326 -24.756 -14.453  0.00  0.00    -0.000 C 
ATOM     18  C   UNL     1      31.277 -25.452 -13.691  0.00  0.00    -0.000 C 
ATOM     19  C   UNL     1      29.810 -23.230 -16.277  0.00  0.00    -0.000 C 
ATOM     20  C   UNL     1      28.951 -24.862 -14.184  0.00  0.00    -0.000 C 
ATOM     21  C   UNL     1      28.448 -23.348 -15.996  0.00  0.00    -0.000 C 
ATOM     22  C   UNL     1      28.020 -24.162 -14.952  0.00  0.00    -0.000 C 
ENDBRANCH   2  13
BRANCH  10  26
ATOM     23  N   UNL     1      37.044 -20.075 -19.453  0.00  0.00    -0.147 NA
ATOM     24  N   UNL     1      37.430 -19.191 -20.413  0.00  0.00    -0.133 NA
ATOM     25  N   UNL     1      37.029 -18.072 -22.479  0.00  0.00    -0.341 N 
ATOM     26  C   UNL     1      35.870 -20.727 -19.592  0.00  0.00    +0.103 C 
ATOM     27  C   UNL     1      35.032 -20.541 -20.673  0.00  0.00    +0.024 C 
ATOM     28  C   UNL     1      35.424 -19.643 -21.649  0.00  0.00    +0.037 C 
ATOM     29  C   UNL     1      36.628 -18.990 -21.481  0.00  0.00    +0.147 C 
ATOM     30  H   UNL     1      37.883 -17.589 -22.390  0.00  0.00    +0.144 HD
ATOM     31  H   UNL     1      36.454 -17.915 -23.263  0.00  0.00    +0.144 HD
ENDBRANCH  10  26
TORSDOF 2
ENDMDL
MODEL 5
REMARK VINA RESULT:     -10.0      5.869      8.971
REMARK  Name = 58212050
REMARK  2 active torsions:
REMARK  status: ('A' for Active; 'I' for Inactive)
REMARK    1  A    between atoms: C_2  and  C_13
REMARK    2  A    between atoms: C_10  and  C_26
REMARK                            x       y       z     vdW  Elec       q    Type
REMARK                         _______ _______ _______ _____ _____    ______ ____
ROOT
ATOM      1  N   UNL     1      31.613  -3.450 -23.850  0.00  0.00    +0.389 N 
ATOM      2  C   UNL     1      32.565  -5.521 -22.884  0.00  0.00    +0.023 C 
ATOM      3  C   UNL     1      31.276  -4.737 -23.231  0.00  0.00    -0.068 C 
ATOM      4  C   UNL     1      33.591  -5.501 -24.010  0.00  0.00    -0.026 C 
ATOM      5  C   UNL     1      33.444  -4.596 -25.079  0.00  0.00    -0.047 C 
ATOM      6  C   UNL     1      32.244  -3.682 -25.159  0.00  0.00    -0.050 C 
ATOM      7  C   UNL     1      34.736  -6.314 -23.962  0.00  0.00    -0.004 C 
ATOM      8  C   UNL     1      34.398  -4.572 -26.107  0.00  0.00    -0.005 C 
ATOM      9  C   UNL     1      30.418  -2.620 -24.001  0.00  0.00    -0.100 C 
ATOM     10  C   UNL     1      35.513  -5.406 -26.059  0.00  0.00    +0.019 C 
ATOM     11  C   UNL     1      35.685  -6.272 -24.983  0.00  0.00    +0.001 C 
ATOM     12  H   UNL     1      32.268  -2.954 -23.245  0.00  0.00    -0.079 HD
ENDROOT
BRANCH   2  13
ATOM     13  C   UNL     1      32.189  -6.918 -22.403  0.00  0.00    -0.020 C 
ATOM     14  C   UNL     1      32.424  -7.286 -21.079  0.00  0.00    -0.004 C 
ATOM     15  C   UNL     1      31.612  -7.825 -23.287  0.00  0.00    -0.004 C 
ATOM     16  C   UNL     1      32.084  -8.569 -20.620  0.00  0.00    -0.000 C 
ATOM     17  C   UNL     1      31.498  -9.492 -21.519  0.00  0.00    -0.000 C 
ATOM     18  C   UNL     1      31.268  -9.104 -22.849  0.00  0.00    -0.000 C 
ATOM     19  C   UNL     1      32.315  -8.956 -19.290  0.00  0.00    -0.000 C 
ATOM     20  C   UNL     1      31.158 -10.775 -21.061  0.00  0.00    -0.000 C 
ATOM     21  C   UNL     1      31.971 -10.236 -18.852  0.00  0.00    -0.000 C 
ATOM     22  C   UNL     1      31.394 -11.144 -19.735  0.00  0.00    -0.000 C 
ENDBRANCH   2  13
BRANCH  10  26
ATOM     23  N   UNL     1      37.438  -4.409 -27.004  0.00  0.00    -0.147 NA
ATOM     24  N   UNL     1      38.398  -4.304 -27.961  0.00  0.00    -0.133 NA
ATOM     25  N   UNL     1      39.382  -5.052 -30.000  0.00  0.00    -0.341 N 
ATOM     26  C   UNL     1      36.494  -5.368 -27.121  0.00  0.00    +0.103 C 
ATOM     27  C   UNL     1      36.454  -6.257 -28.176  0.00  0.00    +0.024 C 
ATOM     28  C   UNL     1      37.431  -6.150 -29.150  0.00  0.00    +0.037 C 
ATOM     29  C   UNL     1      38.383  -5.161 -29.004  0.00  0.00    +0.147 C 
ATOM     30  H   UNL     1      40.076  -4.357 -29.927  0.00  0.00    +0.144 HD
ATOM     31  H   UNL     1      39.382  -5.670 -30.767  0.00  0.00    +0.144 HD
ENDBRANCH  10  26
TORSDOF 2
ENDMDL
MODEL 6
REMARK VINA RESULT:      -9.8      3.247      5.877
REMARK  Name = 58212050
REMARK  2 active torsions:
REMARK  status: ('A' for Active; 'I' for Inactive)
REMARK    1  A    between atoms: C_2  and  C_13
REMARK    2  A    between atoms: C_10  and  C_26
REMARK                            x       y       z     vdW  Elec       q    Type
REMARK                         _______ _______ _______ _____ _____    ______ ____
ROOT
ATOM      1  N   UNL     1      30.898  -3.741 -22.451  0.00  0.00    +0.389 N 
ATOM      2  C   UNL     1      31.678  -4.635 -24.624  0.00  0.00    +0.023 C 
ATOM      3  C   UNL     1      31.768  -3.475 -23.603  0.00  0.00    -0.068 C 
ATOM      4  C   UNL     1      31.741  -6.008 -23.966  0.00  0.00    -0.026 C 
ATOM      5  C   UNL     1      31.580  -6.128 -22.572  0.00  0.00    -0.047 C 
ATOM      6  C   UNL     1      31.408  -4.902 -21.705  0.00  0.00    -0.050 C 
ATOM      7  C   UNL     1      31.870  -7.175 -24.737  0.00  0.00    -0.004 C 
ATOM      8  C   UNL     1      31.625  -7.395 -21.972  0.00  0.00    -0.005 C 
ATOM      9  C   UNL     1      30.823  -2.569 -21.578  0.00  0.00    -0.100 C 
ATOM     10  C   UNL     1      31.784  -8.541 -22.749  0.00  0.00    +0.019 C 
ATOM     11  C   UNL     1      31.900  -8.431 -24.132  0.00  0.00    +0.001 C 
ATOM     12  H   UNL     1      29.957  -3.945 -22.788  0.00  0.00    -0.079 HD
ENDROOT
BRANCH   2  13
ATOM     13  C   UNL     1      32.713  -4.418 -25.722  0.00  0.00    -0.020 C 
ATOM     14  C   UNL     1      34.043  -4.779 -25.507  0.00  0.00    -0.004 C 
ATOM     15  C   UNL     1      32.331  -3.859 -26.937  0.00  0.00    -0.004 C 
ATOM     16  C   UNL     1      35.009  -4.585 -26.507  0.00  0.00    -0.000 C 
ATOM     17  C   UNL     1      34.620  -4.016 -27.743  0.00  0.00    -0.000 C 
ATOM     18  C   UNL     1      33.277  -3.658 -27.942  0.00  0.00    -0.000 C 
ATOM     19  C   UNL     1      36.353  -4.943 -26.307  0.00  0.00    -0.000 C 
ATOM     20  C   UNL     1      35.586  -3.821 -28.744  0.00  0.00    -0.000 C 
ATOM     21  C   UNL     1      37.299  -4.742 -27.313  0.00  0.00    -0.000 C 
ATOM     22  C   UNL     1      36.917  -4.182 -28.528  0.00  0.00    -0.000 C 
ENDBRANCH   2  13
BRANCH  10  26
ATOM     23  N   UNL     1      32.253 -10.854 -22.906  0.00  0.00    -0.147 NA
ATOM     24  N   UNL     1      32.318 -12.111 -22.391  0.00  0.00    -0.133 NA
ATOM     25  N   UNL     1      32.020 -13.624 -20.572  0.00  0.00    -0.341 N 
ATOM     26  C   UNL     1      31.822  -9.843 -22.120  0.00  0.00    +0.103 C 
ATOM     27  C   UNL     1      31.441 -10.024 -20.806  0.00  0.00    +0.024 C 
ATOM     28  C   UNL     1      31.508 -11.303 -20.282  0.00  0.00    +0.037 C 
ATOM     29  C   UNL     1      31.951 -12.316 -21.108  0.00  0.00    +0.147 C 
ATOM     30  H   UNL     1      32.332 -14.370 -21.134  0.00  0.00    +0.144 HD
ATOM     31  H   UNL     1      31.754 -13.788 -19.639  0.00  0.00    +0.144 HD
ENDBRANCH  10  26
TORSDOF 2
ENDMDL
MODEL 7
REMARK VINA RESULT:      -9.7      9.507     15.546
REMARK  Name = 58212050
REMARK  2 active torsions:
REMARK  status: ('A' for Active; 'I' for Inactive)
REMARK    1  A    between atoms: C_2  and  C_13
REMARK    2  A    between atoms: C_10  and  C_26
REMARK                            x       y       z     vdW  Elec       q    Type
REMARK                         _______ _______ _______ _____ _____    ______ ____
ROOT
ATOM      1  N   UNL     1      32.238 -23.715 -15.375  0.00  0.00    +0.389 N 
ATOM      2  C   UNL     1      34.704 -23.740 -15.159  0.00  0.00    +0.023 C 
ATOM      3  C   UNL     1      33.390 -24.538 -14.986  0.00  0.00    -0.068 C 
ATOM      4  C   UNL     1      34.766 -22.979 -16.478  0.00  0.00    -0.026 C 
ATOM      5  C   UNL     1      33.599 -22.817 -17.250  0.00  0.00    -0.047 C 
ATOM      6  C   UNL     1      32.292 -23.442 -16.820  0.00  0.00    -0.050 C 
ATOM      7  C   UNL     1      35.952 -22.358 -16.901  0.00  0.00    -0.004 C 
ATOM      8  C   UNL     1      33.657 -22.104 -18.457  0.00  0.00    -0.005 C 
ATOM      9  C   UNL     1      30.984 -24.385 -15.031  0.00  0.00    -0.100 C 
ATOM     10  C   UNL     1      34.850 -21.519 -18.878  0.00  0.00    +0.019 C 
ATOM     11  C   UNL     1      35.995 -21.641 -18.097  0.00  0.00    +0.001 C 
ATOM     12  H   UNL     1      32.276 -22.833 -14.864  0.00  0.00    -0.079 HD
ENDROOT
BRANCH   2  13
ATOM     13  C   UNL     1      35.890 -24.667 -14.914  0.00  0.00    -0.020 C 
ATOM     14  C   UNL     1      37.169 -24.134 -14.754  0.00  0.00    -0.004 C 
ATOM     15  C   UNL     1      35.695 -26.043 -14.851  0.00  0.00    -0.004 C 
ATOM     16  C   UNL     1      38.271 -24.974 -14.529  0.00  0.00    -0.000 C 
ATOM     17  C   UNL     1      38.073 -26.374 -14.465  0.00  0.00    -0.000 C 
ATOM     18  C   UNL     1      36.779 -26.892 -14.629  0.00  0.00    -0.000 C 
ATOM     19  C   UNL     1      39.566 -24.455 -14.366  0.00  0.00    -0.000 C 
ATOM     20  C   UNL     1      39.176 -27.214 -14.241  0.00  0.00    -0.000 C 
ATOM     21  C   UNL     1      40.651 -25.305 -14.143  0.00  0.00    -0.000 C 
ATOM     22  C   UNL     1      40.456 -26.681 -14.081  0.00  0.00    -0.000 C 
ENDBRANCH   2  13
BRANCH  10  26
ATOM     23  N   UNL     1      33.707 -20.606 -20.735  0.00  0.00    -0.147 NA
ATOM     24  N   UNL     1      33.662 -19.921 -21.910  0.00  0.00    -0.133 NA
ATOM     25  N   UNL     1      34.762 -18.724 -23.654  0.00  0.00    -0.341 N 
ATOM     26  C   UNL     1      34.896 -20.781 -20.121  0.00  0.00    +0.103 C 
ATOM     27  C   UNL     1      36.083 -20.296 -20.632  0.00  0.00    +0.024 C 
ATOM     28  C   UNL     1      36.038 -19.600 -21.827  0.00  0.00    +0.037 C 
ATOM     29  C   UNL     1      34.808 -19.435 -22.432  0.00  0.00    +0.147 C 
ATOM     30  H   UNL     1      33.901 -18.589 -24.112  0.00  0.00    +0.144 HD
ATOM     31  H   UNL     1      35.590 -18.365 -24.046  0.00  0.00    +0.144 HD
ENDBRANCH  10  26
TORSDOF 2
ENDMDL
MODEL 8
REMARK VINA RESULT:      -9.7      3.034      5.204
REMARK  Name = 58212050
REMARK  2 active torsions:
REMARK  status: ('A' for Active; 'I' for Inactive)
REMARK    1  A    between atoms: C_2  and  C_13
REMARK    2  A    between atoms: C_10  and  C_26
REMARK                            x       y       z     vdW  Elec       q    Type
REMARK                         _______ _______ _______ _____ _____    ______ ____
ROOT
ATOM      1  N   UNL     1      33.891 -14.131 -25.315  0.00  0.00    +0.389 N 
ATOM      2  C   UNL     1      33.973 -13.123 -23.055  0.00  0.00    +0.023 C 
ATOM      3  C   UNL     1      33.248 -13.160 -24.422  0.00  0.00    -0.068 C 
ATOM      4  C   UNL     1      34.288 -14.513 -22.514  0.00  0.00    -0.026 C 
ATOM      5  C   UNL     1      34.184 -15.635 -23.358  0.00  0.00    -0.047 C 
ATOM      6  C   UNL     1      33.704 -15.490 -24.784  0.00  0.00    -0.050 C 
ATOM      7  C   UNL     1      34.765 -14.690 -21.205  0.00  0.00    -0.004 C 
ATOM      8  C   UNL     1      34.488 -16.912 -22.861  0.00  0.00    -0.005 C 
ATOM      9  C   UNL     1      33.342 -14.033 -26.667  0.00  0.00    -0.100 C 
ATOM     10  C   UNL     1      34.932 -17.073 -21.550  0.00  0.00    +0.019 C 
ATOM     11  C   UNL     1      35.077 -15.962 -20.725  0.00  0.00    +0.001 C 
ATOM     12  H   UNL     1      34.889 -13.924 -25.363  0.00  0.00    -0.079 HD
ENDROOT
BRANCH   2  13
ATOM     13  C   UNL     1      33.187 -12.240 -22.093  0.00  0.00    -0.020 C 
ATOM     14  C   UNL     1      33.255 -10.852 -22.208  0.00  0.00    -0.004 C 
ATOM     15  C   UNL     1      32.402 -12.819 -21.101  0.00  0.00    -0.004 C 
ATOM     16  C   UNL     1      32.538 -10.024 -21.330  0.00  0.00    -0.000 C 
ATOM     17  C   UNL     1      31.740 -10.613 -20.320  0.00  0.00    -0.000 C 
ATOM     18  C   UNL     1      31.683 -12.012 -20.219  0.00  0.00    -0.000 C 
ATOM     19  C   UNL     1      32.595  -8.624 -21.431  0.00  0.00    -0.000 C 
ATOM     20  C   UNL     1      31.023  -9.785 -19.441  0.00  0.00    -0.000 C 
ATOM     21  C   UNL     1      31.876  -7.817 -20.549  0.00  0.00    -0.000 C 
ATOM     22  C   UNL     1      31.091  -8.396 -19.556  0.00  0.00    -0.000 C 
ENDBRANCH   2  13
BRANCH  10  26
ATOM     23  N   UNL     1      36.497 -18.543 -20.559  0.00  0.00    -0.147 NA
ATOM     24  N   UNL     1      36.876 -19.753 -20.068  0.00  0.00    -0.133 NA
ATOM     25  N   UNL     1      36.387 -22.034 -19.574  0.00  0.00    -0.341 N 
ATOM     26  C   UNL     1      35.248 -18.393 -21.049  0.00  0.00    +0.103 C 
ATOM     27  C   UNL     1      34.325 -19.419 -21.079  0.00  0.00    +0.024 C 
ATOM     28  C   UNL     1      34.711 -20.651 -20.580  0.00  0.00    +0.037 C 
ATOM     29  C   UNL     1      35.993 -20.775 -20.084  0.00  0.00    +0.147 C 
ATOM     30  H   UNL     1      37.295 -22.157 -19.213  0.00  0.00    +0.144 HD
ATOM     31  H   UNL     1      35.754 -22.788 -19.581  0.00  0.00    +0.144 HD
ENDBRANCH  10  26
TORSDOF 2
ENDMDL
MODEL 9
REMARK VINA RESULT:      -9.3      4.566      7.030
REMARK  Name = 58212050
REMARK  2 active torsions:
REMARK  status: ('A' for Active; 'I' for Inactive)
REMARK    1  A    between atoms: C_2  and  C_13
REMARK    2  A    between atoms: C_10  and  C_26
REMARK                            x       y       z     vdW  Elec       q    Type
REMARK                         _______ _______ _______ _____ _____    ______ ____
ROOT
ATOM      1  N   UNL     1      31.701  -3.229 -24.644  0.00  0.00    +0.389 N 
ATOM      2  C   UNL     1      32.901  -5.009 -25.878  0.00  0.00    +0.023 C 
ATOM      3  C   UNL     1      32.830  -3.500 -25.541  0.00  0.00    -0.068 C 
ATOM      4  C   UNL     1      32.713  -5.897 -24.654  0.00  0.00    -0.026 C 
ATOM      5  C   UNL     1      32.226  -5.347 -23.453  0.00  0.00    -0.047 C 
ATOM      6  C   UNL     1      31.942  -3.867 -23.340  0.00  0.00    -0.050 C 
ATOM      7  C   UNL     1      32.937  -7.283 -24.724  0.00  0.00    -0.004 C 
ATOM      8  C   UNL     1      32.042  -6.171 -22.333  0.00  0.00    -0.005 C 
ATOM      9  C   UNL     1      31.506  -1.789 -24.477  0.00  0.00    -0.100 C 
ATOM     10  C   UNL     1      32.298  -7.539 -22.411  0.00  0.00    +0.019 C 
ATOM     11  C   UNL     1      32.739  -8.095 -23.608  0.00  0.00    +0.001 C 
ATOM     12  H   UNL     1      30.852  -3.618 -25.056  0.00  0.00    -0.079 HD
ENDROOT
BRANCH   2  13
ATOM     13  C   UNL     1      34.175  -5.288 -26.666  0.00  0.00    -0.020 C 
ATOM     14  C   UNL     1      35.357  -4.624 -26.338  0.00  0.00    -0.004 C 
ATOM     15  C   UNL     1      34.157  -6.204 -27.714  0.00  0.00    -0.004 C 
ATOM     16  C   UNL     1      36.539  -4.869 -27.055  0.00  0.00    -0.000 C 
ATOM     17  C   UNL     1      36.521  -5.801 -28.121  0.00  0.00    -0.000 C 
ATOM     18  C   UNL     1      35.323  -6.460 -28.437  0.00  0.00    -0.000 C 
ATOM     19  C   UNL     1      37.738  -4.210 -26.739  0.00  0.00    -0.000 C 
ATOM     20  C   UNL     1      37.703  -6.046 -28.839  0.00  0.00    -0.000 C 
ATOM     21  C   UNL     1      38.903  -4.465 -27.462  0.00  0.00    -0.000 C 
ATOM     22  C   UNL     1      38.886  -5.381 -28.510  0.00  0.00    -0.000 C 
ENDBRANCH   2  13
BRANCH  10  26
ATOM     23  N   UNL     1      32.262  -7.770 -20.058  0.00  0.00    -0.147 NA
ATOM     24  N   UNL     1      32.093  -8.490 -18.916  0.00  0.00    -0.133 NA
ATOM     25  N   UNL     1      31.588 -10.547 -17.819  0.00  0.00    -0.341 N 
ATOM     26  C   UNL     1      32.098  -8.380 -21.251  0.00  0.00    +0.103 C 
ATOM     27  C   UNL     1      31.763  -9.714 -21.373  0.00  0.00    +0.024 C 
ATOM     28  C   UNL     1      31.590 -10.446 -20.212  0.00  0.00    +0.037 C 
ATOM     29  C   UNL     1      31.764  -9.797 -19.006  0.00  0.00    +0.147 C 
ATOM     30  H   UNL     1      31.705 -10.114 -16.943  0.00  0.00    +0.144 HD
ATOM     31  H   UNL     1      31.349 -11.500 -17.871  0.00  0.00    +0.144 HD
ENDBRANCH  10  26
TORSDOF 2
ENDMDL
