MODEL 1
REMARK VINA RESULT:     -11.5      0.000      0.000
REMARK  Name = 10453870
REMARK  8 active torsions:
REMARK  status: ('A' for Active; 'I' for Inactive)
REMARK    1  A    between atoms: C_2  and  C_12
REMARK    2  A    between atoms: C_5  and  C_23
REMARK    3  A    between atoms: C_9  and  O_14
REMARK    4  A    between atoms: C_10  and  O_16
REMARK    5  A    between atoms: C_11  and  O_18
REMARK    6  A    between atoms: C_13  and  C_20
REMARK    7  A    between atoms: C_20  and  O_21
REMARK    8  A    between atoms: C_23  and  C_25
REMARK                            x       y       z     vdW  Elec       q    Type
REMARK                         _______ _______ _______ _____ _____    ______ ____
ROOT
ATOM      1  F   UNL     1      30.886 -22.836 -16.979  0.00  0.00    -0.204 F 
ATOM      2  C   UNL     1      34.130 -23.679 -14.569  0.00  0.00    +0.007 C 
ATOM      3  C   UNL     1      34.241 -23.812 -15.952  0.00  0.00    -0.004 C 
ATOM      4  C   UNL     1      32.927 -23.262 -14.001  0.00  0.00    +0.000 C 
ATOM      5  C   UNL     1      33.147 -23.528 -16.769  0.00  0.00    +0.010 C 
ATOM      6  C   UNL     1      31.833 -22.977 -14.818  0.00  0.00    +0.029 C 
ATOM      7  C   UNL     1      31.943 -23.111 -16.203  0.00  0.00    +0.136 C 
ENDROOT
BRANCH   2  12
ATOM      8  O   UNL     1      36.146 -24.927 -14.373  0.00  0.00    -0.347 OA
ATOM      9  C   UNL     1      34.886 -24.544 -12.315  0.00  0.00    +0.171 C 
ATOM     10  C   UNL     1      36.100 -24.997 -11.499  0.00  0.00    +0.169 C 
ATOM     11  C   UNL     1      37.027 -25.885 -12.328  0.00  0.00    +0.169 C 
ATOM     12  C   UNL     1      35.318 -23.987 -13.681  0.00  0.00    +0.167 C 
ATOM     13  C   UNL     1      37.353 -25.226 -13.670  0.00  0.00    +0.174 C 
BRANCH   9  14
ATOM     14  O   UNL     1      34.203 -23.515 -11.598  0.00  0.00    -0.379 OA
ATOM     15  H   UNL     1      33.858 -23.875 -10.767  0.00  0.00    +0.211 HD
ENDBRANCH   9  14
BRANCH  10  16
ATOM     16  O   UNL     1      35.657 -25.754 -10.371  0.00  0.00    -0.379 OA
ATOM     17  H   UNL     1      35.391 -25.151  -9.660  0.00  0.00    +0.211 HD
ENDBRANCH  10  16
BRANCH  11  18
ATOM     18  O   UNL     1      38.236 -26.106 -11.607  0.00  0.00    -0.379 OA
ATOM     19  H   UNL     1      38.041 -26.584 -10.786  0.00  0.00    +0.211 HD
ENDBRANCH  11  18
BRANCH  13  20
ATOM     20  C   UNL     1      38.188 -26.140 -14.561  0.00  0.00    +0.169 C 
BRANCH  20  21
ATOM     21  O   UNL     1      37.943 -27.483 -14.184  0.00  0.00    -0.379 OA
ATOM     22  H   UNL     1      38.210 -27.614 -13.262  0.00  0.00    +0.211 HD
ENDBRANCH  20  21
ENDBRANCH  13  20
ENDBRANCH   2  12
BRANCH   5  23
ATOM     23  C   UNL     1      33.269 -23.672 -18.249  0.00  0.00    +0.061 C 
BRANCH  23  25
ATOM     24  S   UNL     1      33.134 -21.401 -19.800  0.00  0.00    -0.091 S 
ATOM     25  C   UNL     1      34.016 -22.530 -18.908  0.00  0.00    +0.012 C 
ATOM     26  C   UNL     1      35.346 -22.294 -18.871  0.00  0.00    +0.003 C 
ATOM     27  C   UNL     1      35.697 -21.117 -19.612  0.00  0.00    +0.006 C 
ATOM     28  C   UNL     1      34.567 -20.520 -20.180  0.00  0.00    +0.029 C 
ATOM     29  C   UNL     1      36.957 -20.509 -19.834  0.00  0.00    +0.001 C 
ATOM     30  C   UNL     1      34.664 -19.349 -20.956  0.00  0.00    +0.006 C 
ATOM     31  C   UNL     1      37.056 -19.347 -20.603  0.00  0.00    +0.000 C 
ATOM     32  C   UNL     1      35.920 -18.774 -21.158  0.00  0.00    +0.001 C 
ENDBRANCH  23  25
ENDBRANCH   5  23
TORSDOF 8
ENDMDL
MODEL 2
REMARK VINA RESULT:     -10.7      1.002      2.261
REMARK  Name = 10453870
REMARK  8 active torsions:
REMARK  status: ('A' for Active; 'I' for Inactive)
REMARK    1  A    between atoms: C_2  and  C_12
REMARK    2  A    between atoms: C_5  and  C_23
REMARK    3  A    between atoms: C_9  and  O_14
REMARK    4  A    between atoms: C_10  and  O_16
REMARK    5  A    between atoms: C_11  and  O_18
REMARK    6  A    between atoms: C_13  and  C_20
REMARK    7  A    between atoms: C_20  and  O_21
REMARK    8  A    between atoms: C_23  and  C_25
REMARK                            x       y       z     vdW  Elec       q    Type
REMARK                         _______ _______ _______ _____ _____    ______ ____
ROOT
ATOM      1  F   UNL     1      31.316 -22.398 -17.007  0.00  0.00    -0.204 F 
ATOM      2  C   UNL     1      34.184 -24.203 -14.650  0.00  0.00    +0.007 C 
ATOM      3  C   UNL     1      34.276 -24.287 -16.039  0.00  0.00    -0.004 C 
ATOM      4  C   UNL     1      33.128 -23.513 -14.059  0.00  0.00    +0.000 C 
ATOM      5  C   UNL     1      33.308 -23.678 -16.838  0.00  0.00    +0.010 C 
ATOM      6  C   UNL     1      32.161 -22.903 -14.858  0.00  0.00    +0.029 C 
ATOM      7  C   UNL     1      32.251 -22.986 -16.248  0.00  0.00    +0.136 C 
ENDROOT
BRANCH   2  12
ATOM      8  O   UNL     1      34.999 -24.462 -12.429  0.00  0.00    -0.347 OA
ATOM      9  C   UNL     1      36.660 -24.493 -14.220  0.00  0.00    +0.171 C 
ATOM     10  C   UNL     1      37.697 -25.041 -13.235  0.00  0.00    +0.169 C 
ATOM     11  C   UNL     1      37.324 -24.705 -11.791  0.00  0.00    +0.169 C 
ATOM     12  C   UNL     1      35.235 -24.865 -13.782  0.00  0.00    +0.167 C 
ATOM     13  C   UNL     1      35.875 -25.099 -11.499  0.00  0.00    +0.174 C 
BRANCH   9  14
ATOM     14  O   UNL     1      36.903 -25.057 -15.509  0.00  0.00    -0.379 OA
ATOM     15  H   UNL     1      36.341 -25.837 -15.633  0.00  0.00    +0.211 HD
ENDBRANCH   9  14
BRANCH  10  16
ATOM     16  O   UNL     1      38.970 -24.453 -13.510  0.00  0.00    -0.379 OA
ATOM     17  H   UNL     1      39.051 -24.287 -14.462  0.00  0.00    +0.211 HD
ENDBRANCH  10  16
BRANCH  11  18
ATOM     18  O   UNL     1      38.191 -25.408 -10.905  0.00  0.00    -0.379 OA
ATOM     19  H   UNL     1      38.085 -26.363 -11.039  0.00  0.00    +0.211 HD
ENDBRANCH  11  18
BRANCH  13  20
ATOM     20  C   UNL     1      35.445 -24.674 -10.099  0.00  0.00    +0.169 C 
BRANCH  20  21
ATOM     21  O   UNL     1      36.494 -23.924  -9.513  0.00  0.00    -0.379 OA
ATOM     22  H   UNL     1      37.254 -24.503  -9.350  0.00  0.00    +0.211 HD
ENDBRANCH  20  21
ENDBRANCH  13  20
ENDBRANCH   2  12
BRANCH   5  23
ATOM     23  C   UNL     1      33.408 -23.769 -18.324  0.00  0.00    +0.061 C 
BRANCH  23  25
ATOM     24  S   UNL     1      33.193 -21.453 -19.797  0.00  0.00    -0.091 S 
ATOM     25  C   UNL     1      34.116 -22.588 -18.955  0.00  0.00    +0.012 C 
ATOM     26  C   UNL     1      35.441 -22.319 -18.929  0.00  0.00    +0.003 C 
ATOM     27  C   UNL     1      35.751 -21.110 -19.636  0.00  0.00    +0.006 C 
ATOM     28  C   UNL     1      34.598 -20.524 -20.169  0.00  0.00    +0.029 C 
ATOM     29  C   UNL     1      36.992 -20.464 -19.856  0.00  0.00    +0.001 C 
ATOM     30  C   UNL     1      34.654 -19.326 -20.907  0.00  0.00    +0.006 C 
ATOM     31  C   UNL     1      37.050 -19.275 -20.588  0.00  0.00    +0.000 C 
ATOM     32  C   UNL     1      35.892 -18.714 -21.107  0.00  0.00    +0.001 C 
ENDBRANCH  23  25
ENDBRANCH   5  23
TORSDOF 8
ENDMDL
MODEL 3
REMARK VINA RESULT:     -10.3      2.723      4.742
REMARK  Name = 10453870
REMARK  8 active torsions:
REMARK  status: ('A' for Active; 'I' for Inactive)
REMARK    1  A    between atoms: C_2  and  C_12
REMARK    2  A    between atoms: C_5  and  C_23
REMARK    3  A    between atoms: C_9  and  O_14
REMARK    4  A    between atoms: C_10  and  O_16
REMARK    5  A    between atoms: C_11  and  O_18
REMARK    6  A    between atoms: C_13  and  C_20
REMARK    7  A    between atoms: C_20  and  O_21
REMARK    8  A    between atoms: C_23  and  C_25
REMARK                            x       y       z     vdW  Elec       q    Type
REMARK                         _______ _______ _______ _____ _____    ______ ____
ROOT
ATOM      1  F   UNL     1      33.331 -19.982 -21.318  0.00  0.00    -0.204 F 
ATOM      2  C   UNL     1      34.495 -22.358 -18.148  0.00  0.00    +0.007 C 
ATOM      3  C   UNL     1      35.460 -21.714 -18.922  0.00  0.00    -0.004 C 
ATOM      4  C   UNL     1      33.142 -22.200 -18.443  0.00  0.00    +0.000 C 
ATOM      5  C   UNL     1      35.070 -20.910 -19.994  0.00  0.00    +0.010 C 
ATOM      6  C   UNL     1      32.752 -21.396 -19.514  0.00  0.00    +0.029 C 
ATOM      7  C   UNL     1      33.716 -20.752 -20.290  0.00  0.00    +0.136 C 
ENDROOT
BRANCH   2  12
ATOM      8  O   UNL     1      33.808 -23.326 -16.086  0.00  0.00    -0.347 OA
ATOM      9  C   UNL     1      36.154 -22.670 -16.265  0.00  0.00    +0.171 C 
ATOM     10  C   UNL     1      36.466 -23.476 -15.001  0.00  0.00    +0.169 C 
ATOM     11  C   UNL     1      35.216 -23.672 -14.144  0.00  0.00    +0.169 C 
ATOM     12  C   UNL     1      34.918 -23.230 -16.984  0.00  0.00    +0.167 C 
ATOM     13  C   UNL     1      34.057 -24.205 -14.988  0.00  0.00    +0.174 C 
BRANCH   9  14
ATOM     14  O   UNL     1      37.272 -22.746 -17.151  0.00  0.00    -0.379 OA
ATOM     15  H   UNL     1      37.956 -23.310 -16.760  0.00  0.00    +0.211 HD
ENDBRANCH   9  14
BRANCH  10  16
ATOM     16  O   UNL     1      37.433 -22.775 -14.217  0.00  0.00    -0.379 OA
ATOM     17  H   UNL     1      38.292 -22.796 -14.667  0.00  0.00    +0.211 HD
ENDBRANCH  10  16
BRANCH  11  18
ATOM     18  O   UNL     1      35.502 -24.598 -13.099  0.00  0.00    -0.379 OA
ATOM     19  H   UNL     1      36.453 -24.586 -12.907  0.00  0.00    +0.211 HD
ENDBRANCH  11  18
BRANCH  13  20
ATOM     20  C   UNL     1      32.768 -24.305 -14.180  0.00  0.00    +0.169 C 
BRANCH  20  21
ATOM     21  O   UNL     1      32.818 -25.484 -13.395  0.00  0.00    -0.379 OA
ATOM     22  H   UNL     1      33.743 -25.736 -13.249  0.00  0.00    +0.211 HD
ENDBRANCH  20  21
ENDBRANCH  13  20
ENDBRANCH   2  12
BRANCH   5  23
ATOM     23  C   UNL     1      36.103 -20.223 -20.821  0.00  0.00    +0.061 C 
BRANCH  23  25
ATOM     24  S   UNL     1      35.430 -18.683 -23.001  0.00  0.00    -0.091 S 
ATOM     25  C   UNL     1      35.660 -18.870 -21.340  0.00  0.00    +0.012 C 
ATOM     26  C   UNL     1      35.419 -17.755 -20.615  0.00  0.00    +0.003 C 
ATOM     27  C   UNL     1      35.015 -16.659 -21.447  0.00  0.00    +0.006 C 
ATOM     28  C   UNL     1      34.978 -17.032 -22.795  0.00  0.00    +0.029 C 
ATOM     29  C   UNL     1      34.669 -15.327 -21.112  0.00  0.00    +0.001 C 
ATOM     30  C   UNL     1      34.609 -16.119 -23.802  0.00  0.00    +0.006 C 
ATOM     31  C   UNL     1      34.303 -14.419 -22.110  0.00  0.00    +0.000 C 
ATOM     32  C   UNL     1      34.274 -14.813 -23.440  0.00  0.00    +0.001 C 
ENDBRANCH  23  25
ENDBRANCH   5  23
TORSDOF 8
ENDMDL
MODEL 4
REMARK VINA RESULT:     -10.1     12.981     17.047
REMARK  Name = 10453870
REMARK  8 active torsions:
REMARK  status: ('A' for Active; 'I' for Inactive)
REMARK    1  A    between atoms: C_2  and  C_12
REMARK    2  A    between atoms: C_5  and  C_23
REMARK    3  A    between atoms: C_9  and  O_14
REMARK    4  A    between atoms: C_10  and  O_16
REMARK    5  A    between atoms: C_11  and  O_18
REMARK    6  A    between atoms: C_13  and  C_20
REMARK    7  A    between atoms: C_20  and  O_21
REMARK    8  A    between atoms: C_23  and  C_25
REMARK                            x       y       z     vdW  Elec       q    Type
REMARK                         _______ _______ _______ _____ _____    ______ ____
ROOT
ATOM      1  F   UNL     1      31.149 -10.647 -18.727  0.00  0.00    -0.204 F 
ATOM      2  C   UNL     1      32.654  -7.717 -21.216  0.00  0.00    +0.007 C 
ATOM      3  C   UNL     1      32.095  -8.871 -21.763  0.00  0.00    -0.004 C 
ATOM      4  C   UNL     1      32.705  -7.552 -19.833  0.00  0.00    +0.000 C 
ATOM      5  C   UNL     1      31.585  -9.863 -20.925  0.00  0.00    +0.010 C 
ATOM      6  C   UNL     1      32.195  -8.544 -18.995  0.00  0.00    +0.029 C 
ATOM      7  C   UNL     1      31.636  -9.700 -19.541  0.00  0.00    +0.136 C 
ENDROOT
BRANCH   2  12
ATOM      8  O   UNL     1      32.103  -6.029 -22.800  0.00  0.00    -0.347 OA
ATOM      9  C   UNL     1      34.218  -7.204 -23.136  0.00  0.00    +0.171 C 
ATOM     10  C   UNL     1      34.642  -6.133 -24.146  0.00  0.00    +0.169 C 
ATOM     11  C   UNL     1      33.429  -5.412 -24.733  0.00  0.00    +0.169 C 
ATOM     12  C   UNL     1      33.208  -6.640 -22.126  0.00  0.00    +0.167 C 
ATOM     13  C   UNL     1      32.494  -4.929 -23.622  0.00  0.00    +0.174 C 
BRANCH   9  14
ATOM     14  O   UNL     1      35.372  -7.654 -22.426  0.00  0.00    -0.379 OA
ATOM     15  H   UNL     1      35.556  -7.049 -21.691  0.00  0.00    +0.211 HD
ENDBRANCH   9  14
BRANCH  10  16
ATOM     16  O   UNL     1      35.352  -6.748 -25.222  0.00  0.00    -0.379 OA
ATOM     17  H   UNL     1      36.279  -6.876 -24.966  0.00  0.00    +0.211 HD
ENDBRANCH  10  16
BRANCH  11  18
ATOM     18  O   UNL     1      33.870  -4.292 -25.496  0.00  0.00    -0.379 OA
ATOM     19  H   UNL     1      34.815  -4.142 -25.334  0.00  0.00    +0.211 HD
ENDBRANCH  11  18
BRANCH  13  20
ATOM     20  C   UNL     1      31.223  -4.303 -24.186  0.00  0.00    +0.169 C 
BRANCH  20  21
ATOM     21  O   UNL     1      30.672  -3.440 -23.206  0.00  0.00    -0.379 OA
ATOM     22  H   UNL     1      29.718  -3.597 -23.137  0.00  0.00    +0.211 HD
ENDBRANCH  20  21
ENDBRANCH  13  20
ENDBRANCH   2  12
BRANCH   5  23
ATOM     23  C   UNL     1      30.988 -11.097 -21.513  0.00  0.00    +0.061 C 
BRANCH  23  25
ATOM     24  S   UNL     1      32.670 -12.666 -23.025  0.00  0.00    -0.091 S 
ATOM     25  C   UNL     1      31.945 -12.271 -21.553  0.00  0.00    +0.012 C 
ATOM     26  C   UNL     1      32.303 -13.070 -20.524  0.00  0.00    +0.003 C 
ATOM     27  C   UNL     1      33.232 -14.082 -20.937  0.00  0.00    +0.006 C 
ATOM     28  C   UNL     1      33.525 -13.976 -22.300  0.00  0.00    +0.029 C 
ATOM     29  C   UNL     1      33.859 -15.114 -20.196  0.00  0.00    +0.001 C 
ATOM     30  C   UNL     1      34.415 -14.864 -22.934  0.00  0.00    +0.006 C 
ATOM     31  C   UNL     1      34.743 -15.997 -20.823  0.00  0.00    +0.000 C 
ATOM     32  C   UNL     1      35.017 -15.872 -22.178  0.00  0.00    +0.001 C 
ENDBRANCH  23  25
ENDBRANCH   5  23
TORSDOF 8
ENDMDL
MODEL 5
REMARK VINA RESULT:     -10.1     13.157     17.130
REMARK  Name = 10453870
REMARK  8 active torsions:
REMARK  status: ('A' for Active; 'I' for Inactive)
REMARK    1  A    between atoms: C_2  and  C_12
REMARK    2  A    between atoms: C_5  and  C_23
REMARK    3  A    between atoms: C_9  and  O_14
REMARK    4  A    between atoms: C_10  and  O_16
REMARK    5  A    between atoms: C_11  and  O_18
REMARK    6  A    between atoms: C_13  and  C_20
REMARK    7  A    between atoms: C_20  and  O_21
REMARK    8  A    between atoms: C_23  and  C_25
REMARK                            x       y       z     vdW  Elec       q    Type
REMARK                         _______ _______ _______ _____ _____    ______ ____
ROOT
ATOM      1  F   UNL     1      32.047 -10.299 -18.460  0.00  0.00    -0.204 F 
ATOM      2  C   UNL     1      32.075  -7.888 -21.812  0.00  0.00    +0.007 C 
ATOM      3  C   UNL     1      31.487  -9.151 -21.872  0.00  0.00    -0.004 C 
ATOM      4  C   UNL     1      32.652  -7.441 -20.625  0.00  0.00    +0.000 C 
ATOM      5  C   UNL     1      31.475  -9.968 -20.741  0.00  0.00    +0.010 C 
ATOM      6  C   UNL     1      32.640  -8.258 -19.494  0.00  0.00    +0.029 C 
ATOM      7  C   UNL     1      32.052  -9.522 -19.552  0.00  0.00    +0.136 C 
ENDROOT
BRANCH   2  12
ATOM      8  O   UNL     1      33.330  -7.214 -23.718  0.00  0.00    -0.347 OA
ATOM      9  C   UNL     1      31.911  -5.518 -22.679  0.00  0.00    +0.171 C 
ATOM     10  C   UNL     1      32.087  -4.629 -23.913  0.00  0.00    +0.169 C 
ATOM     11  C   UNL     1      33.357  -4.991 -24.683  0.00  0.00    +0.169 C 
ATOM     12  C   UNL     1      32.088  -7.001 -23.040  0.00  0.00    +0.167 C 
ATOM     13  C   UNL     1      33.420  -6.496 -24.949  0.00  0.00    +0.174 C 
BRANCH   9  14
ATOM     14  O   UNL     1      30.596  -5.329 -22.156  0.00  0.00    -0.379 OA
ATOM     15  H   UNL     1      30.346  -6.100 -21.623  0.00  0.00    +0.211 HD
ENDBRANCH   9  14
BRANCH  10  16
ATOM     16  O   UNL     1      32.194  -3.264 -23.504  0.00  0.00    -0.379 OA
ATOM     17  H   UNL     1      31.480  -3.056 -22.882  0.00  0.00    +0.211 HD
ENDBRANCH  10  16
BRANCH  11  18
ATOM     18  O   UNL     1      33.370  -4.293 -25.925  0.00  0.00    -0.379 OA
ATOM     19  H   UNL     1      33.544  -3.351 -25.766  0.00  0.00    +0.211 HD
ENDBRANCH  11  18
BRANCH  13  20
ATOM     20  C   UNL     1      34.729  -6.897 -25.620  0.00  0.00    +0.169 C 
BRANCH  20  21
ATOM     21  O   UNL     1      34.581  -6.755 -27.021  0.00  0.00    -0.379 OA
ATOM     22  H   UNL     1      33.693  -6.420 -27.220  0.00  0.00    +0.211 HD
ENDBRANCH  20  21
ENDBRANCH  13  20
ENDBRANCH   2  12
BRANCH   5  23
ATOM     23  C   UNL     1      30.846 -11.319 -20.807  0.00  0.00    +0.061 C 
BRANCH  23  25
ATOM     24  S   UNL     1      32.319 -12.707 -22.672  0.00  0.00    -0.091 S 
ATOM     25  C   UNL     1      31.835 -12.434 -21.079  0.00  0.00    +0.012 C 
ATOM     26  C   UNL     1      32.398 -13.266 -20.175  0.00  0.00    +0.003 C 
ATOM     27  C   UNL     1      33.290 -14.201 -20.798  0.00  0.00    +0.006 C 
ATOM     28  C   UNL     1      33.344 -14.005 -22.182  0.00  0.00    +0.029 C 
ATOM     29  C   UNL     1      34.079 -15.235 -20.238  0.00  0.00    +0.001 C 
ATOM     30  C   UNL     1      34.155 -14.807 -23.009  0.00  0.00    +0.006 C 
ATOM     31  C   UNL     1      34.885 -16.032 -21.056  0.00  0.00    +0.000 C 
ATOM     32  C   UNL     1      34.921 -15.818 -22.427  0.00  0.00    +0.001 C 
ENDBRANCH  23  25
ENDBRANCH   5  23
TORSDOF 8
ENDMDL
MODEL 6
REMARK VINA RESULT:      -9.8      6.170      9.763
REMARK  Name = 10453870
REMARK  8 active torsions:
REMARK  status: ('A' for Active; 'I' for Inactive)
REMARK    1  A    between atoms: C_2  and  C_12
REMARK    2  A    between atoms: C_5  and  C_23
REMARK    3  A    between atoms: C_9  and  O_14
REMARK    4  A    between atoms: C_10  and  O_16
REMARK    5  A    between atoms: C_11  and  O_18
REMARK    6  A    between atoms: C_13  and  C_20
REMARK    7  A    between atoms: C_20  and  O_21
REMARK    8  A    between atoms: C_23  and  C_25
REMARK                            x       y       z     vdW  Elec       q    Type
REMARK                         _______ _______ _______ _____ _____    ______ ____
ROOT
ATOM      1  F   UNL     1      33.443 -15.666 -25.636  0.00  0.00    -0.204 F 
ATOM      2  C   UNL     1      34.724 -18.577 -23.004  0.00  0.00    +0.007 C 
ATOM      3  C   UNL     1      35.167 -17.264 -22.854  0.00  0.00    -0.004 C 
ATOM      4  C   UNL     1      33.851 -18.907 -24.040  0.00  0.00    +0.000 C 
ATOM      5  C   UNL     1      34.736 -16.277 -23.741  0.00  0.00    +0.010 C 
ATOM      6  C   UNL     1      33.420 -17.920 -24.927  0.00  0.00    +0.029 C 
ATOM      7  C   UNL     1      33.863 -16.605 -24.778  0.00  0.00    +0.136 C 
ENDROOT
BRANCH   2  12
ATOM      8  O   UNL     1      34.074 -20.023 -21.230  0.00  0.00    -0.347 OA
ATOM      9  C   UNL     1      36.361 -19.165 -21.168  0.00  0.00    +0.171 C 
ATOM     10  C   UNL     1      36.710 -20.202 -20.097  0.00  0.00    +0.169 C 
ATOM     11  C   UNL     1      35.462 -20.676 -19.353  0.00  0.00    +0.169 C 
ATOM     12  C   UNL     1      35.192 -19.648 -22.040  0.00  0.00    +0.167 C 
ATOM     13  C   UNL     1      34.371 -21.099 -20.339  0.00  0.00    +0.174 C 
BRANCH   9  14
ATOM     14  O   UNL     1      37.500 -18.960 -22.003  0.00  0.00    -0.379 OA
ATOM     15  H   UNL     1      37.232 -19.004 -22.934  0.00  0.00    +0.211 HD
ENDBRANCH   9  14
BRANCH  10  16
ATOM     16  O   UNL     1      37.598 -19.618 -19.141  0.00  0.00    -0.379 OA
ATOM     17  H   UNL     1      38.455 -20.069 -19.178  0.00  0.00    +0.211 HD
ENDBRANCH  10  16
BRANCH  11  18
ATOM     18  O   UNL     1      35.801 -21.784 -18.523  0.00  0.00    -0.379 OA
ATOM     19  H   UNL     1      36.766 -21.867 -18.472  0.00  0.00    +0.211 HD
ENDBRANCH  11  18
BRANCH  13  20
ATOM     20  C   UNL     1      33.077 -21.472 -19.623  0.00  0.00    +0.169 C 
BRANCH  20  21
ATOM     21  O   UNL     1      33.158 -22.828 -19.222  0.00  0.00    -0.379 OA
ATOM     22  H   UNL     1      33.596 -23.345 -19.916  0.00  0.00    +0.211 HD
ENDBRANCH  20  21
ENDBRANCH  13  20
ENDBRANCH   2  12
BRANCH   5  23
ATOM     23  C   UNL     1      35.211 -14.873 -23.579  0.00  0.00    +0.061 C 
BRANCH  23  25
ATOM     24  S   UNL     1      33.677 -12.598 -23.803  0.00  0.00    -0.091 S 
ATOM     25  C   UNL     1      34.185 -13.957 -22.942  0.00  0.00    +0.012 C 
ATOM     26  C   UNL     1      33.606 -14.097 -21.729  0.00  0.00    +0.003 C 
ATOM     27  C   UNL     1      32.679 -13.036 -21.458  0.00  0.00    +0.006 C 
ATOM     28  C   UNL     1      32.618 -12.133 -22.524  0.00  0.00    +0.029 C 
ATOM     29  C   UNL     1      31.863 -12.791 -20.326  0.00  0.00    +0.001 C 
ATOM     30  C   UNL     1      31.774 -11.005 -22.487  0.00  0.00    +0.006 C 
ATOM     31  C   UNL     1      31.026 -11.673 -20.287  0.00  0.00    +0.000 C 
ATOM     32  C   UNL     1      30.983 -10.791 -21.357  0.00  0.00    +0.001 C 
ENDBRANCH  23  25
ENDBRANCH   5  23
TORSDOF 8
ENDMDL
MODEL 7
REMARK VINA RESULT:      -9.3     10.346     13.844
REMARK  Name = 10453870
REMARK  8 active torsions:
REMARK  status: ('A' for Active; 'I' for Inactive)
REMARK    1  A    between atoms: C_2  and  C_12
REMARK    2  A    between atoms: C_5  and  C_23
REMARK    3  A    between atoms: C_9  and  O_14
REMARK    4  A    between atoms: C_10  and  O_16
REMARK    5  A    between atoms: C_11  and  O_18
REMARK    6  A    between atoms: C_13  and  C_20
REMARK    7  A    between atoms: C_20  and  O_21
REMARK    8  A    between atoms: C_23  and  C_25
REMARK                            x       y       z     vdW  Elec       q    Type
REMARK                         _______ _______ _______ _____ _____    ______ ____
ROOT
ATOM      1  F   UNL     1      30.402 -10.227 -19.667  0.00  0.00    -0.204 F 
ATOM      2  C   UNL     1      32.980 -12.923 -21.436  0.00  0.00    +0.007 C 
ATOM      3  C   UNL     1      32.375 -11.933 -22.210  0.00  0.00    -0.004 C 
ATOM      4  C   UNL     1      32.716 -13.002 -20.070  0.00  0.00    +0.000 C 
ATOM      5  C   UNL     1      31.503 -11.020 -21.614  0.00  0.00    +0.010 C 
ATOM      6  C   UNL     1      31.845 -12.090 -19.475  0.00  0.00    +0.029 C 
ATOM      7  C   UNL     1      31.238 -11.099 -20.248  0.00  0.00    +0.136 C 
ENDROOT
BRANCH   2  12
ATOM      8  O   UNL     1      33.322 -14.365 -23.298  0.00  0.00    -0.347 OA
ATOM      9  C   UNL     1      34.237 -15.099 -21.156  0.00  0.00    +0.171 C 
ATOM     10  C   UNL     1      35.063 -16.163 -21.885  0.00  0.00    +0.169 C 
ATOM     11  C   UNL     1      34.452 -16.508 -23.243  0.00  0.00    +0.169 C 
ATOM     12  C   UNL     1      33.927 -13.914 -22.082  0.00  0.00    +0.167 C 
ATOM     13  C   UNL     1      34.167 -15.238 -24.047  0.00  0.00    +0.174 C 
BRANCH   9  14
ATOM     14  O   UNL     1      34.983 -14.621 -20.036  0.00  0.00    -0.379 OA
ATOM     15  H   UNL     1      34.501 -14.818 -19.218  0.00  0.00    +0.211 HD
ENDBRANCH   9  14
BRANCH  10  16
ATOM     16  O   UNL     1      35.098 -17.357 -21.101  0.00  0.00    -0.379 OA
ATOM     17  H   UNL     1      34.401 -17.323 -20.428  0.00  0.00    +0.211 HD
ENDBRANCH  10  16
BRANCH  11  18
ATOM     18  O   UNL     1      35.357 -17.333 -23.971  0.00  0.00    -0.379 OA
ATOM     19  H   UNL     1      36.264 -17.018 -23.833  0.00  0.00    +0.211 HD
ENDBRANCH  11  18
BRANCH  13  20
ATOM     20  C   UNL     1      33.456 -15.550 -25.360  0.00  0.00    +0.169 C 
BRANCH  20  21
ATOM     21  O   UNL     1      33.049 -16.907 -25.343  0.00  0.00    -0.379 OA
ATOM     22  H   UNL     1      32.175 -16.987 -25.756  0.00  0.00    +0.211 HD
ENDBRANCH  20  21
ENDBRANCH  13  20
ENDBRANCH   2  12
BRANCH   5  23
ATOM     23  C   UNL     1      30.856  -9.963 -22.444  0.00  0.00    +0.061 C 
BRANCH  23  25
ATOM     24  S   UNL     1      31.298  -7.931 -24.248  0.00  0.00    -0.091 S 
ATOM     25  C   UNL     1      31.840  -8.974 -23.037  0.00  0.00    +0.012 C 
ATOM     26  C   UNL     1      33.141  -8.817 -22.707  0.00  0.00    +0.003 C 
ATOM     27  C   UNL     1      33.763  -7.780 -23.480  0.00  0.00    +0.006 C 
ATOM     28  C   UNL     1      32.856  -7.203 -24.375  0.00  0.00    +0.029 C 
ATOM     29  C   UNL     1      35.091  -7.289 -23.463  0.00  0.00    +0.001 C 
ATOM     30  C   UNL     1      33.240  -6.161 -25.242  0.00  0.00    +0.006 C 
ATOM     31  C   UNL     1      35.474  -6.256 -24.323  0.00  0.00    +0.000 C 
ATOM     32  C   UNL     1      34.556  -5.699 -25.202  0.00  0.00    +0.001 C 
ENDBRANCH  23  25
ENDBRANCH   5  23
TORSDOF 8
ENDMDL
MODEL 8
REMARK VINA RESULT:      -9.2     13.670     17.836
REMARK  Name = 10453870
REMARK  8 active torsions:
REMARK  status: ('A' for Active; 'I' for Inactive)
REMARK    1  A    between atoms: C_2  and  C_12
REMARK    2  A    between atoms: C_5  and  C_23
REMARK    3  A    between atoms: C_9  and  O_14
REMARK    4  A    between atoms: C_10  and  O_16
REMARK    5  A    between atoms: C_11  and  O_18
REMARK    6  A    between atoms: C_13  and  C_20
REMARK    7  A    between atoms: C_20  and  O_21
REMARK    8  A    between atoms: C_23  and  C_25
REMARK                            x       y       z     vdW  Elec       q    Type
REMARK                         _______ _______ _______ _____ _____    ______ ____
ROOT
ATOM      1  F   UNL     1      32.325  -9.578 -19.316  0.00  0.00    -0.204 F 
ATOM      2  C   UNL     1      32.370  -7.450 -22.853  0.00  0.00    +0.007 C 
ATOM      3  C   UNL     1      31.715  -8.679 -22.793  0.00  0.00    -0.004 C 
ATOM      4  C   UNL     1      33.008  -6.941 -21.724  0.00  0.00    +0.000 C 
ATOM      5  C   UNL     1      31.697  -9.400 -21.599  0.00  0.00    +0.010 C 
ATOM      6  C   UNL     1      32.991  -7.662 -20.530  0.00  0.00    +0.029 C 
ATOM      7  C   UNL     1      32.336  -8.893 -20.468  0.00  0.00    +0.136 C 
ENDROOT
BRANCH   2  12
ATOM      8  O   UNL     1      33.646  -6.911 -24.789  0.00  0.00    -0.347 OA
ATOM      9  C   UNL     1      32.180  -5.162 -23.915  0.00  0.00    +0.171 C 
ATOM     10  C   UNL     1      32.363  -4.373 -25.215  0.00  0.00    +0.169 C 
ATOM     11  C   UNL     1      33.652  -4.774 -25.932  0.00  0.00    +0.169 C 
ATOM     12  C   UNL     1      32.389  -6.666 -24.150  0.00  0.00    +0.167 C 
ATOM     13  C   UNL     1      33.745  -6.294 -26.073  0.00  0.00    +0.174 C 
BRANCH   9  14
ATOM     14  O   UNL     1      30.854  -4.955 -23.430  0.00  0.00    -0.379 OA
ATOM     15  H   UNL     1      30.271  -5.649 -23.774  0.00  0.00    +0.211 HD
ENDBRANCH   9  14
BRANCH  10  16
ATOM     16  O   UNL     1      32.439  -2.978 -24.918  0.00  0.00    -0.379 OA
ATOM     17  H   UNL     1      33.367  -2.698 -24.915  0.00  0.00    +0.211 HD
ENDBRANCH  10  16
BRANCH  11  18
ATOM     18  O   UNL     1      33.675  -4.179 -27.227  0.00  0.00    -0.379 OA
ATOM     19  H   UNL     1      34.277  -3.419 -27.224  0.00  0.00    +0.211 HD
ENDBRANCH  11  18
BRANCH  13  20
ATOM     20  C   UNL     1      35.073  -6.725 -26.687  0.00  0.00    +0.169 C 
BRANCH  20  21
ATOM     21  O   UNL     1      34.978  -6.606 -28.095  0.00  0.00    -0.379 OA
ATOM     22  H   UNL     1      34.900  -7.489 -28.489  0.00  0.00    +0.211 HD
ENDBRANCH  20  21
ENDBRANCH  13  20
ENDBRANCH   2  12
BRANCH   5  23
ATOM     23  C   UNL     1      30.996 -10.715 -21.536  0.00  0.00    +0.061 C 
BRANCH  23  25
ATOM     24  S   UNL     1      32.299 -12.810 -20.316  0.00  0.00    -0.091 S 
ATOM     25  C   UNL     1      31.924 -11.903 -21.689  0.00  0.00    +0.012 C 
ATOM     26  C   UNL     1      32.510 -12.343 -22.824  0.00  0.00    +0.003 C 
ATOM     27  C   UNL     1      33.326 -13.499 -22.587  0.00  0.00    +0.006 C 
ATOM     28  C   UNL     1      33.301 -13.869 -21.238  0.00  0.00    +0.029 C 
ATOM     29  C   UNL     1      34.107 -14.274 -23.479  0.00  0.00    +0.001 C 
ATOM     30  C   UNL     1      34.029 -14.978 -20.765  0.00  0.00    +0.006 C 
ATOM     31  C   UNL     1      34.831 -15.374 -23.011  0.00  0.00    +0.000 C 
ATOM     32  C   UNL     1      34.791 -15.721 -21.668  0.00  0.00    +0.001 C 
ENDBRANCH  23  25
ENDBRANCH   5  23
TORSDOF 8
ENDMDL
MODEL 9
REMARK VINA RESULT:      -9.2      2.141      3.385
REMARK  Name = 10453870
REMARK  8 active torsions:
REMARK  status: ('A' for Active; 'I' for Inactive)
REMARK    1  A    between atoms: C_2  and  C_12
REMARK    2  A    between atoms: C_5  and  C_23
REMARK    3  A    between atoms: C_9  and  O_14
REMARK    4  A    between atoms: C_10  and  O_16
REMARK    5  A    between atoms: C_11  and  O_18
REMARK    6  A    between atoms: C_13  and  C_20
REMARK    7  A    between atoms: C_20  and  O_21
REMARK    8  A    between atoms: C_23  and  C_25
REMARK                            x       y       z     vdW  Elec       q    Type
REMARK                         _______ _______ _______ _____ _____    ______ ____
ROOT
ATOM      1  F   UNL     1      33.674 -21.238 -20.716  0.00  0.00    -0.204 F 
ATOM      2  C   UNL     1      34.765 -22.651 -16.994  0.00  0.00    +0.007 C 
ATOM      3  C   UNL     1      35.736 -22.136 -17.851  0.00  0.00    -0.004 C 
ATOM      4  C   UNL     1      33.430 -22.689 -17.391  0.00  0.00    +0.000 C 
ATOM      5  C   UNL     1      35.370 -21.657 -19.109  0.00  0.00    +0.010 C 
ATOM      6  C   UNL     1      33.064 -22.211 -18.650  0.00  0.00    +0.029 C 
ATOM      7  C   UNL     1      34.035 -21.695 -19.509  0.00  0.00    +0.136 C 
ENDROOT
BRANCH   2  12
ATOM      8  O   UNL     1      36.166 -24.173 -15.817  0.00  0.00    -0.347 OA
ATOM      9  C   UNL     1      33.960 -23.742 -14.858  0.00  0.00    +0.171 C 
ATOM     10  C   UNL     1      34.410 -24.405 -13.553  0.00  0.00    +0.169 C 
ATOM     11  C   UNL     1      35.579 -25.361 -13.787  0.00  0.00    +0.169 C 
ATOM     12  C   UNL     1      35.162 -23.171 -15.627  0.00  0.00    +0.167 C 
ATOM     13  C   UNL     1      36.688 -24.675 -14.586  0.00  0.00    +0.174 C 
BRANCH   9  14
ATOM     14  O   UNL     1      33.064 -22.674 -14.551  0.00  0.00    -0.379 OA
ATOM     15  H   UNL     1      32.296 -23.023 -14.074  0.00  0.00    +0.211 HD
ENDBRANCH   9  14
BRANCH  10  16
ATOM     16  O   UNL     1      33.326 -25.159 -13.005  0.00  0.00    -0.379 OA
ATOM     17  H   UNL     1      33.630 -25.639 -12.220  0.00  0.00    +0.211 HD
ENDBRANCH  10  16
BRANCH  11  18
ATOM     18  O   UNL     1      36.098 -25.787 -12.531  0.00  0.00    -0.379 OA
ATOM     19  H   UNL     1      36.979 -25.403 -12.398  0.00  0.00    +0.211 HD
ENDBRANCH  11  18
BRANCH  13  20
ATOM     20  C   UNL     1      37.818 -25.640 -14.928  0.00  0.00    +0.169 C 
BRANCH  20  21
ATOM     21  O   UNL     1      37.251 -26.851 -15.396  0.00  0.00    -0.379 OA
ATOM     22  H   UNL     1      36.284 -26.795 -15.347  0.00  0.00    +0.211 HD
ENDBRANCH  20  21
ENDBRANCH  13  20
ENDBRANCH   2  12
BRANCH   5  23
ATOM     23  C   UNL     1      36.411 -21.106 -20.025  0.00  0.00    +0.061 C 
BRANCH  23  25
ATOM     24  S   UNL     1      35.608 -20.031 -22.429  0.00  0.00    -0.091 S 
ATOM     25  C   UNL     1      35.957 -19.876 -20.785  0.00  0.00    +0.012 C 
ATOM     26  C   UNL     1      35.791 -18.627 -20.296  0.00  0.00    +0.003 C 
ATOM     27  C   UNL     1      35.349 -17.714 -21.310  0.00  0.00    +0.006 C 
ATOM     28  C   UNL     1      35.205 -18.358 -22.543  0.00  0.00    +0.029 C 
ATOM     29  C   UNL     1      35.054 -16.331 -21.239  0.00  0.00    +0.001 C 
ATOM     30  C   UNL     1      34.780 -17.662 -23.692  0.00  0.00    +0.006 C 
ATOM     31  C   UNL     1      34.633 -15.638 -22.377  0.00  0.00    +0.000 C 
ATOM     32  C   UNL     1      34.498 -16.299 -23.590  0.00  0.00    +0.001 C 
ENDBRANCH  23  25
ENDBRANCH   5  23
TORSDOF 8
ENDMDL
