MODEL 1
REMARK VINA RESULT:     -12.0      0.000      0.000
REMARK  Name = 24779724
REMARK  3 active torsions:
REMARK  status: ('A' for Active; 'I' for Inactive)
REMARK    1  A    between atoms: C_5  and  C_12
REMARK    2  A    between atoms: C_7  and  S_16
REMARK    3  A    between atoms: S_16  and  C_19
REMARK                            x       y       z     vdW  Elec       q    Type
REMARK                         _______ _______ _______ _____ _____    ______ ____
ROOT
ATOM      1  N   UNL     1      34.535 -21.985 -18.467  0.00  0.00    -0.186 N 
ATOM      2  N   UNL     1      35.558 -22.343 -17.652  0.00  0.00    -0.162 NA
ATOM      3  N   UNL     1      32.528 -21.783 -19.335  0.00  0.00    -0.126 NA
ATOM      4  N   UNL     1      33.415 -21.068 -20.113  0.00  0.00    -0.120 NA
ATOM      5  C   UNL     1      35.194 -23.095 -16.652  0.00  0.00    +0.104 C 
ATOM      6  C   UNL     1      33.209 -22.329 -18.350  0.00  0.00    +0.187 A 
ATOM      7  C   UNL     1      34.610 -21.201 -19.582  0.00  0.00    +0.217 A 
ATOM      8  C   UNL     1      33.791 -23.563 -16.408  0.00  0.00    +0.024 C 
ATOM      9  C   UNL     1      32.849 -23.158 -17.269  0.00  0.00    +0.042 C 
ENDROOT
BRANCH   5  12
ATOM     10  N   UNL     1      37.276 -24.652 -14.116  0.00  0.00    -0.208 N 
ATOM     11  N   UNL     1      38.161 -23.708 -14.481  0.00  0.00    -0.176 NA
ATOM     12  C   UNL     1      36.224 -23.550 -15.682  0.00  0.00    +0.056 C 
ATOM     13  C   UNL     1      36.100 -24.600 -14.806  0.00  0.00    +0.087 C 
ATOM     14  C   UNL     1      37.513 -23.039 -15.438  0.00  0.00    +0.121 C 
ATOM     15  C   UNL     1      37.621 -25.596 -13.080  0.00  0.00    +0.140 C 
ENDBRANCH   5  12
BRANCH   7  16
ATOM     16  S   UNL     1      36.131 -20.484 -20.184  0.00  0.00    -0.051 S 
BRANCH  16  19
ATOM     17  N   UNL     1      34.132 -17.149 -24.686  0.00  0.00    -0.248 NA
ATOM     18  C   UNL     1      35.012 -17.293 -22.448  0.00  0.00    -0.003 C 
ATOM     19  C   UNL     1      35.535 -19.476 -21.526  0.00  0.00    +0.011 C 
ATOM     20  C   UNL     1      34.589 -17.885 -23.656  0.00  0.00    +0.060 C 
ATOM     21  C   UNL     1      35.482 -18.092 -21.392  0.00  0.00    +0.060 C 
ATOM     22  C   UNL     1      35.119 -20.066 -22.713  0.00  0.00    -0.017 C 
ATOM     23  C   UNL     1      34.652 -19.272 -23.762  0.00  0.00    +0.072 C 
ATOM     24  C   UNL     1      34.948 -15.897 -22.340  0.00  0.00    -0.001 C 
ATOM     25  C   UNL     1      34.479 -15.136 -23.401  0.00  0.00    +0.020 C 
ATOM     26  C   UNL     1      34.087 -15.805 -24.542  0.00  0.00    +0.098 C 
ENDBRANCH  16  19
ENDBRANCH   7  16
TORSDOF 3
ENDMDL
MODEL 2
REMARK VINA RESULT:     -11.1      2.751      3.935
REMARK  Name = 24779724
REMARK  3 active torsions:
REMARK  status: ('A' for Active; 'I' for Inactive)
REMARK    1  A    between atoms: C_5  and  C_12
REMARK    2  A    between atoms: C_7  and  S_16
REMARK    3  A    between atoms: S_16  and  C_19
REMARK                            x       y       z     vdW  Elec       q    Type
REMARK                         _______ _______ _______ _____ _____    ______ ____
ROOT
ATOM      1  N   UNL     1      32.852 -23.644 -15.653  0.00  0.00    -0.186 N 
ATOM      2  N   UNL     1      33.931 -24.160 -15.013  0.00  0.00    -0.162 NA
ATOM      3  N   UNL     1      30.886 -22.745 -16.042  0.00  0.00    -0.126 NA
ATOM      4  N   UNL     1      31.520 -22.954 -17.250  0.00  0.00    -0.120 NA
ATOM      5  C   UNL     1      33.814 -24.176 -13.715  0.00  0.00    +0.104 C 
ATOM      6  C   UNL     1      31.694 -23.163 -15.090  0.00  0.00    +0.187 A 
ATOM      7  C   UNL     1      32.691 -23.493 -17.000  0.00  0.00    +0.217 A 
ATOM      8  C   UNL     1      32.605 -23.702 -12.966  0.00  0.00    +0.024 C 
ATOM      9  C   UNL     1      31.589 -23.209 -13.686  0.00  0.00    +0.042 C 
ENDROOT
BRANCH   5  12
ATOM     10  N   UNL     1      36.851 -25.562 -12.284  0.00  0.00    -0.208 N 
ATOM     11  N   UNL     1      36.195 -25.399 -11.122  0.00  0.00    -0.176 NA
ATOM     12  C   UNL     1      34.933 -24.713 -12.899  0.00  0.00    +0.056 C 
ATOM     13  C   UNL     1      36.138 -25.166 -13.379  0.00  0.00    +0.087 C 
ATOM     14  C   UNL     1      35.025 -24.881 -11.504  0.00  0.00    +0.121 C 
ATOM     15  C   UNL     1      38.185 -26.112 -12.284  0.00  0.00    +0.140 C 
ENDBRANCH   5  12
BRANCH   7  16
ATOM     16  S   UNL     1      33.925 -23.971 -18.201  0.00  0.00    -0.051 S 
BRANCH  16  19
ATOM     17  N   UNL     1      34.730 -18.845 -21.110  0.00  0.00    -0.248 NA
ATOM     18  C   UNL     1      35.670 -20.752 -19.975  0.00  0.00    -0.003 C 
ATOM     19  C   UNL     1      34.177 -22.438 -19.071  0.00  0.00    +0.011 C 
ATOM     20  C   UNL     1      34.570 -20.007 -20.450  0.00  0.00    +0.060 C 
ATOM     21  C   UNL     1      35.466 -21.961 -19.289  0.00  0.00    +0.060 C 
ATOM     22  C   UNL     1      33.089 -21.710 -19.536  0.00  0.00    -0.017 C 
ATOM     23  C   UNL     1      33.292 -20.508 -20.217  0.00  0.00    +0.072 C 
ATOM     24  C   UNL     1      36.957 -20.248 -20.209  0.00  0.00    -0.001 C 
ATOM     25  C   UNL     1      37.125 -19.051 -20.889  0.00  0.00    +0.020 C 
ATOM     26  C   UNL     1      35.989 -18.394 -21.315  0.00  0.00    +0.098 C 
ENDBRANCH  16  19
ENDBRANCH   7  16
TORSDOF 3
ENDMDL
MODEL 3
REMARK VINA RESULT:     -11.1      0.978      1.624
REMARK  Name = 24779724
REMARK  3 active torsions:
REMARK  status: ('A' for Active; 'I' for Inactive)
REMARK    1  A    between atoms: C_5  and  C_12
REMARK    2  A    between atoms: C_7  and  S_16
REMARK    3  A    between atoms: S_16  and  C_19
REMARK                            x       y       z     vdW  Elec       q    Type
REMARK                         _______ _______ _______ _____ _____    ______ ____
ROOT
ATOM      1  N   UNL     1      34.464 -22.448 -17.995  0.00  0.00    -0.186 N 
ATOM      2  N   UNL     1      35.434 -22.860 -17.142  0.00  0.00    -0.162 NA
ATOM      3  N   UNL     1      32.497 -22.062 -18.893  0.00  0.00    -0.126 NA
ATOM      4  N   UNL     1      33.468 -21.550 -19.729  0.00  0.00    -0.120 NA
ATOM      5  C   UNL     1      34.979 -23.459 -16.078  0.00  0.00    +0.104 C 
ATOM      6  C   UNL     1      33.105 -22.599 -17.856  0.00  0.00    +0.187 A 
ATOM      7  C   UNL     1      34.637 -21.790 -19.179  0.00  0.00    +0.217 A 
ATOM      8  C   UNL     1      33.527 -23.710 -15.802  0.00  0.00    +0.024 C 
ATOM      9  C   UNL     1      32.642 -23.266 -16.704  0.00  0.00    +0.042 C 
ENDROOT
BRANCH   5  12
ATOM     10  N   UNL     1      36.922 -25.154 -13.521  0.00  0.00    -0.208 N 
ATOM     11  N   UNL     1      37.767 -24.124 -13.697  0.00  0.00    -0.176 NA
ATOM     12  C   UNL     1      35.943 -23.953 -15.062  0.00  0.00    +0.056 C 
ATOM     13  C   UNL     1      35.813 -25.098 -14.315  0.00  0.00    +0.087 C 
ATOM     14  C   UNL     1      37.165 -23.395 -14.639  0.00  0.00    +0.121 C 
ATOM     15  C   UNL     1      37.234 -26.182 -12.558  0.00  0.00    +0.140 C 
ENDBRANCH   5  12
BRANCH   7  16
ATOM     16  S   UNL     1      36.237 -21.344 -19.835  0.00  0.00    -0.051 S 
BRANCH  16  19
ATOM     17  N   UNL     1      34.847 -16.702 -23.286  0.00  0.00    -0.248 NA
ATOM     18  C   UNL     1      34.752 -19.074 -22.868  0.00  0.00    -0.003 C 
ATOM     19  C   UNL     1      35.815 -19.961 -20.875  0.00  0.00    +0.011 C 
ATOM     20  C   UNL     1      35.150 -17.766 -22.519  0.00  0.00    +0.060 C 
ATOM     21  C   UNL     1      35.087 -20.161 -22.045  0.00  0.00    +0.060 C 
ATOM     22  C   UNL     1      36.210 -18.676 -20.525  0.00  0.00    -0.017 C 
ATOM     23  C   UNL     1      35.878 -17.595 -21.344  0.00  0.00    +0.072 C 
ATOM     24  C   UNL     1      34.021 -19.246 -24.051  0.00  0.00    -0.001 C 
ATOM     25  C   UNL     1      33.706 -18.151 -24.843  0.00  0.00    +0.020 C 
ATOM     26  C   UNL     1      34.139 -16.911 -24.419  0.00  0.00    +0.098 C 
ENDBRANCH  16  19
ENDBRANCH   7  16
TORSDOF 3
ENDMDL
MODEL 4
REMARK VINA RESULT:     -11.1      2.717      3.976
REMARK  Name = 24779724
REMARK  3 active torsions:
REMARK  status: ('A' for Active; 'I' for Inactive)
REMARK    1  A    between atoms: C_5  and  C_12
REMARK    2  A    between atoms: C_7  and  S_16
REMARK    3  A    between atoms: S_16  and  C_19
REMARK                            x       y       z     vdW  Elec       q    Type
REMARK                         _______ _______ _______ _____ _____    ______ ____
ROOT
ATOM      1  N   UNL     1      33.915 -24.042 -15.752  0.00  0.00    -0.186 N 
ATOM      2  N   UNL     1      35.075 -24.744 -15.730  0.00  0.00    -0.162 NA
ATOM      3  N   UNL     1      32.154 -22.897 -15.111  0.00  0.00    -0.126 NA
ATOM      4  N   UNL     1      32.118 -23.023 -16.485  0.00  0.00    -0.120 NA
ATOM      5  C   UNL     1      35.569 -24.906 -14.535  0.00  0.00    +0.104 C 
ATOM      6  C   UNL     1      33.236 -23.511 -14.681  0.00  0.00    +0.187 A 
ATOM      7  C   UNL     1      33.176 -23.711 -16.851  0.00  0.00    +0.217 A 
ATOM      8  C   UNL     1      34.930 -24.399 -13.277  0.00  0.00    +0.024 C 
ATOM      9  C   UNL     1      33.785 -23.716 -13.400  0.00  0.00    +0.042 C 
ENDROOT
BRANCH   5  12
ATOM     10  N   UNL     1      38.950 -26.154 -14.089  0.00  0.00    -0.208 N 
ATOM     11  N   UNL     1      38.361 -27.355 -14.227  0.00  0.00    -0.176 NA
ATOM     12  C   UNL     1      36.843 -25.655 -14.379  0.00  0.00    +0.056 C 
ATOM     13  C   UNL     1      38.084 -25.103 -14.173  0.00  0.00    +0.087 C 
ATOM     14  C   UNL     1      37.075 -27.043 -14.403  0.00  0.00    +0.121 C 
ATOM     15  C   UNL     1      40.375 -26.074 -13.875  0.00  0.00    +0.140 C 
ENDBRANCH   5  12
BRANCH   7  16
ATOM     16  S   UNL     1      33.627 -24.169 -18.518  0.00  0.00    -0.051 S 
BRANCH  16  19
ATOM     17  N   UNL     1      34.762 -18.843 -20.912  0.00  0.00    -0.248 NA
ATOM     18  C   UNL     1      35.576 -20.900 -19.958  0.00  0.00    -0.003 C 
ATOM     19  C   UNL     1      33.978 -22.577 -19.234  0.00  0.00    +0.011 C 
ATOM     20  C   UNL     1      34.527 -20.052 -20.369  0.00  0.00    +0.060 C 
ATOM     21  C   UNL     1      35.295 -22.156 -19.394  0.00  0.00    +0.060 C 
ATOM     22  C   UNL     1      32.939 -21.746 -19.636  0.00  0.00    -0.017 C 
ATOM     23  C   UNL     1      33.219 -20.498 -20.196  0.00  0.00    +0.072 C 
ATOM     24  C   UNL     1      36.892 -20.451 -20.132  0.00  0.00    -0.001 C 
ATOM     25  C   UNL     1      37.138 -19.206 -20.692  0.00  0.00    +0.020 C 
ATOM     26  C   UNL     1      36.046 -18.448 -21.062  0.00  0.00    +0.098 C 
ENDBRANCH  16  19
ENDBRANCH   7  16
TORSDOF 3
ENDMDL
MODEL 5
REMARK VINA RESULT:     -10.9      2.297      9.353
REMARK  Name = 24779724
REMARK  3 active torsions:
REMARK  status: ('A' for Active; 'I' for Inactive)
REMARK    1  A    between atoms: C_5  and  C_12
REMARK    2  A    between atoms: C_7  and  S_16
REMARK    3  A    between atoms: S_16  and  C_19
REMARK                            x       y       z     vdW  Elec       q    Type
REMARK                         _______ _______ _______ _____ _____    ______ ____
ROOT
ATOM      1  N   UNL     1      35.325 -20.391 -20.337  0.00  0.00    -0.186 N 
ATOM      2  N   UNL     1      34.631 -19.804 -21.343  0.00  0.00    -0.162 NA
ATOM      3  N   UNL     1      36.947 -20.943 -18.963  0.00  0.00    -0.126 NA
ATOM      4  N   UNL     1      35.815 -21.649 -18.610  0.00  0.00    -0.120 NA
ATOM      5  C   UNL     1      35.332 -18.956 -22.041  0.00  0.00    +0.104 C 
ATOM      6  C   UNL     1      36.643 -20.191 -20.000  0.00  0.00    +0.187 A 
ATOM      7  C   UNL     1      34.857 -21.309 -19.442  0.00  0.00    +0.217 A 
ATOM      8  C   UNL     1      36.780 -18.651 -21.800  0.00  0.00    +0.024 C 
ATOM      9  C   UNL     1      37.381 -19.282 -20.783  0.00  0.00    +0.042 C 
ENDROOT
BRANCH   5  12
ATOM     10  N   UNL     1      33.976 -16.677 -24.522  0.00  0.00    -0.208 N 
ATOM     11  N   UNL     1      33.498 -17.805 -25.075  0.00  0.00    -0.176 NA
ATOM     12  C   UNL     1      34.681 -18.241 -23.169  0.00  0.00    +0.056 C 
ATOM     13  C   UNL     1      34.691 -16.884 -23.379  0.00  0.00    +0.087 C 
ATOM     14  C   UNL     1      33.932 -18.757 -24.245  0.00  0.00    +0.121 C 
ATOM     15  C   UNL     1      33.710 -15.404 -25.148  0.00  0.00    +0.140 C 
ENDBRANCH   5  12
BRANCH   7  16
ATOM     16  S   UNL     1      33.179 -21.921 -19.444  0.00  0.00    -0.051 S 
BRANCH  16  19
ATOM     17  N   UNL     1      32.873 -24.408 -14.049  0.00  0.00    -0.248 NA
ATOM     18  C   UNL     1      31.769 -23.314 -15.890  0.00  0.00    -0.003 C 
ATOM     19  C   UNL     1      33.076 -22.665 -17.829  0.00  0.00    +0.011 C 
ATOM     20  C   UNL     1      32.920 -23.842 -15.269  0.00  0.00    +0.060 C 
ATOM     21  C   UNL     1      31.855 -22.730 -17.165  0.00  0.00    +0.060 C 
ATOM     22  C   UNL     1      34.214 -23.182 -17.224  0.00  0.00    -0.017 C 
ATOM     23  C   UNL     1      34.129 -23.763 -15.956  0.00  0.00    +0.072 C 
ATOM     24  C   UNL     1      30.553 -23.394 -15.199  0.00  0.00    -0.001 C 
ATOM     25  C   UNL     1      30.501 -23.977 -13.941  0.00  0.00    +0.020 C 
ATOM     26  C   UNL     1      31.680 -24.465 -13.416  0.00  0.00    +0.098 C 
ENDBRANCH  16  19
ENDBRANCH   7  16
TORSDOF 3
ENDMDL
MODEL 6
REMARK VINA RESULT:     -10.9      3.527      6.097
REMARK  Name = 24779724
REMARK  3 active torsions:
REMARK  status: ('A' for Active; 'I' for Inactive)
REMARK    1  A    between atoms: C_5  and  C_12
REMARK    2  A    between atoms: C_7  and  S_16
REMARK    3  A    between atoms: S_16  and  C_19
REMARK                            x       y       z     vdW  Elec       q    Type
REMARK                         _______ _______ _______ _____ _____    ______ ____
ROOT
ATOM      1  N   UNL     1      32.789 -23.402 -16.102  0.00  0.00    -0.186 N 
ATOM      2  N   UNL     1      31.489 -23.336 -16.484  0.00  0.00    -0.162 NA
ATOM      3  N   UNL     1      34.603 -23.450 -14.865  0.00  0.00    -0.126 NA
ATOM      4  N   UNL     1      34.972 -23.570 -16.189  0.00  0.00    -0.120 NA
ATOM      5  C   UNL     1      30.655 -23.213 -15.491  0.00  0.00    +0.104 C 
ATOM      6  C   UNL     1      33.291 -23.349 -14.823  0.00  0.00    +0.187 A 
ATOM      7  C   UNL     1      33.878 -23.539 -16.914  0.00  0.00    +0.217 A 
ATOM      8  C   UNL     1      31.059 -23.124 -14.050  0.00  0.00    +0.024 C 
ATOM      9  C   UNL     1      32.366 -23.199 -13.771  0.00  0.00    +0.042 C 
ENDROOT
BRANCH   5  12
ATOM     10  N   UNL     1      27.073 -22.646 -15.673  0.00  0.00    -0.208 N 
ATOM     11  N   UNL     1      27.157 -23.437 -16.757  0.00  0.00    -0.176 NA
ATOM     12  C   UNL     1      29.200 -23.135 -15.779  0.00  0.00    +0.056 C 
ATOM     13  C   UNL     1      28.268 -22.435 -15.051  0.00  0.00    +0.087 C 
ATOM     14  C   UNL     1      28.458 -23.732 -16.817  0.00  0.00    +0.121 C 
ATOM     15  C   UNL     1      25.793 -22.112 -15.273  0.00  0.00    +0.140 C 
ENDBRANCH   5  12
BRANCH   7  16
ATOM     16  S   UNL     1      33.773 -23.655 -18.694  0.00  0.00    -0.051 S 
BRANCH  16  19
ATOM     17  N   UNL     1      37.257 -19.124 -20.341  0.00  0.00    -0.248 NA
ATOM     18  C   UNL     1      35.212 -20.369 -20.614  0.00  0.00    -0.003 C 
ATOM     19  C   UNL     1      34.808 -22.295 -19.194  0.00  0.00    +0.011 C 
ATOM     20  C   UNL     1      36.454 -20.143 -19.983  0.00  0.00    +0.060 C 
ATOM     21  C   UNL     1      34.399 -21.442 -20.215  0.00  0.00    +0.060 C 
ATOM     22  C   UNL     1      36.029 -22.079 -18.569  0.00  0.00    -0.017 C 
ATOM     23  C   UNL     1      36.838 -21.011 -18.965  0.00  0.00    +0.072 C 
ATOM     24  C   UNL     1      34.825 -19.495 -21.639  0.00  0.00    -0.001 C 
ATOM     25  C   UNL     1      35.651 -18.444 -22.010  0.00  0.00    +0.020 C 
ATOM     26  C   UNL     1      36.847 -18.304 -21.335  0.00  0.00    +0.098 C 
ENDBRANCH  16  19
ENDBRANCH   7  16
TORSDOF 3
ENDMDL
MODEL 7
REMARK VINA RESULT:     -10.9      1.119      1.694
REMARK  Name = 24779724
REMARK  3 active torsions:
REMARK  status: ('A' for Active; 'I' for Inactive)
REMARK    1  A    between atoms: C_5  and  C_12
REMARK    2  A    between atoms: C_7  and  S_16
REMARK    3  A    between atoms: S_16  and  C_19
REMARK                            x       y       z     vdW  Elec       q    Type
REMARK                         _______ _______ _______ _____ _____    ______ ____
ROOT
ATOM      1  N   UNL     1      34.584 -21.406 -19.114  0.00  0.00    -0.186 N 
ATOM      2  N   UNL     1      35.604 -21.742 -18.286  0.00  0.00    -0.162 NA
ATOM      3  N   UNL     1      32.587 -21.267 -20.019  0.00  0.00    -0.126 NA
ATOM      4  N   UNL     1      33.459 -20.494 -20.759  0.00  0.00    -0.120 NA
ATOM      5  C   UNL     1      35.254 -22.536 -17.314  0.00  0.00    +0.104 C 
ATOM      6  C   UNL     1      33.272 -21.810 -19.034  0.00  0.00    +0.187 A 
ATOM      7  C   UNL     1      34.647 -20.590 -20.206  0.00  0.00    +0.217 A 
ATOM      8  C   UNL     1      33.867 -23.070 -17.114  0.00  0.00    +0.024 C 
ATOM      9  C   UNL     1      32.926 -22.683 -17.984  0.00  0.00    +0.042 C 
ENDROOT
BRANCH   5  12
ATOM     10  N   UNL     1      37.304 -23.986 -14.691  0.00  0.00    -0.208 N 
ATOM     11  N   UNL     1      38.250 -23.173 -15.192  0.00  0.00    -0.176 NA
ATOM     12  C   UNL     1      36.282 -22.972 -16.335  0.00  0.00    +0.056 C 
ATOM     13  C   UNL     1      36.107 -23.903 -15.340  0.00  0.00    +0.087 C 
ATOM     14  C   UNL     1      37.621 -22.557 -16.196  0.00  0.00    +0.121 C 
ATOM     15  C   UNL     1      37.611 -24.836 -13.566  0.00  0.00    +0.140 C 
ENDBRANCH   5  12
BRANCH   7  16
ATOM     16  S   UNL     1      36.147 -19.792 -20.756  0.00  0.00    -0.051 S 
BRANCH  16  19
ATOM     17  N   UNL     1      34.026 -14.661 -22.892  0.00  0.00    -0.248 NA
ATOM     18  C   UNL     1      34.706 -16.941 -23.276  0.00  0.00    -0.003 C 
ATOM     19  C   UNL     1      35.511 -18.261 -21.406  0.00  0.00    +0.011 C 
ATOM     20  C   UNL     1      34.504 -15.831 -22.429  0.00  0.00    +0.060 C 
ATOM     21  C   UNL     1      35.207 -18.147 -22.759  0.00  0.00    +0.060 C 
ATOM     22  C   UNL     1      35.315 -17.172 -20.566  0.00  0.00    -0.017 C 
ATOM     23  C   UNL     1      34.817 -15.973 -21.079  0.00  0.00    +0.072 C 
ATOM     24  C   UNL     1      34.392 -16.798 -24.634  0.00  0.00    -0.001 C 
ATOM     25  C   UNL     1      33.898 -15.594 -25.115  0.00  0.00    +0.020 C 
ATOM     26  C   UNL     1      33.735 -14.565 -24.209  0.00  0.00    +0.098 C 
ENDBRANCH  16  19
ENDBRANCH   7  16
TORSDOF 3
ENDMDL
MODEL 8
REMARK VINA RESULT:     -10.6      6.248     12.783
REMARK  Name = 24779724
REMARK  3 active torsions:
REMARK  status: ('A' for Active; 'I' for Inactive)
REMARK    1  A    between atoms: C_5  and  C_12
REMARK    2  A    between atoms: C_7  and  S_16
REMARK    3  A    between atoms: S_16  and  C_19
REMARK                            x       y       z     vdW  Elec       q    Type
REMARK                         _______ _______ _______ _____ _____    ______ ____
ROOT
ATOM      1  N   UNL     1      32.638 -10.917 -22.528  0.00  0.00    -0.186 N 
ATOM      2  N   UNL     1      33.361  -9.999 -23.216  0.00  0.00    -0.162 NA
ATOM      3  N   UNL     1      31.220 -11.832 -21.123  0.00  0.00    -0.126 NA
ATOM      4  N   UNL     1      31.836 -12.837 -21.841  0.00  0.00    -0.120 NA
ATOM      5  C   UNL     1      33.110  -8.767 -22.873  0.00  0.00    +0.104 C 
ATOM      6  C   UNL     1      31.707 -10.684 -21.543  0.00  0.00    +0.187 A 
ATOM      7  C   UNL     1      32.681 -12.273 -22.674  0.00  0.00    +0.217 A 
ATOM      8  C   UNL     1      32.136  -8.365 -21.806  0.00  0.00    +0.024 C 
ATOM      9  C   UNL     1      31.468  -9.344 -21.181  0.00  0.00    +0.042 C 
ENDROOT
BRANCH   5  12
ATOM     10  N   UNL     1      34.302  -5.905 -24.764  0.00  0.00    -0.208 N 
ATOM     11  N   UNL     1      35.503  -6.292 -24.300  0.00  0.00    -0.176 NA
ATOM     12  C   UNL     1      33.835  -7.667 -23.559  0.00  0.00    +0.056 C 
ATOM     13  C   UNL     1      33.270  -6.696 -24.350  0.00  0.00    +0.087 C 
ATOM     14  C   UNL     1      35.212  -7.368 -23.564  0.00  0.00    +0.121 C 
ATOM     15  C   UNL     1      34.203  -4.747 -25.620  0.00  0.00    +0.140 C 
ENDBRANCH   5  12
BRANCH   7  16
ATOM     16  S   UNL     1      33.745 -13.106 -23.842  0.00  0.00    -0.051 S 
BRANCH  16  19
ATOM     17  N   UNL     1      35.339 -17.902 -20.704  0.00  0.00    -0.248 NA
ATOM     18  C   UNL     1      34.831 -16.896 -22.834  0.00  0.00    -0.003 C 
ATOM     19  C   UNL     1      34.223 -14.548 -22.912  0.00  0.00    +0.011 C 
ATOM     20  C   UNL     1      34.980 -16.829 -21.433  0.00  0.00    +0.060 C 
ATOM     21  C   UNL     1      34.454 -15.756 -23.563  0.00  0.00    +0.060 C 
ATOM     22  C   UNL     1      34.367 -14.474 -21.533  0.00  0.00    -0.017 C 
ATOM     23  C   UNL     1      34.741 -15.608 -20.807  0.00  0.00    +0.072 C 
ATOM     24  C   UNL     1      35.070 -18.125 -23.463  0.00  0.00    -0.001 C 
ATOM     25  C   UNL     1      35.441 -19.233 -22.715  0.00  0.00    +0.020 C 
ATOM     26  C   UNL     1      35.560 -19.069 -21.350  0.00  0.00    +0.098 C 
ENDBRANCH  16  19
ENDBRANCH   7  16
TORSDOF 3
ENDMDL
MODEL 9
REMARK VINA RESULT:     -10.6      5.882     12.161
REMARK  Name = 24779724
REMARK  3 active torsions:
REMARK  status: ('A' for Active; 'I' for Inactive)
REMARK    1  A    between atoms: C_5  and  C_12
REMARK    2  A    between atoms: C_7  and  S_16
REMARK    3  A    between atoms: S_16  and  C_19
REMARK                            x       y       z     vdW  Elec       q    Type
REMARK                         _______ _______ _______ _____ _____    ______ ____
ROOT
ATOM      1  N   UNL     1      32.438 -11.903 -22.032  0.00  0.00    -0.186 N 
ATOM      2  N   UNL     1      32.464 -10.781 -22.792  0.00  0.00    -0.162 NA
ATOM      3  N   UNL     1      32.036 -13.306 -20.390  0.00  0.00    -0.126 NA
ATOM      4  N   UNL     1      32.764 -13.964 -21.360  0.00  0.00    -0.120 NA
ATOM      5  C   UNL     1      31.839  -9.770 -22.259  0.00  0.00    +0.104 C 
ATOM      6  C   UNL     1      31.845 -12.070 -20.803  0.00  0.00    +0.187 A 
ATOM      7  C   UNL     1      32.998 -13.112 -22.332  0.00  0.00    +0.217 A 
ATOM      8  C   UNL     1      31.163  -9.801 -20.921  0.00  0.00    +0.024 C 
ATOM      9  C   UNL     1      31.191 -10.955 -20.243  0.00  0.00    +0.042 C 
ENDROOT
BRANCH   5  12
ATOM     10  N   UNL     1      31.610  -6.360 -23.487  0.00  0.00    -0.208 N 
ATOM     11  N   UNL     1      31.844  -6.936 -24.679  0.00  0.00    -0.176 NA
ATOM     12  C   UNL     1      31.791  -8.482 -22.998  0.00  0.00    +0.056 C 
ATOM     13  C   UNL     1      31.568  -7.243 -22.448  0.00  0.00    +0.087 C 
ATOM     14  C   UNL     1      31.954  -8.231 -24.374  0.00  0.00    +0.121 C 
ATOM     15  C   UNL     1      31.430  -4.931 -23.404  0.00  0.00    +0.140 C 
ENDBRANCH   5  12
BRANCH   7  16
ATOM     16  S   UNL     1      33.900 -13.434 -23.840  0.00  0.00    -0.051 S 
BRANCH  16  19
ATOM     17  N   UNL     1      34.793 -19.303 -23.463  0.00  0.00    -0.248 NA
ATOM     18  C   UNL     1      34.986 -17.112 -22.479  0.00  0.00    -0.003 C 
ATOM     19  C   UNL     1      34.171 -15.189 -23.716  0.00  0.00    +0.011 C 
ATOM     20  C   UNL     1      34.599 -17.972 -23.527  0.00  0.00    +0.060 C 
ATOM     21  C   UNL     1      34.770 -15.728 -22.581  0.00  0.00    +0.060 C 
ATOM     22  C   UNL     1      33.789 -16.031 -24.753  0.00  0.00    -0.017 C 
ATOM     23  C   UNL     1      34.004 -17.407 -24.652  0.00  0.00    +0.072 C 
ATOM     24  C   UNL     1      35.586 -17.680 -21.347  0.00  0.00    -0.001 C 
ATOM     25  C   UNL     1      35.786 -19.051 -21.277  0.00  0.00    +0.020 C 
ATOM     26  C   UNL     1      35.375 -19.811 -22.353  0.00  0.00    +0.098 C 
ENDBRANCH  16  19
ENDBRANCH   7  16
TORSDOF 3
ENDMDL
