MODEL 1
REMARK VINA RESULT:     -12.5      0.000      0.000
REMARK  Name = 11167602
REMARK  6 active torsions:
REMARK  status: ('A' for Active; 'I' for Inactive)
REMARK    1  A    between atoms: C_2  and  N_10
REMARK    2  A    between atoms: C_3  and  O_25
REMARK    3  A    between atoms: N_9  and  C_15
REMARK    4  A    between atoms: C_16  and  C_24
REMARK    5  A    between atoms: O_25  and  C_27
REMARK    6  A    between atoms: C_29  and  C_34
REMARK                            x       y       z     vdW  Elec       q    Type
REMARK                         _______ _______ _______ _____ _____    ______ ____
ROOT
ATOM      1  F   UNL     1      34.231 -14.199 -20.799  0.00  0.00    -0.203 F 
ATOM      2  C   UNL     1      33.463 -14.393 -23.037  0.00  0.00    +0.079 C 
ATOM      3  C   UNL     1      34.845 -16.781 -23.283  0.00  0.00    +0.148 C 
ATOM      4  C   UNL     1      34.188 -14.870 -21.958  0.00  0.00    +0.157 C 
ATOM      5  C   UNL     1      33.414 -15.085 -24.237  0.00  0.00    +0.020 C 
ATOM      6  C   UNL     1      34.884 -16.072 -22.081  0.00  0.00    +0.068 C 
ATOM      7  C   UNL     1      34.111 -16.287 -24.360  0.00  0.00    +0.039 C 
ENDROOT
BRANCH   2  10
ATOM      8  O   UNL     1      34.315 -11.596 -23.650  0.00  0.00    -0.252 OA
ATOM      9  N   UNL     1      32.179 -10.938 -22.950  0.00  0.00    -0.268 N 
ATOM     10  N   UNL     1      32.754 -13.174 -22.915  0.00  0.00    -0.266 N 
ATOM     11  C   UNL     1      33.203 -11.879 -23.217  0.00  0.00    +0.308 C 
ATOM     12  H   UNL     1      31.335 -11.311 -22.606  0.00  0.00    +0.156 HD
ATOM     13  H   UNL     1      31.833 -13.244 -22.575  0.00  0.00    +0.156 HD
BRANCH   9  15
ATOM     14 CL   UNL     1      32.307  -5.072 -23.672  0.00  0.00    -0.082 Cl
ATOM     15  C   UNL     1      32.206  -9.552 -23.111  0.00  0.00    +0.052 C 
ATOM     16  C   UNL     1      32.020  -7.332 -22.176  0.00  0.00    +0.083 C 
ATOM     17  C   UNL     1      31.991  -8.718 -22.014  0.00  0.00    +0.019 C 
ATOM     18  C   UNL     1      32.449  -9.002 -24.370  0.00  0.00    +0.016 C 
ATOM     19  C   UNL     1      32.263  -6.782 -23.434  0.00  0.00    +0.062 C 
ATOM     20  C   UNL     1      32.477  -7.616 -24.531  0.00  0.00    +0.013 C 
BRANCH  16  24
ATOM     21  F   UNL     1      32.770  -5.550 -20.769  0.00  0.00    -0.166 F 
ATOM     22  F   UNL     1      30.627  -5.758 -21.035  0.00  0.00    -0.166 F 
ATOM     23  F   UNL     1      31.715  -7.199 -19.823  0.00  0.00    -0.166 F 
ATOM     24  C   UNL     1      31.787  -6.473 -20.976  0.00  0.00    +0.419 C 
ENDBRANCH  16  24
ENDBRANCH   9  15
ENDBRANCH   2  10
BRANCH   3  25
ATOM     25  O   UNL     1      35.525 -17.954 -23.404  0.00  0.00    -0.453 OA
BRANCH  25  27
ATOM     26  N   UNL     1      36.128 -20.203 -19.961  0.00  0.00    -0.239 NA
ATOM     27  C   UNL     1      35.725 -18.703 -22.256  0.00  0.00    +0.149 C 
ATOM     28  C   UNL     1      34.677 -19.427 -21.733  0.00  0.00    +0.061 C 
ATOM     29  C   UNL     1      34.928 -20.162 -20.584  0.00  0.00    +0.137 C 
ATOM     30  C   UNL     1      36.970 -18.707 -21.664  0.00  0.00    +0.058 C 
ATOM     31  C   UNL     1      37.119 -19.472 -20.519  0.00  0.00    +0.102 C 
BRANCH  29  34
ATOM     32  O   UNL     1      32.686 -20.788 -20.309  0.00  0.00    -0.268 OA
ATOM     33  N   UNL     1      34.260 -21.903 -19.022  0.00  0.00    -0.298 N 
ATOM     34  C   UNL     1      33.873 -20.952 -19.973  0.00  0.00    +0.264 C 
ATOM     35  C   UNL     1      33.332 -22.780 -18.344  0.00  0.00    +0.111 C 
ATOM     36  H   UNL     1      35.216 -21.979 -18.802  0.00  0.00    +0.150 HD
ENDBRANCH  29  34
ENDBRANCH  25  27
ENDBRANCH   3  25
TORSDOF 6
ENDMDL
MODEL 2
REMARK VINA RESULT:     -12.2      1.804      2.259
REMARK  Name = 11167602
REMARK  6 active torsions:
REMARK  status: ('A' for Active; 'I' for Inactive)
REMARK    1  A    between atoms: C_2  and  N_10
REMARK    2  A    between atoms: C_3  and  O_25
REMARK    3  A    between atoms: N_9  and  C_15
REMARK    4  A    between atoms: C_16  and  C_24
REMARK    5  A    between atoms: O_25  and  C_27
REMARK    6  A    between atoms: C_29  and  C_34
REMARK                            x       y       z     vdW  Elec       q    Type
REMARK                         _______ _______ _______ _____ _____    ______ ____
ROOT
ATOM      1  F   UNL     1      32.778 -14.586 -25.362  0.00  0.00    -0.203 F 
ATOM      2  C   UNL     1      33.487 -14.393 -23.104  0.00  0.00    +0.079 C 
ATOM      3  C   UNL     1      34.816 -16.811 -23.336  0.00  0.00    +0.148 C 
ATOM      4  C   UNL     1      33.447 -15.075 -24.309  0.00  0.00    +0.157 C 
ATOM      5  C   UNL     1      34.179 -14.894 -22.013  0.00  0.00    +0.020 C 
ATOM      6  C   UNL     1      34.116 -16.293 -24.426  0.00  0.00    +0.068 C 
ATOM      7  C   UNL     1      34.847 -16.112 -22.130  0.00  0.00    +0.039 C 
ENDROOT
BRANCH   2  10
ATOM      8  O   UNL     1      34.447 -11.610 -23.613  0.00  0.00    -0.252 OA
ATOM      9  N   UNL     1      32.303 -10.902 -22.988  0.00  0.00    -0.268 N 
ATOM     10  N   UNL     1      32.810 -13.156 -22.982  0.00  0.00    -0.266 N 
ATOM     11  C   UNL     1      33.309 -11.868 -23.234  0.00  0.00    +0.308 C 
ATOM     12  H   UNL     1      31.435 -11.257 -22.689  0.00  0.00    +0.156 HD
ATOM     13  H   UNL     1      31.873 -13.205 -22.683  0.00  0.00    +0.156 HD
BRANCH   9  15
ATOM     14 CL   UNL     1      32.582  -5.022 -23.517  0.00  0.00    -0.082 Cl
ATOM     15  C   UNL     1      32.378  -9.515 -23.115  0.00  0.00    +0.052 C 
ATOM     16  C   UNL     1      33.662  -7.523 -23.583  0.00  0.00    +0.083 C 
ATOM     17  C   UNL     1      33.588  -8.911 -23.456  0.00  0.00    +0.019 C 
ATOM     18  C   UNL     1      31.244  -8.733 -22.899  0.00  0.00    +0.016 C 
ATOM     19  C   UNL     1      32.528  -6.741 -23.368  0.00  0.00    +0.062 C 
ATOM     20  C   UNL     1      31.319  -7.346 -23.026  0.00  0.00    +0.013 C 
BRANCH  16  24
ATOM     21  F   UNL     1      35.532  -7.460 -25.073  0.00  0.00    -0.166 F 
ATOM     22  F   UNL     1      34.904  -5.575 -24.203  0.00  0.00    -0.166 F 
ATOM     23  F   UNL     1      35.911  -7.056 -22.971  0.00  0.00    -0.166 F 
ATOM     24  C   UNL     1      34.976  -6.914 -23.953  0.00  0.00    +0.419 C 
ENDBRANCH  16  24
ENDBRANCH   9  15
ENDBRANCH   2  10
BRANCH   3  25
ATOM     25  O   UNL     1      35.469 -18.000 -23.451  0.00  0.00    -0.453 OA
BRANCH  25  27
ATOM     26  N   UNL     1      36.131 -20.184 -19.977  0.00  0.00    -0.239 NA
ATOM     27  C   UNL     1      35.689 -18.728 -22.293  0.00  0.00    +0.149 C 
ATOM     28  C   UNL     1      34.654 -19.456 -21.748  0.00  0.00    +0.061 C 
ATOM     29  C   UNL     1      34.925 -20.168 -20.590  0.00  0.00    +0.137 C 
ATOM     30  C   UNL     1      36.939 -18.707 -21.712  0.00  0.00    +0.058 C 
ATOM     31  C   UNL     1      37.108 -19.451 -20.556  0.00  0.00    +0.102 C 
BRANCH  29  34
ATOM     32  O   UNL     1      32.691 -20.797 -20.263  0.00  0.00    -0.268 OA
ATOM     33  N   UNL     1      34.295 -21.915 -19.017  0.00  0.00    -0.298 N 
ATOM     34  C   UNL     1      33.886 -20.960 -19.956  0.00  0.00    +0.264 C 
ATOM     35  C   UNL     1      33.385 -22.794 -18.320  0.00  0.00    +0.111 C 
ATOM     36  H   UNL     1      35.257 -21.991 -18.820  0.00  0.00    +0.150 HD
ENDBRANCH  29  34
ENDBRANCH  25  27
ENDBRANCH   3  25
TORSDOF 6
ENDMDL
MODEL 3
REMARK VINA RESULT:     -12.1      7.072     13.598
REMARK  Name = 11167602
REMARK  6 active torsions:
REMARK  status: ('A' for Active; 'I' for Inactive)
REMARK    1  A    between atoms: C_2  and  N_10
REMARK    2  A    between atoms: C_3  and  O_25
REMARK    3  A    between atoms: N_9  and  C_15
REMARK    4  A    between atoms: C_16  and  C_24
REMARK    5  A    between atoms: O_25  and  C_27
REMARK    6  A    between atoms: C_29  and  C_34
REMARK                            x       y       z     vdW  Elec       q    Type
REMARK                         _______ _______ _______ _____ _____    ______ ____
ROOT
ATOM      1  F   UNL     1      32.978 -21.086 -19.637  0.00  0.00    -0.203 F 
ATOM      2  C   UNL     1      35.287 -21.413 -19.192  0.00  0.00    +0.079 C 
ATOM      3  C   UNL     1      35.906 -19.528 -21.124  0.00  0.00    +0.148 C 
ATOM      4  C   UNL     1      34.261 -20.792 -19.885  0.00  0.00    +0.157 C 
ATOM      5  C   UNL     1      36.616 -21.111 -19.443  0.00  0.00    +0.020 C 
ATOM      6  C   UNL     1      34.573 -19.843 -20.858  0.00  0.00    +0.068 C 
ATOM      7  C   UNL     1      36.927 -20.162 -20.417  0.00  0.00    +0.039 C 
ENDROOT
BRANCH   2  10
ATOM      8  O   UNL     1      36.248 -21.665 -16.374  0.00  0.00    -0.252 OA
ATOM      9  N   UNL     1      34.892 -23.571 -16.228  0.00  0.00    -0.268 N 
ATOM     10  N   UNL     1      34.974 -22.375 -18.202  0.00  0.00    -0.266 N 
ATOM     11  C   UNL     1      35.456 -22.451 -16.886  0.00  0.00    +0.308 C 
ATOM     12  H   UNL     1      34.270 -24.112 -16.765  0.00  0.00    +0.156 HD
ATOM     13  H   UNL     1      34.341 -23.080 -18.472  0.00  0.00    +0.156 HD
BRANCH   9  15
ATOM     14 CL   UNL     1      35.738 -25.412 -10.675  0.00  0.00    -0.082 Cl
ATOM     15  C   UNL     1      35.101 -24.007 -14.919  0.00  0.00    +0.052 C 
ATOM     16  C   UNL     1      36.588 -24.814 -13.194  0.00  0.00    +0.083 C 
ATOM     17  C   UNL     1      36.380 -24.377 -14.503  0.00  0.00    +0.019 C 
ATOM     18  C   UNL     1      34.030 -24.074 -14.028  0.00  0.00    +0.016 C 
ATOM     19  C   UNL     1      35.518 -24.879 -12.303  0.00  0.00    +0.062 C 
ATOM     20  C   UNL     1      34.239 -24.510 -12.719  0.00  0.00    +0.013 C 
BRANCH  16  24
ATOM     21  F   UNL     1      38.452 -24.475 -11.734  0.00  0.00    -0.166 F 
ATOM     22  F   UNL     1      38.086 -26.504 -12.407  0.00  0.00    -0.166 F 
ATOM     23  F   UNL     1      38.878 -25.027 -13.793  0.00  0.00    -0.166 F 
ATOM     24  C   UNL     1      37.973 -25.198 -12.787  0.00  0.00    +0.419 C 
ENDBRANCH  16  24
ENDBRANCH   9  15
ENDBRANCH   2  10
BRANCH   3  25
ATOM     25  O   UNL     1      36.210 -18.602 -22.075  0.00  0.00    -0.453 OA
BRANCH  25  27
ATOM     26  N   UNL     1      33.348 -17.803 -24.980  0.00  0.00    -0.239 NA
ATOM     27  C   UNL     1      35.256 -18.335 -23.042  0.00  0.00    +0.149 C 
ATOM     28  C   UNL     1      35.018 -17.029 -23.412  0.00  0.00    +0.061 C 
ATOM     29  C   UNL     1      34.054 -16.815 -24.385  0.00  0.00    +0.137 C 
ATOM     30  C   UNL     1      34.566 -19.383 -23.614  0.00  0.00    +0.058 C 
ATOM     31  C   UNL     1      33.623 -19.064 -24.577  0.00  0.00    +0.102 C 
BRANCH  29  34
ATOM     32  O   UNL     1      33.463 -15.241 -26.019  0.00  0.00    -0.268 OA
ATOM     33  N   UNL     1      33.765 -14.457 -23.857  0.00  0.00    -0.298 N 
ATOM     34  C   UNL     1      33.747 -15.466 -24.828  0.00  0.00    +0.264 C 
ATOM     35  C   UNL     1      33.459 -13.073 -24.136  0.00  0.00    +0.111 C 
ATOM     36  H   UNL     1      34.000 -14.705 -22.934  0.00  0.00    +0.150 HD
ENDBRANCH  29  34
ENDBRANCH  25  27
ENDBRANCH   3  25
TORSDOF 6
ENDMDL
MODEL 4
REMARK VINA RESULT:     -12.1      5.784      9.720
REMARK  Name = 11167602
REMARK  6 active torsions:
REMARK  status: ('A' for Active; 'I' for Inactive)
REMARK    1  A    between atoms: C_2  and  N_10
REMARK    2  A    between atoms: C_3  and  O_25
REMARK    3  A    between atoms: N_9  and  C_15
REMARK    4  A    between atoms: C_16  and  C_24
REMARK    5  A    between atoms: O_25  and  C_27
REMARK    6  A    between atoms: C_29  and  C_34
REMARK                            x       y       z     vdW  Elec       q    Type
REMARK                         _______ _______ _______ _____ _____    ______ ____
ROOT
ATOM      1  F   UNL     1      36.962 -21.705 -17.244  0.00  0.00    -0.203 F 
ATOM      2  C   UNL     1      34.939 -22.231 -18.369  0.00  0.00    +0.079 C 
ATOM      3  C   UNL     1      34.149 -23.753 -16.193  0.00  0.00    +0.148 C 
ATOM      4  C   UNL     1      35.778 -22.331 -17.271  0.00  0.00    +0.157 C 
ATOM      5  C   UNL     1      33.712 -22.875 -18.401  0.00  0.00    +0.020 C 
ATOM      6  C   UNL     1      35.380 -23.097 -16.176  0.00  0.00    +0.068 C 
ATOM      7  C   UNL     1      33.315 -23.642 -17.306  0.00  0.00    +0.039 C 
ENDROOT
BRANCH   2  10
ATOM      8  O   UNL     1      33.419 -20.204 -19.951  0.00  0.00    -0.252 OA
ATOM      9  N   UNL     1      35.360 -19.956 -21.240  0.00  0.00    -0.268 N 
ATOM     10  N   UNL     1      35.339 -21.453 -19.482  0.00  0.00    -0.266 N 
ATOM     11  C   UNL     1      34.582 -20.510 -20.194  0.00  0.00    +0.308 C 
ATOM     12  H   UNL     1      36.280 -20.298 -21.314  0.00  0.00    +0.156 HD
ATOM     13  H   UNL     1      36.262 -21.592 -19.795  0.00  0.00    +0.156 HD
BRANCH   9  15
ATOM     14 CL   UNL     1      33.813 -15.895 -25.247  0.00  0.00    -0.082 Cl
ATOM     15  C   UNL     1      34.995 -18.991 -22.179  0.00  0.00    +0.052 C 
ATOM     16  C   UNL     1      34.579 -16.681 -22.752  0.00  0.00    +0.083 C 
ATOM     17  C   UNL     1      34.944 -17.646 -21.813  0.00  0.00    +0.019 C 
ATOM     18  C   UNL     1      34.681 -19.371 -23.483  0.00  0.00    +0.016 C 
ATOM     19  C   UNL     1      34.267 -17.061 -24.057  0.00  0.00    +0.062 C 
ATOM     20  C   UNL     1      34.317 -18.406 -24.423  0.00  0.00    +0.013 C 
BRANCH  16  24
ATOM     21  F   UNL     1      35.015 -15.049 -21.058  0.00  0.00    -0.166 F 
ATOM     22  F   UNL     1      35.274 -14.421 -23.118  0.00  0.00    -0.166 F 
ATOM     23  F   UNL     1      33.275 -14.740 -22.324  0.00  0.00    -0.166 F 
ATOM     24  C   UNL     1      34.540 -15.251 -22.321  0.00  0.00    +0.419 C 
ENDBRANCH  16  24
ENDBRANCH   9  15
ENDBRANCH   2  10
BRANCH   3  25
ATOM     25  O   UNL     1      33.760 -24.501 -15.124  0.00  0.00    -0.453 OA
BRANCH  25  27
ATOM     26  N   UNL     1      36.643 -25.457 -12.288  0.00  0.00    -0.239 NA
ATOM     27  C   UNL     1      34.721 -24.820 -14.180  0.00  0.00    +0.149 C 
ATOM     28  C   UNL     1      35.866 -25.474 -14.578  0.00  0.00    +0.061 C 
ATOM     29  C   UNL     1      36.798 -25.770 -13.595  0.00  0.00    +0.137 C 
ATOM     30  C   UNL     1      34.509 -24.476 -12.861  0.00  0.00    +0.058 C 
ATOM     31  C   UNL     1      35.500 -24.817 -11.955  0.00  0.00    +0.102 C 
BRANCH  29  34
ATOM     32  O   UNL     1      38.003 -27.607 -14.411  0.00  0.00    -0.268 OA
ATOM     33  N   UNL     1      39.228 -25.760 -13.728  0.00  0.00    -0.298 N 
ATOM     34  C   UNL     1      38.031 -26.457 -13.937  0.00  0.00    +0.264 C 
ATOM     35  C   UNL     1      40.532 -26.299 -14.040  0.00  0.00    +0.111 C 
ATOM     36  H   UNL     1      39.178 -24.854 -13.348  0.00  0.00    +0.150 HD
ENDBRANCH  29  34
ENDBRANCH  25  27
ENDBRANCH   3  25
TORSDOF 6
ENDMDL
MODEL 5
REMARK VINA RESULT:     -11.9      5.208      8.660
REMARK  Name = 11167602
REMARK  6 active torsions:
REMARK  status: ('A' for Active; 'I' for Inactive)
REMARK    1  A    between atoms: C_2  and  N_10
REMARK    2  A    between atoms: C_3  and  O_25
REMARK    3  A    between atoms: N_9  and  C_15
REMARK    4  A    between atoms: C_16  and  C_24
REMARK    5  A    between atoms: O_25  and  C_27
REMARK    6  A    between atoms: C_29  and  C_34
REMARK                            x       y       z     vdW  Elec       q    Type
REMARK                         _______ _______ _______ _____ _____    ______ ____
ROOT
ATOM      1  F   UNL     1      37.145 -20.981 -17.582  0.00  0.00    -0.203 F 
ATOM      2  C   UNL     1      35.263 -21.590 -18.895  0.00  0.00    +0.079 C 
ATOM      3  C   UNL     1      34.558 -23.461 -16.978  0.00  0.00    +0.148 C 
ATOM      4  C   UNL     1      36.051 -21.732 -17.764  0.00  0.00    +0.157 C 
ATOM      5  C   UNL     1      34.130 -22.364 -19.087  0.00  0.00    +0.020 C 
ATOM      6  C   UNL     1      35.696 -22.674 -16.799  0.00  0.00    +0.068 C 
ATOM      7  C   UNL     1      33.776 -23.307 -18.122  0.00  0.00    +0.039 C 
ENDROOT
BRANCH   2  10
ATOM      8  O   UNL     1      33.546 -19.786 -20.543  0.00  0.00    -0.252 OA
ATOM      9  N   UNL     1      35.533 -18.994 -21.500  0.00  0.00    -0.268 N 
ATOM     10  N   UNL     1      35.620 -20.634 -19.875  0.00  0.00    -0.266 N 
ATOM     11  C   UNL     1      34.770 -19.807 -20.626  0.00  0.00    +0.308 C 
ATOM     12  H   UNL     1      36.508 -19.120 -21.456  0.00  0.00    +0.156 HD
ATOM     13  H   UNL     1      36.584 -20.538 -20.053  0.00  0.00    +0.156 HD
BRANCH   9  15
ATOM     14 CL   UNL     1      33.642 -14.973 -25.397  0.00  0.00    -0.082 Cl
ATOM     15  C   UNL     1      35.086 -18.038 -22.412  0.00  0.00    +0.052 C 
ATOM     16  C   UNL     1      34.440 -15.765 -22.915  0.00  0.00    +0.083 C 
ATOM     17  C   UNL     1      34.886 -16.721 -22.001  0.00  0.00    +0.019 C 
ATOM     18  C   UNL     1      34.838 -18.401 -23.736  0.00  0.00    +0.016 C 
ATOM     19  C   UNL     1      34.193 -16.128 -24.238  0.00  0.00    +0.062 C 
ATOM     20  C   UNL     1      34.392 -17.446 -24.649  0.00  0.00    +0.013 C 
BRANCH  16  24
ATOM     21  F   UNL     1      34.846 -13.428 -23.221  0.00  0.00    -0.166 F 
ATOM     22  F   UNL     1      32.930 -13.990 -22.375  0.00  0.00    -0.166 F 
ATOM     23  F   UNL     1      34.739 -14.168 -21.180  0.00  0.00    -0.166 F 
ATOM     24  C   UNL     1      34.241 -14.364 -22.435  0.00  0.00    +0.419 C 
ENDBRANCH  16  24
ENDBRANCH   9  15
ENDBRANCH   2  10
BRANCH   3  25
ATOM     25  O   UNL     1      34.211 -24.381 -16.036  0.00  0.00    -0.453 OA
BRANCH  25  27
ATOM     26  N   UNL     1      31.129 -23.409 -13.425  0.00  0.00    -0.239 NA
ATOM     27  C   UNL     1      33.184 -24.056 -15.167  0.00  0.00    +0.149 C 
ATOM     28  C   UNL     1      31.947 -23.729 -15.677  0.00  0.00    +0.061 C 
ATOM     29  C   UNL     1      30.952 -23.413 -14.766  0.00  0.00    +0.137 C 
ATOM     30  C   UNL     1      33.423 -24.068 -13.809  0.00  0.00    +0.058 C 
ATOM     31  C   UNL     1      32.363 -23.736 -12.981  0.00  0.00    +0.102 C 
BRANCH  29  34
ATOM     32  O   UNL     1      28.979 -22.150 -14.668  0.00  0.00    -0.268 OA
ATOM     33  N   UNL     1      29.119 -23.764 -16.328  0.00  0.00    -0.298 N 
ATOM     34  C   UNL     1      29.621 -23.058 -15.227  0.00  0.00    +0.264 C 
ATOM     35  C   UNL     1      27.824 -23.511 -16.917  0.00  0.00    +0.111 C 
ATOM     36  H   UNL     1      29.679 -24.471 -16.721  0.00  0.00    +0.150 HD
ENDBRANCH  29  34
ENDBRANCH  25  27
ENDBRANCH   3  25
TORSDOF 6
ENDMDL
MODEL 6
REMARK VINA RESULT:     -11.8      1.692      2.100
REMARK  Name = 11167602
REMARK  6 active torsions:
REMARK  status: ('A' for Active; 'I' for Inactive)
REMARK    1  A    between atoms: C_2  and  N_10
REMARK    2  A    between atoms: C_3  and  O_25
REMARK    3  A    between atoms: N_9  and  C_15
REMARK    4  A    between atoms: C_16  and  C_24
REMARK    5  A    between atoms: O_25  and  C_27
REMARK    6  A    between atoms: C_29  and  C_34
REMARK                            x       y       z     vdW  Elec       q    Type
REMARK                         _______ _______ _______ _____ _____    ______ ____
ROOT
ATOM      1  F   UNL     1      33.247 -14.976 -25.864  0.00  0.00    -0.203 F 
ATOM      2  C   UNL     1      34.173 -14.618 -23.707  0.00  0.00    +0.079 C 
ATOM      3  C   UNL     1      34.547 -17.349 -23.437  0.00  0.00    +0.148 C 
ATOM      4  C   UNL     1      33.792 -15.459 -24.739  0.00  0.00    +0.157 C 
ATOM      5  C   UNL     1      34.739 -15.113 -22.543  0.00  0.00    +0.020 C 
ATOM      6  C   UNL     1      33.980 -16.834 -24.603  0.00  0.00    +0.068 C 
ATOM      7  C   UNL     1      34.926 -16.488 -22.407  0.00  0.00    +0.039 C 
ENDROOT
BRANCH   2  10
ATOM      8  O   UNL     1      32.559 -12.720 -22.059  0.00  0.00    -0.252 OA
ATOM      9  N   UNL     1      33.294 -11.042 -23.519  0.00  0.00    -0.268 N 
ATOM     10  N   UNL     1      33.985 -13.222 -23.843  0.00  0.00    -0.266 N 
ATOM     11  C   UNL     1      33.212 -12.371 -23.037  0.00  0.00    +0.308 C 
ATOM     12  H   UNL     1      33.857 -10.911 -24.315  0.00  0.00    +0.156 HD
ATOM     13  H   UNL     1      34.455 -12.795 -24.595  0.00  0.00    +0.156 HD
BRANCH   9  15
ATOM     14 CL   UNL     1      30.694  -6.166 -21.420  0.00  0.00    -0.082 Cl
ATOM     15  C   UNL     1      32.682  -9.894 -23.014  0.00  0.00    +0.052 C 
ATOM     16  C   UNL     1      32.123  -8.470 -21.144  0.00  0.00    +0.083 C 
ATOM     17  C   UNL     1      32.735  -9.619 -21.648  0.00  0.00    +0.019 C 
ATOM     18  C   UNL     1      32.018  -9.022 -23.877  0.00  0.00    +0.016 C 
ATOM     19  C   UNL     1      31.461  -7.598 -22.007  0.00  0.00    +0.062 C 
ATOM     20  C   UNL     1      31.408  -7.873 -23.373  0.00  0.00    +0.013 C 
BRANCH  16  24
ATOM     21  F   UNL     1      30.989  -8.203 -19.055  0.00  0.00    -0.166 F 
ATOM     22  F   UNL     1      32.948  -9.134 -18.999  0.00  0.00    -0.166 F 
ATOM     23  F   UNL     1      32.770  -7.002 -19.390  0.00  0.00    -0.166 F 
ATOM     24  C   UNL     1      32.204  -8.210 -19.675  0.00  0.00    +0.419 C 
ENDBRANCH  16  24
ENDBRANCH   9  15
ENDBRANCH   2  10
BRANCH   3  25
ATOM     25  O   UNL     1      34.730 -18.692 -23.304  0.00  0.00    -0.453 OA
BRANCH  25  27
ATOM     26  N   UNL     1      36.818 -20.035 -19.972  0.00  0.00    -0.239 NA
ATOM     27  C   UNL     1      35.425 -19.139 -22.193  0.00  0.00    +0.149 C 
ATOM     28  C   UNL     1      34.851 -20.088 -21.376  0.00  0.00    +0.061 C 
ATOM     29  C   UNL     1      35.587 -20.504 -20.278  0.00  0.00    +0.137 C 
ATOM     30  C   UNL     1      36.677 -18.624 -21.930  0.00  0.00    +0.058 C 
ATOM     31  C   UNL     1      37.331 -19.105 -20.807  0.00  0.00    +0.102 C 
BRANCH  29  34
ATOM     32  O   UNL     1      35.809 -22.280 -18.764  0.00  0.00    -0.268 OA
ATOM     33  N   UNL     1      33.660 -21.527 -19.201  0.00  0.00    -0.298 N 
ATOM     34  C   UNL     1      35.049 -21.503 -19.370  0.00  0.00    +0.264 C 
ATOM     35  C   UNL     1      32.977 -22.443 -18.317  0.00  0.00    +0.111 C 
ATOM     36  H   UNL     1      33.118 -20.884 -19.713  0.00  0.00    +0.150 HD
ENDBRANCH  29  34
ENDBRANCH  25  27
ENDBRANCH   3  25
TORSDOF 6
ENDMDL
MODEL 7
REMARK VINA RESULT:     -11.7      7.282     13.580
REMARK  Name = 11167602
REMARK  6 active torsions:
REMARK  status: ('A' for Active; 'I' for Inactive)
REMARK    1  A    between atoms: C_2  and  N_10
REMARK    2  A    between atoms: C_3  and  O_25
REMARK    3  A    between atoms: N_9  and  C_15
REMARK    4  A    between atoms: C_16  and  C_24
REMARK    5  A    between atoms: O_25  and  C_27
REMARK    6  A    between atoms: C_29  and  C_34
REMARK                            x       y       z     vdW  Elec       q    Type
REMARK                         _______ _______ _______ _____ _____    ______ ____
ROOT
ATOM      1  F   UNL     1      32.844 -21.357 -19.794  0.00  0.00    -0.203 F 
ATOM      2  C   UNL     1      35.176 -21.399 -19.349  0.00  0.00    +0.079 C 
ATOM      3  C   UNL     1      35.556 -19.440 -21.270  0.00  0.00    +0.148 C 
ATOM      4  C   UNL     1      34.081 -20.905 -20.039  0.00  0.00    +0.157 C 
ATOM      5  C   UNL     1      36.456 -20.932 -19.598  0.00  0.00    +0.020 C 
ATOM      6  C   UNL     1      34.272 -19.919 -21.007  0.00  0.00    +0.068 C 
ATOM      7  C   UNL     1      36.648 -19.947 -20.566  0.00  0.00    +0.039 C 
ENDROOT
BRANCH   2  10
ATOM      8  O   UNL     1      36.169 -21.551 -16.536  0.00  0.00    -0.252 OA
ATOM      9  N   UNL     1      35.054 -23.607 -16.398  0.00  0.00    -0.268 N 
ATOM     10  N   UNL     1      34.985 -22.398 -18.365  0.00  0.00    -0.266 N 
ATOM     11  C   UNL     1      35.476 -22.423 -17.051  0.00  0.00    +0.308 C 
ATOM     12  H   UNL     1      34.500 -24.216 -16.937  0.00  0.00    +0.156 HD
ATOM     13  H   UNL     1      34.440 -23.172 -18.637  0.00  0.00    +0.156 HD
BRANCH   9  15
ATOM     14 CL   UNL     1      36.136 -25.365 -10.859  0.00  0.00    -0.082 Cl
ATOM     15  C   UNL     1      35.319 -24.024 -15.093  0.00  0.00    +0.052 C 
ATOM     16  C   UNL     1      36.885 -24.767 -13.411  0.00  0.00    +0.083 C 
ATOM     17  C   UNL     1      36.621 -24.350 -14.716  0.00  0.00    +0.019 C 
ATOM     18  C   UNL     1      34.280 -24.114 -14.167  0.00  0.00    +0.016 C 
ATOM     19  C   UNL     1      35.847 -24.855 -12.484  0.00  0.00    +0.062 C 
ATOM     20  C   UNL     1      34.544 -24.530 -12.862  0.00  0.00    +0.013 C 
BRANCH  16  24
ATOM     21  F   UNL     1      38.458 -26.399 -12.646  0.00  0.00    -0.166 F 
ATOM     22  F   UNL     1      39.179 -24.930 -14.070  0.00  0.00    -0.166 F 
ATOM     23  F   UNL     1      38.763 -24.340 -12.018  0.00  0.00    -0.166 F 
ATOM     24  C   UNL     1      38.294 -25.105 -13.046  0.00  0.00    +0.419 C 
ENDBRANCH  16  24
ENDBRANCH   9  15
ENDBRANCH   2  10
BRANCH   3  25
ATOM     25  O   UNL     1      35.743 -18.478 -22.215  0.00  0.00    -0.453 OA
BRANCH  25  27
ATOM     26  N   UNL     1      34.268 -14.676 -21.413  0.00  0.00    -0.239 NA
ATOM     27  C   UNL     1      35.252 -17.211 -21.948  0.00  0.00    +0.149 C 
ATOM     28  C   UNL     1      34.927 -16.379 -22.998  0.00  0.00    +0.061 C 
ATOM     29  C   UNL     1      34.438 -15.122 -22.678  0.00  0.00    +0.137 C 
ATOM     30  C   UNL     1      35.099 -16.810 -20.638  0.00  0.00    +0.058 C 
ATOM     31  C   UNL     1      34.604 -15.534 -20.424  0.00  0.00    +0.102 C 
BRANCH  29  34
ATOM     32  O   UNL     1      34.164 -12.961 -23.545  0.00  0.00    -0.268 OA
ATOM     33  N   UNL     1      33.643 -14.735 -24.945  0.00  0.00    -0.298 N 
ATOM     34  C   UNL     1      34.073 -14.189 -23.729  0.00  0.00    +0.264 C 
ATOM     35  C   UNL     1      33.268 -13.939 -26.092  0.00  0.00    +0.111 C 
ATOM     36  H   UNL     1      33.593 -15.715 -25.023  0.00  0.00    +0.150 HD
ENDBRANCH  29  34
ENDBRANCH  25  27
ENDBRANCH   3  25
TORSDOF 6
ENDMDL
MODEL 8
REMARK VINA RESULT:     -11.4      5.888     11.780
REMARK  Name = 11167602
REMARK  6 active torsions:
REMARK  status: ('A' for Active; 'I' for Inactive)
REMARK    1  A    between atoms: C_2  and  N_10
REMARK    2  A    between atoms: C_3  and  O_25
REMARK    3  A    between atoms: N_9  and  C_15
REMARK    4  A    between atoms: C_16  and  C_24
REMARK    5  A    between atoms: O_25  and  C_27
REMARK    6  A    between atoms: C_29  and  C_34
REMARK                            x       y       z     vdW  Elec       q    Type
REMARK                         _______ _______ _______ _____ _____    ______ ____
ROOT
ATOM      1  F   UNL     1      36.062 -17.564 -21.168  0.00  0.00    -0.203 F 
ATOM      2  C   UNL     1      34.971 -19.293 -22.374  0.00  0.00    +0.079 C 
ATOM      3  C   UNL     1      34.280 -17.462 -24.334  0.00  0.00    +0.148 C 
ATOM      4  C   UNL     1      35.359 -17.971 -22.233  0.00  0.00    +0.157 C 
ATOM      5  C   UNL     1      34.246 -19.720 -23.475  0.00  0.00    +0.020 C 
ATOM      6  C   UNL     1      35.012 -17.049 -23.220  0.00  0.00    +0.068 C 
ATOM      7  C   UNL     1      33.897 -18.797 -24.461  0.00  0.00    +0.039 C 
ENDROOT
BRANCH   2  10
ATOM      8  O   UNL     1      33.427 -20.265 -20.009  0.00  0.00    -0.252 OA
ATOM      9  N   UNL     1      35.283 -21.608 -19.521  0.00  0.00    -0.268 N 
ATOM     10  N   UNL     1      35.324 -20.232 -21.375  0.00  0.00    -0.266 N 
ATOM     11  C   UNL     1      34.558 -20.656 -20.278  0.00  0.00    +0.308 C 
ATOM     12  H   UNL     1      36.182 -21.826 -19.858  0.00  0.00    +0.156 HD
ATOM     13  H   UNL     1      36.217 -20.637 -21.461  0.00  0.00    +0.156 HD
BRANCH   9  15
ATOM     14 CL   UNL     1      33.590 -24.446 -14.619  0.00  0.00    -0.082 Cl
ATOM     15  C   UNL     1      34.893 -22.277 -18.360  0.00  0.00    +0.052 C 
ATOM     16  C   UNL     1      35.403 -23.102 -16.148  0.00  0.00    +0.083 C 
ATOM     17  C   UNL     1      35.795 -22.432 -17.308  0.00  0.00    +0.019 C 
ATOM     18  C   UNL     1      33.600 -22.790 -18.254  0.00  0.00    +0.016 C 
ATOM     19  C   UNL     1      34.111 -23.614 -16.041  0.00  0.00    +0.062 C 
ATOM     20  C   UNL     1      33.209 -23.459 -17.093  0.00  0.00    +0.013 C 
BRANCH  16  24
ATOM     21  F   UNL     1      35.908 -22.890 -13.819  0.00  0.00    -0.166 F 
ATOM     22  F   UNL     1      36.862 -24.519 -14.888  0.00  0.00    -0.166 F 
ATOM     23  F   UNL     1      37.505 -22.470 -15.234  0.00  0.00    -0.166 F 
ATOM     24  C   UNL     1      36.398 -23.245 -15.042  0.00  0.00    +0.419 C 
ENDBRANCH  16  24
ENDBRANCH   9  15
ENDBRANCH   2  10
BRANCH   3  25
ATOM     25  O   UNL     1      33.941 -16.562 -25.298  0.00  0.00    -0.453 OA
BRANCH  25  27
ATOM     26  N   UNL     1      33.079 -12.679 -24.096  0.00  0.00    -0.239 NA
ATOM     27  C   UNL     1      33.652 -15.269 -24.897  0.00  0.00    +0.149 C 
ATOM     28  C   UNL     1      33.440 -15.008 -23.561  0.00  0.00    +0.061 C 
ATOM     29  C   UNL     1      33.157 -13.697 -23.210  0.00  0.00    +0.137 C 
ATOM     30  C   UNL     1      33.585 -14.270 -25.845  0.00  0.00    +0.058 C 
ATOM     31  C   UNL     1      33.295 -12.992 -25.393  0.00  0.00    +0.102 C 
BRANCH  29  34
ATOM     32  O   UNL     1      33.455 -13.995 -20.904  0.00  0.00    -0.268 OA
ATOM     33  N   UNL     1      32.096 -12.240 -21.576  0.00  0.00    -0.298 N 
ATOM     34  C   UNL     1      32.921 -13.344 -21.821  0.00  0.00    +0.264 C 
ATOM     35  C   UNL     1      31.786 -11.752 -20.252  0.00  0.00    +0.111 C 
ATOM     36  H   UNL     1      31.704 -11.772 -22.347  0.00  0.00    +0.150 HD
ENDBRANCH  29  34
ENDBRANCH  25  27
ENDBRANCH   3  25
TORSDOF 6
ENDMDL
MODEL 9
REMARK VINA RESULT:     -11.4      2.038      2.815
REMARK  Name = 11167602
REMARK  6 active torsions:
REMARK  status: ('A' for Active; 'I' for Inactive)
REMARK    1  A    between atoms: C_2  and  N_10
REMARK    2  A    between atoms: C_3  and  O_25
REMARK    3  A    between atoms: N_9  and  C_15
REMARK    4  A    between atoms: C_16  and  C_24
REMARK    5  A    between atoms: O_25  and  C_27
REMARK    6  A    between atoms: C_29  and  C_34
REMARK                            x       y       z     vdW  Elec       q    Type
REMARK                         _______ _______ _______ _____ _____    ______ ____
ROOT
ATOM      1  F   UNL     1      35.139 -15.227 -20.811  0.00  0.00    -0.203 F 
ATOM      2  C   UNL     1      34.750 -15.769 -23.090  0.00  0.00    +0.079 C 
ATOM      3  C   UNL     1      35.135 -18.447 -22.497  0.00  0.00    +0.148 C 
ATOM      4  C   UNL     1      35.041 -16.140 -21.788  0.00  0.00    +0.157 C 
ATOM      5  C   UNL     1      34.646 -16.710 -24.102  0.00  0.00    +0.020 C 
ATOM      6  C   UNL     1      35.235 -17.488 -21.489  0.00  0.00    +0.068 C 
ATOM      7  C   UNL     1      34.841 -18.058 -23.804  0.00  0.00    +0.039 C 
ENDROOT
BRANCH   2  10
ATOM      8  O   UNL     1      33.018 -13.728 -21.766  0.00  0.00    -0.252 OA
ATOM      9  N   UNL     1      33.813 -12.214 -23.366  0.00  0.00    -0.268 N 
ATOM     10  N   UNL     1      34.552 -14.402 -23.396  0.00  0.00    -0.266 N 
ATOM     11  C   UNL     1      33.721 -13.481 -22.740  0.00  0.00    +0.308 C 
ATOM     12  H   UNL     1      34.421 -12.163 -24.139  0.00  0.00    +0.156 HD
ATOM     13  H   UNL     1      35.059 -14.055 -24.166  0.00  0.00    +0.156 HD
BRANCH   9  15
ATOM     14 CL   UNL     1      31.001  -7.211 -21.950  0.00  0.00    -0.082 Cl
ATOM     15  C   UNL     1      33.158 -11.028 -23.033  0.00  0.00    +0.052 C 
ATOM     16  C   UNL     1      33.181  -8.627 -22.769  0.00  0.00    +0.083 C 
ATOM     17  C   UNL     1      33.838  -9.812 -23.102  0.00  0.00    +0.019 C 
ATOM     18  C   UNL     1      31.823 -11.059 -22.631  0.00  0.00    +0.016 C 
ATOM     19  C   UNL     1      31.846  -8.658 -22.368  0.00  0.00    +0.062 C 
ATOM     20  C   UNL     1      31.167  -9.874 -22.298  0.00  0.00    +0.013 C 
BRANCH  16  24
ATOM     21  F   UNL     1      33.618  -6.592 -23.948  0.00  0.00    -0.166 F 
ATOM     22  F   UNL     1      33.756  -6.523 -21.785  0.00  0.00    -0.166 F 
ATOM     23  F   UNL     1      35.291  -7.545 -22.939  0.00  0.00    -0.166 F 
ATOM     24  C   UNL     1      33.944  -7.345 -22.858  0.00  0.00    +0.419 C 
ENDBRANCH  16  24
ENDBRANCH   9  15
ENDBRANCH   2  10
BRANCH   3  25
ATOM     25  O   UNL     1      35.324 -19.764 -22.206  0.00  0.00    -0.453 OA
BRANCH  25  27
ATOM     26  N   UNL     1      33.156 -21.370 -19.046  0.00  0.00    -0.239 NA
ATOM     27  C   UNL     1      34.602 -20.300 -21.153  0.00  0.00    +0.149 C 
ATOM     28  C   UNL     1      35.264 -21.004 -20.171  0.00  0.00    +0.061 C 
ATOM     29  C   UNL     1      34.497 -21.519 -19.138  0.00  0.00    +0.137 C 
ATOM     30  C   UNL     1      33.236 -20.117 -21.112  0.00  0.00    +0.058 C 
ATOM     31  C   UNL     1      32.560 -20.672 -20.038  0.00  0.00    +0.102 C 
BRANCH  29  34
ATOM     32  O   UNL     1      34.557 -23.269 -17.579  0.00  0.00    -0.268 OA
ATOM     33  N   UNL     1      36.381 -21.837 -17.631  0.00  0.00    -0.298 N 
ATOM     34  C   UNL     1      35.123 -22.272 -18.065  0.00  0.00    +0.264 C 
ATOM     35  C   UNL     1      37.140 -22.494 -16.592  0.00  0.00    +0.111 C 
ATOM     36  H   UNL     1      36.770 -21.040 -18.058  0.00  0.00    +0.150 HD
ENDBRANCH  29  34
ENDBRANCH  25  27
ENDBRANCH   3  25
TORSDOF 6
ENDMDL
