MODEL 1
REMARK VINA RESULT:     -11.6      0.000      0.000
REMARK  Name = 176407
REMARK  5 active torsions:
REMARK  status: ('A' for Active; 'I' for Inactive)
REMARK    1  A    between atoms: N_1  and  C_20
REMARK    2  A    between atoms: C_11  and  C_16
REMARK    3  A    between atoms: C_20  and  C_21
REMARK    4  A    between atoms: C_21  and  C_22
REMARK    5  A    between atoms: C_27  and  O_28
REMARK                            x       y       z     vdW  Elec       q    Type
REMARK                         _______ _______ _______ _____ _____    ______ ____
ROOT
ATOM      1  N   UNL     1      35.732 -17.853 -22.581  0.00  0.00    -0.258 N 
ATOM      2  N   UNL     1      33.627 -14.524 -23.246  0.00  0.00    -0.059 N 
ATOM      3  N   UNL     1      34.707 -15.953 -21.730  0.00  0.00    -0.245 NA
ATOM      4  N   UNL     1      34.635 -16.394 -24.079  0.00  0.00    -0.294 NA
ATOM      5  N   UNL     1      32.928 -13.382 -23.315  0.00  0.00    -0.090 NA
ATOM      6  N   UNL     1      33.539 -13.881 -21.167  0.00  0.00    -0.267 NA
ATOM      7  N   UNL     1      33.528 -14.917 -25.568  0.00  0.00    -0.318 N 
ATOM      8  C   UNL     1      35.008 -16.699 -22.771  0.00  0.00    +0.213 C 
ATOM      9  C   UNL     1      33.994 -14.825 -21.966  0.00  0.00    +0.251 C 
ATOM     10  C   UNL     1      33.949 -15.318 -24.330  0.00  0.00    +0.282 C 
ATOM     11  C   UNL     1      32.901 -13.031 -22.027  0.00  0.00    +0.153 C 
ATOM     12  H   UNL     1      35.955 -18.409 -23.362  0.00  0.00    +0.160 HD
ATOM     13  H   UNL     1      33.011 -14.084 -25.667  0.00  0.00    +0.146 HD
ATOM     14  H   UNL     1      33.742 -15.460 -26.361  0.00  0.00    +0.146 HD
ENDROOT
BRANCH  11  16
ATOM     15  O   UNL     1      32.116 -10.667 -22.299  0.00  0.00    -0.439 OA
ATOM     16  C   UNL     1      32.229 -11.804 -21.564  0.00  0.00    +0.221 C 
ATOM     17  C   UNL     1      31.632 -11.645 -20.334  0.00  0.00    +0.052 C 
ATOM     18  C   UNL     1      31.119 -10.326 -20.313  0.00  0.00    +0.045 C 
ATOM     19  C   UNL     1      31.440  -9.773 -21.531  0.00  0.00    +0.181 C 
ENDBRANCH  11  16
BRANCH   1  20
ATOM     20  C   UNL     1      36.170 -18.269 -21.287  0.00  0.00    +0.103 C 
BRANCH  20  21
ATOM     21  C   UNL     1      36.405 -19.778 -21.248  0.00  0.00    +0.048 C 
BRANCH  21  22
ATOM     22  C   UNL     1      35.359 -20.521 -20.454  0.00  0.00    -0.020 C 
ATOM     23  C   UNL     1      35.754 -21.512 -19.570  0.00  0.00    -0.001 C 
ATOM     24  C   UNL     1      34.022 -20.197 -20.622  0.00  0.00    -0.001 C 
ATOM     25  C   UNL     1      34.787 -22.199 -18.836  0.00  0.00    +0.036 C 
ATOM     26  C   UNL     1      33.055 -20.883 -19.888  0.00  0.00    +0.036 C 
ATOM     27  C   UNL     1      33.437 -21.884 -18.995  0.00  0.00    +0.134 C 
BRANCH  27  28
ATOM     28  O   UNL     1      32.494 -22.554 -18.277  0.00  0.00    -0.506 OA
ATOM     29  H   UNL     1      32.690 -22.855 -17.413  0.00  0.00    +0.292 HD
ENDBRANCH  27  28
ENDBRANCH  21  22
ENDBRANCH  20  21
ENDBRANCH   1  20
TORSDOF 5
ENDMDL
MODEL 2
REMARK VINA RESULT:     -11.2      5.204      9.920
REMARK  Name = 176407
REMARK  5 active torsions:
REMARK  status: ('A' for Active; 'I' for Inactive)
REMARK    1  A    between atoms: N_1  and  C_20
REMARK    2  A    between atoms: C_11  and  C_16
REMARK    3  A    between atoms: C_20  and  C_21
REMARK    4  A    between atoms: C_21  and  C_22
REMARK    5  A    between atoms: C_27  and  O_28
REMARK                            x       y       z     vdW  Elec       q    Type
REMARK                         _______ _______ _______ _____ _____    ______ ____
ROOT
ATOM      1  N   UNL     1      35.952 -21.154 -19.627  0.00  0.00    -0.258 N 
ATOM      2  N   UNL     1      33.973 -23.092 -16.748  0.00  0.00    -0.059 N 
ATOM      3  N   UNL     1      33.927 -21.881 -18.757  0.00  0.00    -0.245 NA
ATOM      4  N   UNL     1      35.963 -22.376 -17.606  0.00  0.00    -0.294 NA
ATOM      5  N   UNL     1      33.179 -23.708 -15.860  0.00  0.00    -0.090 NA
ATOM      6  N   UNL     1      31.985 -22.785 -17.581  0.00  0.00    -0.267 NA
ATOM      7  N   UNL     1      35.954 -23.603 -15.576  0.00  0.00    -0.318 N 
ATOM      8  C   UNL     1      35.237 -21.814 -18.655  0.00  0.00    +0.213 C 
ATOM      9  C   UNL     1      33.264 -22.540 -17.777  0.00  0.00    +0.251 C 
ATOM     10  C   UNL     1      35.349 -23.013 -16.652  0.00  0.00    +0.282 C 
ATOM     11  C   UNL     1      31.981 -23.493 -16.411  0.00  0.00    +0.153 C 
ATOM     12  H   UNL     1      36.932 -21.106 -19.547  0.00  0.00    +0.160 HD
ATOM     13  H   UNL     1      35.409 -24.068 -14.899  0.00  0.00    +0.146 HD
ATOM     14  H   UNL     1      36.932 -23.566 -15.479  0.00  0.00    +0.146 HD
ENDROOT
BRANCH  11  16
ATOM     15  O   UNL     1      29.491 -23.570 -16.144  0.00  0.00    -0.439 OA
ATOM     16  C   UNL     1      30.737 -23.988 -15.797  0.00  0.00    +0.221 C 
ATOM     17  C   UNL     1      30.668 -24.931 -14.797  0.00  0.00    +0.052 C 
ATOM     18  C   UNL     1      29.292 -25.103 -14.512  0.00  0.00    +0.045 C 
ATOM     19  C   UNL     1      28.619 -24.253 -15.358  0.00  0.00    +0.181 C 
ENDBRANCH  11  16
BRANCH   1  20
ATOM     20  C   UNL     1      35.318 -20.540 -20.749  0.00  0.00    +0.103 C 
BRANCH  20  21
ATOM     21  C   UNL     1      35.949 -19.182 -21.057  0.00  0.00    +0.048 C 
BRANCH  21  22
ATOM     22  C   UNL     1      35.307 -18.482 -22.229  0.00  0.00    -0.020 C 
ATOM     23  C   UNL     1      34.671 -19.234 -23.204  0.00  0.00    -0.001 C 
ATOM     24  C   UNL     1      35.364 -17.100 -22.309  0.00  0.00    -0.001 C 
ATOM     25  C   UNL     1      34.077 -18.587 -24.288  0.00  0.00    +0.036 C 
ATOM     26  C   UNL     1      34.771 -16.453 -23.393  0.00  0.00    +0.036 C 
ATOM     27  C   UNL     1      34.127 -17.196 -24.382  0.00  0.00    +0.134 C 
BRANCH  27  28
ATOM     28  O   UNL     1      33.547 -16.566 -25.440  0.00  0.00    -0.506 OA
ATOM     29  H   UNL     1      32.617 -16.588 -25.546  0.00  0.00    +0.292 HD
ENDBRANCH  27  28
ENDBRANCH  21  22
ENDBRANCH  20  21
ENDBRANCH   1  20
TORSDOF 5
ENDMDL
MODEL 3
REMARK VINA RESULT:     -11.1      6.747     11.616
REMARK  Name = 176407
REMARK  5 active torsions:
REMARK  status: ('A' for Active; 'I' for Inactive)
REMARK    1  A    between atoms: N_1  and  C_20
REMARK    2  A    between atoms: C_11  and  C_16
REMARK    3  A    between atoms: C_20  and  C_21
REMARK    4  A    between atoms: C_21  and  C_22
REMARK    5  A    between atoms: C_27  and  O_28
REMARK                            x       y       z     vdW  Elec       q    Type
REMARK                         _______ _______ _______ _____ _____    ______ ____
ROOT
ATOM      1  N   UNL     1      32.509 -22.451 -18.439  0.00  0.00    -0.258 N 
ATOM      2  N   UNL     1      33.597 -24.051 -14.944  0.00  0.00    -0.059 N 
ATOM      3  N   UNL     1      34.182 -23.349 -17.106  0.00  0.00    -0.245 NA
ATOM      4  N   UNL     1      31.954 -23.167 -16.258  0.00  0.00    -0.294 NA
ATOM      5  N   UNL     1      34.107 -24.597 -13.831  0.00  0.00    -0.090 NA
ATOM      6  N   UNL     1      35.695 -24.332 -15.457  0.00  0.00    -0.267 NA
ATOM      7  N   UNL     1      31.416 -23.892 -14.065  0.00  0.00    -0.318 N 
ATOM      8  C   UNL     1      32.921 -23.005 -17.250  0.00  0.00    +0.213 C 
ATOM      9  C   UNL     1      34.542 -23.890 -15.917  0.00  0.00    +0.251 C 
ATOM     10  C   UNL     1      32.275 -23.685 -15.109  0.00  0.00    +0.282 C 
ATOM     11  C   UNL     1      35.383 -24.749 -14.193  0.00  0.00    +0.153 C 
ATOM     12  H   UNL     1      31.564 -22.195 -18.543  0.00  0.00    +0.160 HD
ATOM     13  H   UNL     1      31.746 -24.291 -13.227  0.00  0.00    +0.146 HD
ATOM     14  H   UNL     1      30.468 -23.642 -14.150  0.00  0.00    +0.146 HD
ENDROOT
BRANCH  11  16
ATOM     15  O   UNL     1      36.133 -25.745 -12.019  0.00  0.00    -0.439 OA
ATOM     16  C   UNL     1      36.390 -25.329 -13.287  0.00  0.00    +0.221 C 
ATOM     17  C   UNL     1      37.716 -25.524 -13.599  0.00  0.00    +0.052 C 
ATOM     18  C   UNL     1      38.311 -26.097 -12.448  0.00  0.00    +0.045 C 
ATOM     19  C   UNL     1      37.306 -26.210 -11.516  0.00  0.00    +0.181 C 
ENDBRANCH  11  16
BRANCH   1  20
ATOM     20  C   UNL     1      33.408 -22.235 -19.527  0.00  0.00    +0.103 C 
BRANCH  20  21
ATOM     21  C   UNL     1      33.300 -20.803 -20.049  0.00  0.00    +0.048 C 
BRANCH  21  22
ATOM     22  C   UNL     1      34.632 -20.215 -20.447  0.00  0.00    -0.020 C 
ATOM     23  C   UNL     1      34.674 -19.214 -21.404  0.00  0.00    -0.001 C 
ATOM     24  C   UNL     1      35.788 -20.688 -19.847  0.00  0.00    -0.001 C 
ATOM     25  C   UNL     1      35.905 -18.672 -21.772  0.00  0.00    +0.036 C 
ATOM     26  C   UNL     1      37.019 -20.145 -20.215  0.00  0.00    +0.036 C 
ATOM     27  C   UNL     1      37.078 -19.137 -21.177  0.00  0.00    +0.134 C 
BRANCH  27  28
ATOM     28  O   UNL     1      38.279 -18.606 -21.536  0.00  0.00    -0.506 OA
ATOM     29  H   UNL     1      39.073 -18.980 -21.209  0.00  0.00    +0.292 HD
ENDBRANCH  27  28
ENDBRANCH  21  22
ENDBRANCH  20  21
ENDBRANCH   1  20
TORSDOF 5
ENDMDL
MODEL 4
REMARK VINA RESULT:     -10.9      4.620     10.070
REMARK  Name = 176407
REMARK  5 active torsions:
REMARK  status: ('A' for Active; 'I' for Inactive)
REMARK    1  A    between atoms: N_1  and  C_20
REMARK    2  A    between atoms: C_11  and  C_16
REMARK    3  A    between atoms: C_20  and  C_21
REMARK    4  A    between atoms: C_21  and  C_22
REMARK    5  A    between atoms: C_27  and  O_28
REMARK                            x       y       z     vdW  Elec       q    Type
REMARK                         _______ _______ _______ _____ _____    ______ ____
ROOT
ATOM      1  N   UNL     1      34.830 -20.247 -20.904  0.00  0.00    -0.258 N 
ATOM      2  N   UNL     1      34.843 -22.524 -17.621  0.00  0.00    -0.059 N 
ATOM      3  N   UNL     1      35.992 -21.090 -19.080  0.00  0.00    -0.245 NA
ATOM      4  N   UNL     1      33.703 -21.693 -19.415  0.00  0.00    -0.294 NA
ATOM      5  N   UNL     1      34.996 -23.245 -16.501  0.00  0.00    -0.090 NA
ATOM      6  N   UNL     1      36.917 -22.143 -17.078  0.00  0.00    -0.267 NA
ATOM      7  N   UNL     1      32.588 -23.148 -17.910  0.00  0.00    -0.318 N 
ATOM      8  C   UNL     1      34.873 -21.021 -19.768  0.00  0.00    +0.213 C 
ATOM      9  C   UNL     1      35.987 -21.864 -17.968  0.00  0.00    +0.251 C 
ATOM     10  C   UNL     1      33.674 -22.443 -18.353  0.00  0.00    +0.282 C 
ATOM     11  C   UNL     1      36.272 -22.981 -16.211  0.00  0.00    +0.153 C 
ATOM     12  H   UNL     1      33.991 -20.198 -21.415  0.00  0.00    +0.160 HD
ATOM     13  H   UNL     1      32.654 -23.692 -17.091  0.00  0.00    +0.146 HD
ATOM     14  H   UNL     1      31.740 -23.111 -18.408  0.00  0.00    +0.146 HD
ENDROOT
BRANCH  11  16
ATOM     15  O   UNL     1      38.208 -24.049 -15.032  0.00  0.00    -0.439 OA
ATOM     16  C   UNL     1      36.942 -23.556 -15.031  0.00  0.00    +0.221 C 
ATOM     17  C   UNL     1      36.380 -23.671 -13.780  0.00  0.00    +0.052 C 
ATOM     18  C   UNL     1      37.365 -24.273 -12.960  0.00  0.00    +0.045 C 
ATOM     19  C   UNL     1      38.457 -24.484 -13.769  0.00  0.00    +0.181 C 
ENDBRANCH  11  16
BRANCH   1  20
ATOM     20  C   UNL     1      35.965 -19.512 -21.363  0.00  0.00    +0.103 C 
BRANCH  20  21
ATOM     21  C   UNL     1      35.748 -18.009 -21.191  0.00  0.00    +0.048 C 
BRANCH  21  22
ATOM     22  C   UNL     1      35.159 -17.352 -22.415  0.00  0.00    -0.020 C 
ATOM     23  C   UNL     1      34.944 -15.982 -22.414  0.00  0.00    -0.001 C 
ATOM     24  C   UNL     1      34.845 -18.129 -23.519  0.00  0.00    -0.001 C 
ATOM     25  C   UNL     1      34.399 -15.375 -23.545  0.00  0.00    +0.036 C 
ATOM     26  C   UNL     1      34.300 -17.522 -24.649  0.00  0.00    +0.036 C 
ATOM     27  C   UNL     1      34.077 -16.145 -24.663  0.00  0.00    +0.134 C 
BRANCH  27  28
ATOM     28  O   UNL     1      33.546 -15.551 -25.766  0.00  0.00    -0.506 OA
ATOM     29  H   UNL     1      34.062 -14.955 -26.272  0.00  0.00    +0.292 HD
ENDBRANCH  27  28
ENDBRANCH  21  22
ENDBRANCH  20  21
ENDBRANCH   1  20
TORSDOF 5
ENDMDL
MODEL 5
REMARK VINA RESULT:     -10.7      5.752     10.831
REMARK  Name = 176407
REMARK  5 active torsions:
REMARK  status: ('A' for Active; 'I' for Inactive)
REMARK    1  A    between atoms: N_1  and  C_20
REMARK    2  A    between atoms: C_11  and  C_16
REMARK    3  A    between atoms: C_20  and  C_21
REMARK    4  A    between atoms: C_21  and  C_22
REMARK    5  A    between atoms: C_27  and  O_28
REMARK                            x       y       z     vdW  Elec       q    Type
REMARK                         _______ _______ _______ _____ _____    ______ ____
ROOT
ATOM      1  N   UNL     1      33.840 -21.663 -19.772  0.00  0.00    -0.258 N 
ATOM      2  N   UNL     1      33.568 -23.418 -16.194  0.00  0.00    -0.059 N 
ATOM      3  N   UNL     1      34.909 -22.580 -17.928  0.00  0.00    -0.245 NA
ATOM      4  N   UNL     1      32.520 -22.516 -18.010  0.00  0.00    -0.294 NA
ATOM      5  N   UNL     1      33.633 -24.009 -14.992  0.00  0.00    -0.090 NA
ATOM      6  N   UNL     1      35.712 -23.603 -15.859  0.00  0.00    -0.267 NA
ATOM      7  N   UNL     1      31.212 -23.379 -16.229  0.00  0.00    -0.318 N 
ATOM      8  C   UNL     1      33.786 -22.268 -18.539  0.00  0.00    +0.213 C 
ATOM      9  C   UNL     1      34.807 -23.174 -16.715  0.00  0.00    +0.251 C 
ATOM     10  C   UNL     1      32.397 -23.086 -16.847  0.00  0.00    +0.282 C 
ATOM     11  C   UNL     1      34.956 -24.100 -14.834  0.00  0.00    +0.153 C 
ATOM     12  H   UNL     1      32.998 -21.432 -20.227  0.00  0.00    +0.160 HD
ATOM     13  H   UNL     1      31.211 -23.813 -15.345  0.00  0.00    +0.146 HD
ATOM     14  H   UNL     1      30.359 -23.155 -16.668  0.00  0.00    +0.146 HD
ENDROOT
BRANCH  11  16
ATOM     15  O   UNL     1      36.632 -25.532 -13.643  0.00  0.00    -0.439 OA
ATOM     16  C   UNL     1      35.561 -24.696 -13.629  0.00  0.00    +0.221 C 
ATOM     17  C   UNL     1      35.126 -24.491 -12.340  0.00  0.00    +0.052 C 
ATOM     18  C   UNL     1      35.986 -25.249 -11.509  0.00  0.00    +0.045 C 
ATOM     19  C   UNL     1      36.884 -25.864 -12.350  0.00  0.00    +0.181 C 
ENDBRANCH  11  16
BRANCH   1  20
ATOM     20  C   UNL     1      35.079 -21.359 -20.414  0.00  0.00    +0.103 C 
BRANCH  20  21
ATOM     21  C   UNL     1      35.401 -19.870 -20.300  0.00  0.00    +0.048 C 
BRANCH  21  22
ATOM     22  C   UNL     1      35.133 -19.106 -21.574  0.00  0.00    -0.020 C 
ATOM     23  C   UNL     1      35.428 -17.753 -21.630  0.00  0.00    -0.001 C 
ATOM     24  C   UNL     1      34.597 -19.772 -22.665  0.00  0.00    -0.001 C 
ATOM     25  C   UNL     1      35.180 -17.047 -22.807  0.00  0.00    +0.036 C 
ATOM     26  C   UNL     1      34.349 -19.066 -23.842  0.00  0.00    +0.036 C 
ATOM     27  C   UNL     1      34.640 -17.704 -23.913  0.00  0.00    +0.134 C 
BRANCH  27  28
ATOM     28  O   UNL     1      34.399 -17.014 -25.062  0.00  0.00    -0.506 OA
ATOM     29  H   UNL     1      34.795 -17.289 -25.865  0.00  0.00    +0.292 HD
ENDBRANCH  27  28
ENDBRANCH  21  22
ENDBRANCH  20  21
ENDBRANCH   1  20
TORSDOF 5
ENDMDL
MODEL 6
REMARK VINA RESULT:     -10.5      7.455     10.550
REMARK  Name = 176407
REMARK  5 active torsions:
REMARK  status: ('A' for Active; 'I' for Inactive)
REMARK    1  A    between atoms: N_1  and  C_20
REMARK    2  A    between atoms: C_11  and  C_16
REMARK    3  A    between atoms: C_20  and  C_21
REMARK    4  A    between atoms: C_21  and  C_22
REMARK    5  A    between atoms: C_27  and  O_28
REMARK                            x       y       z     vdW  Elec       q    Type
REMARK                         _______ _______ _______ _____ _____    ______ ____
ROOT
ATOM      1  N   UNL     1      33.069 -25.373 -13.208  0.00  0.00    -0.258 N 
ATOM      2  N   UNL     1      35.273 -23.392 -15.887  0.00  0.00    -0.059 N 
ATOM      3  N   UNL     1      33.174 -24.184 -15.197  0.00  0.00    -0.245 NA
ATOM      4  N   UNL     1      35.166 -24.562 -13.930  0.00  0.00    -0.294 NA
ATOM      5  N   UNL     1      35.880 -22.704 -16.865  0.00  0.00    -0.090 NA
ATOM      6  N   UNL     1      33.629 -22.904 -17.230  0.00  0.00    -0.267 NA
ATOM      7  N   UNL     1      37.263 -23.740 -14.673  0.00  0.00    -0.318 N 
ATOM      8  C   UNL     1      33.794 -24.684 -14.151  0.00  0.00    +0.213 C 
ATOM      9  C   UNL     1      33.929 -23.513 -16.100  0.00  0.00    +0.251 C 
ATOM     10  C   UNL     1      35.912 -23.924 -14.784  0.00  0.00    +0.282 C 
ATOM     11  C   UNL     1      34.839 -22.431 -17.656  0.00  0.00    +0.153 C 
ATOM     12  H   UNL     1      33.537 -25.747 -12.426  0.00  0.00    +0.160 HD
ATOM     13  H   UNL     1      37.751 -23.241 -15.369  0.00  0.00    +0.146 HD
ATOM     14  H   UNL     1      37.749 -24.106 -13.899  0.00  0.00    +0.146 HD
ENDROOT
BRANCH  11  16
ATOM     15  O   UNL     1      33.947 -21.189 -19.640  0.00  0.00    -0.439 OA
ATOM     16  C   UNL     1      34.986 -21.667 -18.908  0.00  0.00    +0.221 C 
ATOM     17  C   UNL     1      36.184 -21.340 -19.499  0.00  0.00    +0.052 C 
ATOM     18  C   UNL     1      35.860 -20.613 -20.670  0.00  0.00    +0.045 C 
ATOM     19  C   UNL     1      34.487 -20.549 -20.710  0.00  0.00    +0.181 C 
ENDBRANCH  11  16
BRANCH   1  20
ATOM     20  C   UNL     1      31.658 -25.562 -13.325  0.00  0.00    +0.103 C 
BRANCH  20  21
ATOM     21  C   UNL     1      30.922 -24.224 -13.277  0.00  0.00    +0.048 C 
BRANCH  21  22
ATOM     22  C   UNL     1      29.934 -24.051 -14.405  0.00  0.00    -0.020 C 
ATOM     23  C   UNL     1      29.548 -22.774 -14.780  0.00  0.00    -0.001 C 
ATOM     24  C   UNL     1      29.430 -25.172 -15.044  0.00  0.00    -0.001 C 
ATOM     25  C   UNL     1      28.635 -22.614 -15.821  0.00  0.00    +0.036 C 
ATOM     26  C   UNL     1      28.516 -25.013 -16.085  0.00  0.00    +0.036 C 
ATOM     27  C   UNL     1      28.118 -23.733 -16.474  0.00  0.00    +0.134 C 
BRANCH  27  28
ATOM     28  O   UNL     1      27.227 -23.576 -17.491  0.00  0.00    -0.506 OA
ATOM     29  H   UNL     1      27.532 -23.496 -18.373  0.00  0.00    +0.292 HD
ENDBRANCH  27  28
ENDBRANCH  21  22
ENDBRANCH  20  21
ENDBRANCH   1  20
TORSDOF 5
ENDMDL
MODEL 7
REMARK VINA RESULT:     -10.5      5.975      8.999
REMARK  Name = 176407
REMARK  5 active torsions:
REMARK  status: ('A' for Active; 'I' for Inactive)
REMARK    1  A    between atoms: N_1  and  C_20
REMARK    2  A    between atoms: C_11  and  C_16
REMARK    3  A    between atoms: C_20  and  C_21
REMARK    4  A    between atoms: C_21  and  C_22
REMARK    5  A    between atoms: C_27  and  O_28
REMARK                            x       y       z     vdW  Elec       q    Type
REMARK                         _______ _______ _______ _____ _____    ______ ____
ROOT
ATOM      1  N   UNL     1      36.370 -23.633 -15.556  0.00  0.00    -0.258 N 
ATOM      2  N   UNL     1      34.493 -21.907 -18.631  0.00  0.00    -0.059 N 
ATOM      3  N   UNL     1      36.475 -22.264 -17.427  0.00  0.00    -0.245 NA
ATOM      4  N   UNL     1      34.393 -23.254 -16.791  0.00  0.00    -0.294 NA
ATOM      5  N   UNL     1      34.001 -21.266 -19.701  0.00  0.00    -0.090 NA
ATOM      6  N   UNL     1      36.242 -20.886 -19.431  0.00  0.00    -0.267 NA
ATOM      7  N   UNL     1      32.418 -22.859 -18.044  0.00  0.00    -0.318 N 
ATOM      8  C   UNL     1      35.759 -23.023 -16.626  0.00  0.00    +0.213 C 
ATOM      9  C   UNL     1      35.830 -21.683 -18.467  0.00  0.00    +0.251 C 
ATOM     10  C   UNL     1      33.752 -22.706 -17.782  0.00  0.00    +0.282 C 
ATOM     11  C   UNL     1      35.102 -20.660 -20.152  0.00  0.00    +0.153 C 
ATOM     12  H   UNL     1      35.830 -24.200 -14.959  0.00  0.00    +0.160 HD
ATOM     13  H   UNL     1      32.013 -22.407 -18.820  0.00  0.00    +0.146 HD
ATOM     14  H   UNL     1      31.862 -23.422 -17.458  0.00  0.00    +0.146 HD
ENDROOT
BRANCH  11  16
ATOM     15  O   UNL     1      34.168 -19.891 -22.346  0.00  0.00    -0.439 OA
ATOM     16  C   UNL     1      35.089 -19.804 -21.352  0.00  0.00    +0.221 C 
ATOM     17  C   UNL     1      36.001 -18.810 -21.625  0.00  0.00    +0.052 C 
ATOM     18  C   UNL     1      35.614 -18.252 -22.867  0.00  0.00    +0.045 C 
ATOM     19  C   UNL     1      34.495 -18.944 -23.264  0.00  0.00    +0.181 C 
ENDBRANCH  11  16
BRANCH   1  20
ATOM     20  C   UNL     1      37.763 -23.472 -15.285  0.00  0.00    +0.103 C 
BRANCH  20  21
ATOM     21  C   UNL     1      38.258 -24.542 -14.313  0.00  0.00    +0.048 C 
BRANCH  21  22
ATOM     22  C   UNL     1      37.511 -24.542 -13.001  0.00  0.00    -0.020 C 
ATOM     23  C   UNL     1      36.800 -25.670 -12.624  0.00  0.00    -0.001 C 
ATOM     24  C   UNL     1      37.551 -23.413 -12.198  0.00  0.00    -0.001 C 
ATOM     25  C   UNL     1      36.110 -25.669 -11.412  0.00  0.00    +0.036 C 
ATOM     26  C   UNL     1      36.861 -23.412 -10.987  0.00  0.00    +0.036 C 
ATOM     27  C   UNL     1      36.141 -24.540 -10.593  0.00  0.00    +0.134 C 
BRANCH  27  28
ATOM     28  O   UNL     1      35.467 -24.540  -9.410  0.00  0.00    -0.506 OA
ATOM     29  H   UNL     1      34.831 -23.876  -9.233  0.00  0.00    +0.292 HD
ENDBRANCH  27  28
ENDBRANCH  21  22
ENDBRANCH  20  21
ENDBRANCH   1  20
TORSDOF 5
ENDMDL
MODEL 8
REMARK VINA RESULT:     -10.3      3.662      9.272
REMARK  Name = 176407
REMARK  5 active torsions:
REMARK  status: ('A' for Active; 'I' for Inactive)
REMARK    1  A    between atoms: N_1  and  C_20
REMARK    2  A    between atoms: C_11  and  C_16
REMARK    3  A    between atoms: C_20  and  C_21
REMARK    4  A    between atoms: C_21  and  C_22
REMARK    5  A    between atoms: C_27  and  O_28
REMARK                            x       y       z     vdW  Elec       q    Type
REMARK                         _______ _______ _______ _____ _____    ______ ____
ROOT
ATOM      1  N   UNL     1      35.376 -19.755 -21.716  0.00  0.00    -0.258 N 
ATOM      2  N   UNL     1      34.554 -21.914 -18.457  0.00  0.00    -0.059 N 
ATOM      3  N   UNL     1      33.789 -20.724 -20.329  0.00  0.00    -0.245 NA
ATOM      4  N   UNL     1      36.114 -20.960 -19.823  0.00  0.00    -0.294 NA
ATOM      5  N   UNL     1      34.128 -22.621 -17.400  0.00  0.00    -0.090 NA
ATOM      6  N   UNL     1      32.389 -21.859 -18.677  0.00  0.00    -0.267 NA
ATOM      7  N   UNL     1      36.834 -22.173 -17.916  0.00  0.00    -0.318 N 
ATOM      8  C   UNL     1      35.055 -20.495 -20.602  0.00  0.00    +0.213 C 
ATOM      9  C   UNL     1      33.519 -21.458 -19.222  0.00  0.00    +0.251 C 
ATOM     10  C   UNL     1      35.880 -21.665 -18.755  0.00  0.00    +0.282 C 
ATOM     11  C   UNL     1      32.806 -22.558 -17.579  0.00  0.00    +0.153 C 
ATOM     12  H   UNL     1      36.325 -19.586 -21.917  0.00  0.00    +0.160 HD
ATOM     13  H   UNL     1      36.567 -22.699 -17.127  0.00  0.00    +0.146 HD
ATOM     14  H   UNL     1      37.788 -22.014 -18.101  0.00  0.00    +0.146 HD
ENDROOT
BRANCH  11  16
ATOM     15  O   UNL     1      30.510 -23.052 -16.707  0.00  0.00    -0.439 OA
ATOM     16  C   UNL     1      31.859 -23.202 -16.651  0.00  0.00    +0.221 C 
ATOM     17  C   UNL     1      32.210 -24.033 -15.612  0.00  0.00    +0.052 C 
ATOM     18  C   UNL     1      30.998 -24.418 -14.990  0.00  0.00    +0.045 C 
ATOM     19  C   UNL     1      29.994 -23.795 -15.693  0.00  0.00    +0.181 C 
ENDBRANCH  11  16
BRANCH   1  20
ATOM     20  C   UNL     1      34.378 -19.227 -22.590  0.00  0.00    +0.103 C 
BRANCH  20  21
ATOM     21  C   UNL     1      35.013 -18.408 -23.713  0.00  0.00    +0.048 C 
BRANCH  21  22
ATOM     22  C   UNL     1      34.604 -16.956 -23.691  0.00  0.00    -0.020 C 
ATOM     23  C   UNL     1      33.903 -16.431 -24.765  0.00  0.00    -0.001 C 
ATOM     24  C   UNL     1      34.937 -16.173 -22.597  0.00  0.00    -0.001 C 
ATOM     25  C   UNL     1      33.525 -15.089 -24.745  0.00  0.00    +0.036 C 
ATOM     26  C   UNL     1      34.560 -14.831 -22.577  0.00  0.00    +0.036 C 
ATOM     27  C   UNL     1      33.854 -14.288 -23.651  0.00  0.00    +0.134 C 
BRANCH  27  28
ATOM     28  O   UNL     1      33.484 -12.978 -23.632  0.00  0.00    -0.506 OA
ATOM     29  H   UNL     1      34.081 -12.327 -23.321  0.00  0.00    +0.292 HD
ENDBRANCH  27  28
ENDBRANCH  21  22
ENDBRANCH  20  21
ENDBRANCH   1  20
TORSDOF 5
ENDMDL
MODEL 9
REMARK VINA RESULT:     -10.2      1.853      8.340
REMARK  Name = 176407
REMARK  5 active torsions:
REMARK  status: ('A' for Active; 'I' for Inactive)
REMARK    1  A    between atoms: N_1  and  C_20
REMARK    2  A    between atoms: C_11  and  C_16
REMARK    3  A    between atoms: C_20  and  C_21
REMARK    4  A    between atoms: C_21  and  C_22
REMARK    5  A    between atoms: C_27  and  O_28
REMARK                            x       y       z     vdW  Elec       q    Type
REMARK                         _______ _______ _______ _____ _____    ______ ____
ROOT
ATOM      1  N   UNL     1      34.177 -14.998 -24.217  0.00  0.00    -0.258 N 
ATOM      2  N   UNL     1      34.605 -18.737 -22.877  0.00  0.00    -0.059 N 
ATOM      3  N   UNL     1      34.734 -16.429 -22.477  0.00  0.00    -0.245 NA
ATOM      4  N   UNL     1      34.057 -17.328 -24.586  0.00  0.00    -0.294 NA
ATOM      5  N   UNL     1      34.791 -19.929 -22.291  0.00  0.00    -0.090 NA
ATOM      6  N   UNL     1      35.249 -18.195 -20.868  0.00  0.00    -0.267 NA
ATOM      7  N   UNL     1      33.944 -19.671 -24.938  0.00  0.00    -0.318 N 
ATOM      8  C   UNL     1      34.335 -16.271 -23.720  0.00  0.00    +0.213 C 
ATOM      9  C   UNL     1      34.876 -17.700 -22.031  0.00  0.00    +0.251 C 
ATOM     10  C   UNL     1      34.187 -18.557 -24.181  0.00  0.00    +0.282 C 
ATOM     11  C   UNL     1      35.183 -19.546 -21.073  0.00  0.00    +0.153 C 
ATOM     12  H   UNL     1      33.878 -14.885 -25.148  0.00  0.00    +0.160 HD
ATOM     13  H   UNL     1      34.068 -20.568 -24.549  0.00  0.00    +0.146 HD
ATOM     14  H   UNL     1      33.644 -19.577 -25.871  0.00  0.00    +0.146 HD
ENDROOT
BRANCH  11  16
ATOM     15  O   UNL     1      36.693 -20.529 -19.333  0.00  0.00    -0.439 OA
ATOM     16  C   UNL     1      35.520 -20.517 -20.017  0.00  0.00    +0.221 C 
ATOM     17  C   UNL     1      34.700 -21.535 -19.587  0.00  0.00    +0.052 C 
ATOM     18  C   UNL     1      35.417 -22.215 -18.573  0.00  0.00    +0.045 C 
ATOM     19  C   UNL     1      36.622 -21.565 -18.456  0.00  0.00    +0.181 C 
ENDBRANCH  11  16
BRANCH   1  20
ATOM     20  C   UNL     1      34.430 -13.838 -23.425  0.00  0.00    +0.103 C 
BRANCH  20  21
ATOM     21  C   UNL     1      33.508 -12.688 -23.829  0.00  0.00    +0.048 C 
BRANCH  21  22
ATOM     22  C   UNL     1      32.756 -12.094 -22.663  0.00  0.00    -0.020 C 
ATOM     23  C   UNL     1      32.400 -10.755 -22.696  0.00  0.00    -0.001 C 
ATOM     24  C   UNL     1      32.435 -12.899 -21.582  0.00  0.00    -0.001 C 
ATOM     25  C   UNL     1      31.705 -10.206 -21.619  0.00  0.00    +0.036 C 
ATOM     26  C   UNL     1      31.741 -12.350 -20.504  0.00  0.00    +0.036 C 
ATOM     27  C   UNL     1      31.375 -11.003 -20.523  0.00  0.00    +0.134 C 
BRANCH  27  28
ATOM     28  O   UNL     1      30.696 -10.467 -19.472  0.00  0.00    -0.506 OA
ATOM     29  H   UNL     1      31.086  -9.785 -18.962  0.00  0.00    +0.292 HD
ENDBRANCH  27  28
ENDBRANCH  21  22
ENDBRANCH  20  21
ENDBRANCH   1  20
TORSDOF 5
ENDMDL
