MODEL 1
REMARK VINA RESULT:     -12.0      0.000      0.000
REMARK  Name = 42628060
REMARK  6 active torsions:
REMARK  status: ('A' for Active; 'I' for Inactive)
REMARK    1  A    between atoms: N_2  and  C_6
REMARK    2  A    between atoms: C_3  and  C_19
REMARK    3  A    between atoms: C_9  and  N_13
REMARK    4  A    between atoms: C_19  and  N_20
REMARK    5  A    between atoms: C_21  and  N_27
REMARK    6  A    between atoms: C_28  and  C_32
REMARK                            x       y       z     vdW  Elec       q    Type
REMARK                         _______ _______ _______ _____ _____    ______ ____
ROOT
ATOM      1  O   UNL     1      36.553 -20.528 -19.608  0.00  0.00    -0.277 OA
ATOM      2  N   UNL     1      34.709 -21.743 -18.807  0.00  0.00    -0.284 N 
ATOM      3  C   UNL     1      35.387 -20.901 -19.687  0.00  0.00    +0.205 C 
ATOM      4  H   UNL     1      33.768 -21.933 -19.025  0.00  0.00    +0.155 HD
ENDROOT
BRANCH   2   6
ATOM      5  F   UNL     1      33.091 -23.305 -17.163  0.00  0.00    -0.203 F 
ATOM      6  C   UNL     1      35.216 -22.357 -17.638  0.00  0.00    +0.078 C 
ATOM      7  C   UNL     1      34.380 -23.132 -16.836  0.00  0.00    +0.155 C 
ATOM      8  C   UNL     1      36.555 -22.183 -17.287  0.00  0.00    +0.018 C 
ATOM      9  C   UNL     1      36.221 -23.562 -15.331  0.00  0.00    +0.061 C 
ATOM     10  C   UNL     1      34.882 -23.736 -15.682  0.00  0.00    +0.046 C 
ATOM     11  C   UNL     1      37.058 -22.787 -16.133  0.00  0.00    +0.017 C 
BRANCH   9  13
ATOM     12  O   UNL     1      36.914 -26.358 -15.072  0.00  0.00    -0.269 OA
ATOM     13  N   UNL     1      36.743 -24.188 -14.132  0.00  0.00    -0.233 N 
ATOM     14  C   UNL     1      37.007 -25.582 -14.121  0.00  0.00    +0.257 C 
ATOM     15  C   UNL     1      37.010 -23.425 -12.993  0.00  0.00    +0.072 C 
ATOM     16  C   UNL     1      37.501 -26.155 -12.830  0.00  0.00    +0.059 C 
ATOM     17  C   UNL     1      37.482 -23.957 -11.861  0.00  0.00    +0.017 C 
ATOM     18  C   UNL     1      37.728 -25.365 -11.778  0.00  0.00    +0.006 C 
ENDBRANCH   9  13
ENDBRANCH   2   6
BRANCH   3  19
ATOM     19  C   UNL     1      34.464 -20.466 -20.813  0.00  0.00    +0.010 C 
BRANCH  19  20
ATOM     20  N   UNL     1      35.131 -19.458 -21.623  0.00  0.00    +0.394 N 
ATOM     21  C   UNL     1      35.325 -17.250 -22.345  0.00  0.00    +0.049 C 
ATOM     22  C   UNL     1      35.187 -18.157 -23.571  0.00  0.00    -0.005 C 
ATOM     23  C   UNL     1      34.834 -18.096 -21.175  0.00  0.00    -0.057 C 
ATOM     24  C   UNL     1      34.703 -19.494 -23.022  0.00  0.00    -0.075 C 
ATOM     25  H   UNL     1      36.122 -19.678 -21.527  0.00  0.00    -0.079 HD
BRANCH  21  27
ATOM     26  O   UNL     1      34.706 -15.394 -20.243  0.00  0.00    -0.270 OA
ATOM     27  N   UNL     1      34.591 -16.021 -22.474  0.00  0.00    -0.304 N 
ATOM     28  C   UNL     1      34.338 -15.181 -21.397  0.00  0.00    +0.252 C 
ATOM     29  H   UNL     1      34.254 -15.763 -23.363  0.00  0.00    +0.150 HD
BRANCH  28  32
ATOM     30 CL   UNL     1      30.679 -11.046 -21.054  0.00  0.00    -0.075 Cl
ATOM     31  S   UNL     1      32.331 -13.469 -20.586  0.00  0.00    -0.071 S 
ATOM     32  C   UNL     1      33.543 -13.960 -21.691  0.00  0.00    +0.084 C 
ATOM     33  C   UNL     1      33.632 -13.111 -22.772  0.00  0.00    +0.012 C 
ATOM     34  C   UNL     1      32.692 -12.043 -22.692  0.00  0.00    +0.019 C 
ATOM     35  C   UNL     1      31.921 -12.116 -21.553  0.00  0.00    +0.087 C 
ENDBRANCH  28  32
ENDBRANCH  21  27
ENDBRANCH  19  20
ENDBRANCH   3  19
TORSDOF 6
ENDMDL
MODEL 2
REMARK VINA RESULT:     -11.5      4.998     12.115
REMARK  Name = 42628060
REMARK  6 active torsions:
REMARK  status: ('A' for Active; 'I' for Inactive)
REMARK    1  A    between atoms: N_2  and  C_6
REMARK    2  A    between atoms: C_3  and  C_19
REMARK    3  A    between atoms: C_9  and  N_13
REMARK    4  A    between atoms: C_19  and  N_20
REMARK    5  A    between atoms: C_21  and  N_27
REMARK    6  A    between atoms: C_28  and  C_32
REMARK                            x       y       z     vdW  Elec       q    Type
REMARK                         _______ _______ _______ _____ _____    ______ ____
ROOT
ATOM      1  O   UNL     1      33.559 -20.603 -20.545  0.00  0.00    -0.277 OA
ATOM      2  N   UNL     1      35.625 -19.655 -21.138  0.00  0.00    -0.284 N 
ATOM      3  C   UNL     1      34.786 -20.616 -20.577  0.00  0.00    +0.205 C 
ATOM      4  H   UNL     1      36.591 -19.828 -21.068  0.00  0.00    +0.155 HD
ENDROOT
BRANCH   2   6
ATOM      5  F   UNL     1      34.844 -19.650 -23.813  0.00  0.00    -0.203 F 
ATOM      6  C   UNL     1      35.249 -18.461 -21.797  0.00  0.00    +0.078 C 
ATOM      7  C   UNL     1      34.863 -18.492 -23.137  0.00  0.00    +0.155 C 
ATOM      8  C   UNL     1      35.267 -17.250 -21.104  0.00  0.00    +0.018 C 
ATOM      9  C   UNL     1      34.512 -16.102 -23.091  0.00  0.00    +0.061 C 
ATOM     10  C   UNL     1      34.494 -17.312 -23.784  0.00  0.00    +0.046 C 
ATOM     11  C   UNL     1      34.898 -16.070 -21.752  0.00  0.00    +0.017 C 
BRANCH   9  13
ATOM     12  O   UNL     1      33.337 -15.939 -25.729  0.00  0.00    -0.269 OA
ATOM     13  N   UNL     1      34.129 -14.876 -23.764  0.00  0.00    -0.233 N 
ATOM     14  C   UNL     1      33.598 -14.927 -25.078  0.00  0.00    +0.257 C 
ATOM     15  C   UNL     1      34.260 -13.643 -23.119  0.00  0.00    +0.072 C 
ATOM     16  C   UNL     1      33.272 -13.613 -25.717  0.00  0.00    +0.059 C 
ATOM     17  C   UNL     1      33.930 -12.485 -23.700  0.00  0.00    +0.017 C 
ATOM     18  C   UNL     1      33.428 -12.473 -25.041  0.00  0.00    +0.006 C 
ENDBRANCH   9  13
ENDBRANCH   2   6
BRANCH   3  19
ATOM     19  C   UNL     1      35.607 -21.741 -19.971  0.00  0.00    +0.010 C 
BRANCH  19  20
ATOM     20  N   UNL     1      35.308 -21.847 -18.550  0.00  0.00    +0.394 N 
ATOM     21  C   UNL     1      35.913 -22.523 -16.403  0.00  0.00    +0.049 C 
ATOM     22  C   UNL     1      34.551 -23.133 -16.745  0.00  0.00    -0.005 C 
ATOM     23  C   UNL     1      36.504 -22.108 -17.746  0.00  0.00    -0.057 C 
ATOM     24  C   UNL     1      34.406 -22.959 -18.252  0.00  0.00    -0.075 C 
ATOM     25  H   UNL     1      34.887 -20.948 -18.318  0.00  0.00    -0.079 HD
BRANCH  21  27
ATOM     26  O   UNL     1      35.717 -23.239 -13.630  0.00  0.00    -0.270 OA
ATOM     27  N   UNL     1      36.768 -23.430 -15.688  0.00  0.00    -0.304 N 
ATOM     28  C   UNL     1      36.598 -23.718 -14.340  0.00  0.00    +0.252 C 
ATOM     29  H   UNL     1      37.506 -23.865 -16.175  0.00  0.00    +0.150 HD
BRANCH  28  32
ATOM     30 CL   UNL     1      41.021 -26.946 -13.553  0.00  0.00    -0.075 Cl
ATOM     31  S   UNL     1      38.976 -25.087 -14.639  0.00  0.00    -0.071 S 
ATOM     32  C   UNL     1      37.583 -24.656 -13.741  0.00  0.00    +0.084 C 
ATOM     33  C   UNL     1      37.552 -25.269 -12.508  0.00  0.00    +0.012 C 
ATOM     34  C   UNL     1      38.688 -26.103 -12.297  0.00  0.00    +0.019 C 
ATOM     35  C   UNL     1      39.543 -26.096 -13.377  0.00  0.00    +0.087 C 
ENDBRANCH  28  32
ENDBRANCH  21  27
ENDBRANCH  19  20
ENDBRANCH   3  19
TORSDOF 6
ENDMDL
MODEL 3
REMARK VINA RESULT:     -11.3      1.399      1.495
REMARK  Name = 42628060
REMARK  6 active torsions:
REMARK  status: ('A' for Active; 'I' for Inactive)
REMARK    1  A    between atoms: N_2  and  C_6
REMARK    2  A    between atoms: C_3  and  C_19
REMARK    3  A    between atoms: C_9  and  N_13
REMARK    4  A    between atoms: C_19  and  N_20
REMARK    5  A    between atoms: C_21  and  N_27
REMARK    6  A    between atoms: C_28  and  C_32
REMARK                            x       y       z     vdW  Elec       q    Type
REMARK                         _______ _______ _______ _____ _____    ______ ____
ROOT
ATOM      1  O   UNL     1      36.663 -20.077 -19.971  0.00  0.00    -0.277 OA
ATOM      2  N   UNL     1      34.825 -21.457 -19.490  0.00  0.00    -0.284 N 
ATOM      3  C   UNL     1      35.564 -20.547 -20.245  0.00  0.00    +0.205 C 
ATOM      4  H   UNL     1      33.954 -21.724 -19.862  0.00  0.00    +0.155 HD
ENDROOT
BRANCH   2   6
ATOM      5  F   UNL     1      33.001 -22.950 -18.005  0.00  0.00    -0.203 F 
ATOM      6  C   UNL     1      35.181 -22.039 -18.251  0.00  0.00    +0.078 C 
ATOM      7  C   UNL     1      34.244 -22.781 -17.532  0.00  0.00    +0.155 C 
ATOM      8  C   UNL     1      36.471 -21.870 -17.748  0.00  0.00    +0.018 C 
ATOM      9  C   UNL     1      35.887 -23.184 -15.807  0.00  0.00    +0.061 C 
ATOM     10  C   UNL     1      34.597 -23.354 -16.309  0.00  0.00    +0.046 C 
ATOM     11  C   UNL     1      36.824 -22.442 -16.525  0.00  0.00    +0.017 C 
BRANCH   9  13
ATOM     12  O   UNL     1      38.568 -23.942 -15.029  0.00  0.00    -0.269 OA
ATOM     13  N   UNL     1      36.255 -23.778 -14.536  0.00  0.00    -0.233 N 
ATOM     14  C   UNL     1      37.603 -24.144 -14.291  0.00  0.00    +0.257 C 
ATOM     15  C   UNL     1      35.294 -23.975 -13.541  0.00  0.00    +0.072 C 
ATOM     16  C   UNL     1      37.888 -24.792 -12.973  0.00  0.00    +0.059 C 
ATOM     17  C   UNL     1      35.581 -24.527 -12.358  0.00  0.00    +0.017 C 
ATOM     18  C   UNL     1      36.917 -24.954 -12.071  0.00  0.00    +0.006 C 
ENDBRANCH   9  13
ENDBRANCH   2   6
BRANCH   3  19
ATOM     19  C   UNL     1      34.808 -20.180 -21.511  0.00  0.00    +0.010 C 
BRANCH  19  20
ATOM     20  N   UNL     1      35.307 -18.911 -22.020  0.00  0.00    +0.394 N 
ATOM     21  C   UNL     1      35.269 -16.580 -22.024  0.00  0.00    +0.049 C 
ATOM     22  C   UNL     1      35.045 -17.078 -23.455  0.00  0.00    -0.005 C 
ATOM     23  C   UNL     1      34.977 -17.788 -21.140  0.00  0.00    -0.057 C 
ATOM     24  C   UNL     1      34.719 -18.559 -23.312  0.00  0.00    -0.075 C 
ATOM     25  H   UNL     1      36.314 -19.051 -22.090  0.00  0.00    -0.079 HD
BRANCH  21  27
ATOM     26  O   UNL     1      33.932 -14.830 -23.866  0.00  0.00    -0.270 OA
ATOM     27  N   UNL     1      34.447 -15.449 -21.691  0.00  0.00    -0.304 N 
ATOM     28  C   UNL     1      33.837 -14.655 -22.653  0.00  0.00    +0.252 C 
ATOM     29  H   UNL     1      34.311 -15.229 -20.741  0.00  0.00    +0.150 HD
BRANCH  28  32
ATOM     30 CL   UNL     1      31.435  -9.696 -22.155  0.00  0.00    -0.075 Cl
ATOM     31  S   UNL     1      32.994 -12.058 -23.056  0.00  0.00    -0.071 S 
ATOM     32  C   UNL     1      33.040 -13.507 -22.146  0.00  0.00    +0.084 C 
ATOM     33  C   UNL     1      32.289 -13.419 -20.995  0.00  0.00    +0.012 C 
ATOM     34  C   UNL     1      31.667 -12.145 -20.858  0.00  0.00    +0.019 C 
ATOM     35  C   UNL     1      31.966 -11.307 -21.910  0.00  0.00    +0.087 C 
ENDBRANCH  28  32
ENDBRANCH  21  27
ENDBRANCH  19  20
ENDBRANCH   3  19
TORSDOF 6
ENDMDL
MODEL 4
REMARK VINA RESULT:     -11.1      5.434      9.170
REMARK  Name = 42628060
REMARK  6 active torsions:
REMARK  status: ('A' for Active; 'I' for Inactive)
REMARK    1  A    between atoms: N_2  and  C_6
REMARK    2  A    between atoms: C_3  and  C_19
REMARK    3  A    between atoms: C_9  and  N_13
REMARK    4  A    between atoms: C_19  and  N_20
REMARK    5  A    between atoms: C_21  and  N_27
REMARK    6  A    between atoms: C_28  and  C_32
REMARK                            x       y       z     vdW  Elec       q    Type
REMARK                         _______ _______ _______ _____ _____    ______ ____
ROOT
ATOM      1  O   UNL     1      32.447 -13.099 -22.195  0.00  0.00    -0.277 OA
ATOM      2  N   UNL     1      34.283 -13.904 -23.419  0.00  0.00    -0.284 N 
ATOM      3  C   UNL     1      33.288 -12.988 -23.081  0.00  0.00    +0.205 C 
ATOM      4  H   UNL     1      34.872 -13.651 -24.165  0.00  0.00    +0.155 HD
ENDROOT
BRANCH   2   6
ATOM      5  F   UNL     1      34.679 -16.205 -24.940  0.00  0.00    -0.203 F 
ATOM      6  C   UNL     1      34.544 -15.155 -22.813  0.00  0.00    +0.078 C 
ATOM      7  C   UNL     1      34.738 -16.289 -23.603  0.00  0.00    +0.155 C 
ATOM      8  C   UNL     1      34.606 -15.256 -21.423  0.00  0.00    +0.018 C 
ATOM      9  C   UNL     1      35.056 -17.621 -21.613  0.00  0.00    +0.061 C 
ATOM     10  C   UNL     1      34.994 -17.522 -23.003  0.00  0.00    +0.046 C 
ATOM     11  C   UNL     1      34.863 -16.489 -20.823  0.00  0.00    +0.017 C 
BRANCH   9  13
ATOM     12  O   UNL     1      37.674 -18.620 -20.894  0.00  0.00    -0.269 OA
ATOM     13  N   UNL     1      35.322 -18.903 -20.989  0.00  0.00    -0.233 N 
ATOM     14  C   UNL     1      36.659 -19.295 -20.722  0.00  0.00    +0.257 C 
ATOM     15  C   UNL     1      34.269 -19.748 -20.628  0.00  0.00    +0.072 C 
ATOM     16  C   UNL     1      36.847 -20.652 -20.119  0.00  0.00    +0.059 C 
ATOM     17  C   UNL     1      34.463 -20.942 -20.060  0.00  0.00    +0.017 C 
ATOM     18  C   UNL     1      35.793 -21.408 -19.805  0.00  0.00    +0.006 C 
ENDBRANCH   9  13
ENDBRANCH   2   6
BRANCH   3  19
ATOM     19  C   UNL     1      33.364 -11.772 -23.989  0.00  0.00    +0.010 C 
BRANCH  19  20
ATOM     20  N   UNL     1      33.911 -10.647 -23.247  0.00  0.00    +0.394 N 
ATOM     21  C   UNL     1      33.763  -8.431 -22.538  0.00  0.00    +0.049 C 
ATOM     22  C   UNL     1      35.109  -8.634 -23.240  0.00  0.00    -0.005 C 
ATOM     23  C   UNL     1      32.908  -9.613 -22.983  0.00  0.00    -0.057 C 
ATOM     24  C   UNL     1      34.974  -9.959 -23.979  0.00  0.00    -0.075 C 
ATOM     25  H   UNL     1      34.257 -11.064 -22.384  0.00  0.00    -0.079 HD
BRANCH  21  27
ATOM     26  O   UNL     1      32.746  -6.506 -20.667  0.00  0.00    -0.270 OA
ATOM     27  N   UNL     1      33.154  -7.168 -22.852  0.00  0.00    -0.304 N 
ATOM     28  C   UNL     1      32.688  -6.296 -21.876  0.00  0.00    +0.252 C 
ATOM     29  H   UNL     1      33.062  -6.911 -23.798  0.00  0.00    +0.150 HD
BRANCH  28  32
ATOM     30 CL   UNL     1      30.499  -2.406 -25.144  0.00  0.00    -0.075 Cl
ATOM     31  S   UNL     1      31.756  -4.859 -24.041  0.00  0.00    -0.071 S 
ATOM     32  C   UNL     1      32.059  -5.041 -22.366  0.00  0.00    +0.084 C 
ATOM     33  C   UNL     1      31.656  -3.939 -21.644  0.00  0.00    +0.012 C 
ATOM     34  C   UNL     1      31.092  -2.931 -22.479  0.00  0.00    +0.019 C 
ATOM     35  C   UNL     1      31.084  -3.302 -23.805  0.00  0.00    +0.087 C 
ENDBRANCH  28  32
ENDBRANCH  21  27
ENDBRANCH  19  20
ENDBRANCH   3  19
TORSDOF 6
ENDMDL
MODEL 5
REMARK VINA RESULT:     -11.1      1.662      2.228
REMARK  Name = 42628060
REMARK  6 active torsions:
REMARK  status: ('A' for Active; 'I' for Inactive)
REMARK    1  A    between atoms: N_2  and  C_6
REMARK    2  A    between atoms: C_3  and  C_19
REMARK    3  A    between atoms: C_9  and  N_13
REMARK    4  A    between atoms: C_19  and  N_20
REMARK    5  A    between atoms: C_21  and  N_27
REMARK    6  A    between atoms: C_28  and  C_32
REMARK                            x       y       z     vdW  Elec       q    Type
REMARK                         _______ _______ _______ _____ _____    ______ ____
ROOT
ATOM      1  O   UNL     1      35.729 -18.713 -20.623  0.00  0.00    -0.277 OA
ATOM      2  N   UNL     1      34.782 -20.853 -20.825  0.00  0.00    -0.284 N 
ATOM      3  C   UNL     1      35.127 -19.574 -21.258  0.00  0.00    +0.205 C 
ATOM      4  H   UNL     1      34.292 -21.412 -21.470  0.00  0.00    +0.155 HD
ENDROOT
BRANCH   2   6
ATOM      5  F   UNL     1      32.803 -22.176 -19.377  0.00  0.00    -0.203 F 
ATOM      6  C   UNL     1      35.053 -21.440 -19.567  0.00  0.00    +0.078 C 
ATOM      7  C   UNL     1      34.040 -22.095 -18.867  0.00  0.00    +0.155 C 
ATOM      8  C   UNL     1      36.336 -21.362 -19.025  0.00  0.00    +0.018 C 
ATOM      9  C   UNL     1      35.594 -22.594 -17.085  0.00  0.00    +0.061 C 
ATOM     10  C   UNL     1      34.311 -22.673 -17.626  0.00  0.00    +0.046 C 
ATOM     11  C   UNL     1      36.607 -21.939 -17.784  0.00  0.00    +0.017 C 
BRANCH   9  13
ATOM     12  O   UNL     1      33.675 -24.006 -15.445  0.00  0.00    -0.269 OA
ATOM     13  N   UNL     1      35.875 -23.194 -15.795  0.00  0.00    -0.233 N 
ATOM     14  C   UNL     1      34.834 -23.826 -15.068  0.00  0.00    +0.257 C 
ATOM     15  C   UNL     1      37.169 -23.173 -15.271  0.00  0.00    +0.072 C 
ATOM     16  C   UNL     1      35.199 -24.378 -13.726  0.00  0.00    +0.059 C 
ATOM     17  C   UNL     1      37.477 -23.703 -14.082  0.00  0.00    +0.017 C 
ATOM     18  C   UNL     1      36.458 -24.317 -13.286  0.00  0.00    +0.006 C 
ENDBRANCH   9  13
ENDBRANCH   2   6
BRANCH   3  19
ATOM     19  C   UNL     1      34.641 -19.351 -22.680  0.00  0.00    +0.010 C 
BRANCH  19  20
ATOM     20  N   UNL     1      35.121 -18.064 -23.160  0.00  0.00    +0.394 N 
ATOM     21  C   UNL     1      35.005 -15.736 -23.158  0.00  0.00    +0.049 C 
ATOM     22  C   UNL     1      34.870 -16.234 -24.600  0.00  0.00    -0.005 C 
ATOM     23  C   UNL     1      34.711 -16.957 -22.293  0.00  0.00    -0.057 C 
ATOM     24  C   UNL     1      34.586 -17.726 -24.479  0.00  0.00    -0.075 C 
ATOM     25  H   UNL     1      36.135 -18.170 -23.180  0.00  0.00    -0.079 HD
BRANCH  21  27
ATOM     26  O   UNL     1      34.398 -14.680 -20.559  0.00  0.00    -0.270 OA
ATOM     27  N   UNL     1      34.131 -14.635 -22.863  0.00  0.00    -0.304 N 
ATOM     28  C   UNL     1      33.895 -14.190 -21.568  0.00  0.00    +0.252 C 
ATOM     29  H   UNL     1      33.679 -14.177 -23.609  0.00  0.00    +0.150 HD
BRANCH  28  32
ATOM     30 CL   UNL     1      30.929  -9.626 -22.552  0.00  0.00    -0.075 Cl
ATOM     31  S   UNL     1      32.797 -11.928 -22.706  0.00  0.00    -0.071 S 
ATOM     32  C   UNL     1      32.943 -13.057 -21.427  0.00  0.00    +0.084 C 
ATOM     33  C   UNL     1      32.111 -12.754 -20.372  0.00  0.00    +0.012 C 
ATOM     34  C   UNL     1      31.344 -11.579 -20.618  0.00  0.00    +0.019 C 
ATOM     35  C   UNL     1      31.618 -11.029 -21.850  0.00  0.00    +0.087 C 
ENDBRANCH  28  32
ENDBRANCH  21  27
ENDBRANCH  19  20
ENDBRANCH   3  19
TORSDOF 6
ENDMDL
MODEL 6
REMARK VINA RESULT:     -11.0      5.500      9.357
REMARK  Name = 42628060
REMARK  6 active torsions:
REMARK  status: ('A' for Active; 'I' for Inactive)
REMARK    1  A    between atoms: N_2  and  C_6
REMARK    2  A    between atoms: C_3  and  C_19
REMARK    3  A    between atoms: C_9  and  N_13
REMARK    4  A    between atoms: C_19  and  N_20
REMARK    5  A    between atoms: C_21  and  N_27
REMARK    6  A    between atoms: C_28  and  C_32
REMARK                            x       y       z     vdW  Elec       q    Type
REMARK                         _______ _______ _______ _____ _____    ______ ____
ROOT
ATOM      1  O   UNL     1      32.034 -13.358 -22.460  0.00  0.00    -0.277 OA
ATOM      2  N   UNL     1      34.307 -13.698 -22.946  0.00  0.00    -0.284 N 
ATOM      3  C   UNL     1      33.109 -12.987 -22.922  0.00  0.00    +0.205 C 
ATOM      4  H   UNL     1      35.074 -13.245 -23.364  0.00  0.00    +0.155 HD
ENDROOT
BRANCH   2   6
ATOM      5  F   UNL     1      34.421 -14.197 -20.208  0.00  0.00    -0.203 F 
ATOM      6  C   UNL     1      34.549 -14.997 -22.440  0.00  0.00    +0.078 C 
ATOM      7  C   UNL     1      34.600 -15.213 -21.063  0.00  0.00    +0.155 C 
ATOM      8  C   UNL     1      34.738 -16.062 -23.321  0.00  0.00    +0.018 C 
ATOM      9  C   UNL     1      35.029 -17.560 -21.448  0.00  0.00    +0.061 C 
ATOM     10  C   UNL     1      34.840 -16.495 -20.567  0.00  0.00    +0.046 C 
ATOM     11  C   UNL     1      34.978 -17.344 -22.824  0.00  0.00    +0.017 C 
BRANCH   9  13
ATOM     12  O   UNL     1      37.633 -18.639 -20.800  0.00  0.00    -0.269 OA
ATOM     13  N   UNL     1      35.279 -18.892 -20.932  0.00  0.00    -0.233 N 
ATOM     14  C   UNL     1      36.611 -19.318 -20.691  0.00  0.00    +0.257 C 
ATOM     15  C   UNL     1      34.217 -19.754 -20.650  0.00  0.00    +0.072 C 
ATOM     16  C   UNL     1      36.784 -20.722 -20.203  0.00  0.00    +0.059 C 
ATOM     17  C   UNL     1      34.397 -20.994 -20.183  0.00  0.00    +0.017 C 
ATOM     18  C   UNL     1      35.721 -21.492 -19.961  0.00  0.00    +0.006 C 
ENDBRANCH   9  13
ENDBRANCH   2   6
BRANCH   3  19
ATOM     19  C   UNL     1      33.292 -11.627 -23.575  0.00  0.00    +0.010 C 
BRANCH  19  20
ATOM     20  N   UNL     1      32.351 -10.681 -22.995  0.00  0.00    +0.394 N 
ATOM     21  C   UNL     1      31.478  -8.524 -22.863  0.00  0.00    +0.049 C 
ATOM     22  C   UNL     1      31.913  -8.964 -21.463  0.00  0.00    -0.005 C 
ATOM     23  C   UNL     1      32.195  -9.477 -23.814  0.00  0.00    -0.057 C 
ATOM     24  C   UNL     1      32.788 -10.191 -21.687  0.00  0.00    -0.075 C 
ATOM     25  H   UNL     1      31.480 -11.207 -22.929  0.00  0.00    -0.079 HD
BRANCH  21  27
ATOM     26  O   UNL     1      30.233  -6.222 -21.683  0.00  0.00    -0.270 OA
ATOM     27  N   UNL     1      31.785  -7.147 -23.137  0.00  0.00    -0.304 N 
ATOM     28  C   UNL     1      31.127  -6.093 -22.516  0.00  0.00    +0.252 C 
ATOM     29  H   UNL     1      32.491  -6.943 -23.793  0.00  0.00    +0.150 HD
BRANCH  28  32
ATOM     30 CL   UNL     1      33.010  -1.804 -25.458  0.00  0.00    -0.075 Cl
ATOM     31  S   UNL     1      32.152  -4.483 -24.510  0.00  0.00    -0.071 S 
ATOM     32  C   UNL     1      31.544  -4.727 -22.928  0.00  0.00    +0.084 C 
ATOM     33  C   UNL     1      31.516  -3.559 -22.199  0.00  0.00    +0.012 C 
ATOM     34  C   UNL     1      32.000  -2.449 -22.950  0.00  0.00    +0.019 C 
ATOM     35  C   UNL     1      32.379  -2.810 -24.223  0.00  0.00    +0.087 C 
ENDBRANCH  28  32
ENDBRANCH  21  27
ENDBRANCH  19  20
ENDBRANCH   3  19
TORSDOF 6
ENDMDL
MODEL 7
REMARK VINA RESULT:     -11.0      5.047     12.520
REMARK  Name = 42628060
REMARK  6 active torsions:
REMARK  status: ('A' for Active; 'I' for Inactive)
REMARK    1  A    between atoms: N_2  and  C_6
REMARK    2  A    between atoms: C_3  and  C_19
REMARK    3  A    between atoms: C_9  and  N_13
REMARK    4  A    between atoms: C_19  and  N_20
REMARK    5  A    between atoms: C_21  and  N_27
REMARK    6  A    between atoms: C_28  and  C_32
REMARK                            x       y       z     vdW  Elec       q    Type
REMARK                         _______ _______ _______ _____ _____    ______ ____
ROOT
ATOM      1  O   UNL     1      33.382 -13.825 -25.843  0.00  0.00    -0.277 OA
ATOM      2  N   UNL     1      33.060 -14.127 -23.537  0.00  0.00    -0.284 N 
ATOM      3  C   UNL     1      33.312 -14.535 -24.845  0.00  0.00    +0.205 C 
ATOM      4  H   UNL     1      33.035 -14.838 -22.857  0.00  0.00    +0.155 HD
ENDROOT
BRANCH   2   6
ATOM      5  F   UNL     1      31.600 -13.628 -21.217  0.00  0.00    -0.203 F 
ATOM      6  C   UNL     1      32.837 -12.810 -23.072  0.00  0.00    +0.078 C 
ATOM      7  C   UNL     1      32.101 -12.594 -21.907  0.00  0.00    +0.155 C 
ATOM      8  C   UNL     1      33.351 -11.725 -23.783  0.00  0.00    +0.018 C 
ATOM      9  C   UNL     1      32.396 -10.210 -22.162  0.00  0.00    +0.061 C 
ATOM     10  C   UNL     1      31.881 -11.293 -21.452  0.00  0.00    +0.046 C 
ATOM     11  C   UNL     1      33.131 -10.425 -23.327  0.00  0.00    +0.017 C 
BRANCH   9  13
ATOM     12  O   UNL     1      30.662  -8.269 -23.426  0.00  0.00    -0.269 OA
ATOM     13  N   UNL     1      32.166  -8.858 -21.690  0.00  0.00    -0.233 N 
ATOM     14  C   UNL     1      31.321  -7.987 -22.424  0.00  0.00    +0.257 C 
ATOM     15  C   UNL     1      32.755  -8.412 -20.505  0.00  0.00    +0.072 C 
ATOM     16  C   UNL     1      31.175  -6.596 -21.893  0.00  0.00    +0.059 C 
ATOM     17  C   UNL     1      32.582  -7.173 -20.033  0.00  0.00    +0.017 C 
ATOM     18  C   UNL     1      31.773  -6.237 -20.754  0.00  0.00    +0.006 C 
ENDBRANCH   9  13
ENDBRANCH   2   6
BRANCH   3  19
ATOM     19  C   UNL     1      33.494 -16.043 -24.899  0.00  0.00    +0.010 C 
BRANCH  19  20
ATOM     20  N   UNL     1      34.621 -16.425 -24.062  0.00  0.00    +0.394 N 
ATOM     21  C   UNL     1      35.623 -17.921 -22.582  0.00  0.00    +0.049 C 
ATOM     22  C   UNL     1      35.603 -16.532 -21.938  0.00  0.00    -0.005 C 
ATOM     23  C   UNL     1      34.597 -17.845 -23.708  0.00  0.00    -0.057 C 
ATOM     24  C   UNL     1      34.629 -15.719 -22.781  0.00  0.00    -0.075 C 
ATOM     25  H   UNL     1      35.438 -16.191 -24.626  0.00  0.00    -0.079 HD
BRANCH  21  27
ATOM     26  O   UNL     1      37.428 -19.055 -20.659  0.00  0.00    -0.270 OA
ATOM     27  N   UNL     1      35.332 -18.974 -21.649  0.00  0.00    -0.304 N 
ATOM     28  C   UNL     1      36.272 -19.463 -20.750  0.00  0.00    +0.252 C 
ATOM     29  H   UNL     1      34.429 -19.366 -21.647  0.00  0.00    +0.150 HD
BRANCH  28  32
ATOM     30 CL   UNL     1      33.140 -23.202 -18.142  0.00  0.00    -0.075 Cl
ATOM     31  S   UNL     1      34.165 -21.002 -19.852  0.00  0.00    -0.071 S 
ATOM     32  C   UNL     1      35.822 -20.572 -19.870  0.00  0.00    +0.084 C 
ATOM     33  C   UNL     1      36.569 -21.355 -19.017  0.00  0.00    +0.012 C 
ATOM     34  C   UNL     1      35.769 -22.321 -18.340  0.00  0.00    +0.019 C 
ATOM     35  C   UNL     1      34.443 -22.239 -18.701  0.00  0.00    +0.087 C 
ENDBRANCH  28  32
ENDBRANCH  21  27
ENDBRANCH  19  20
ENDBRANCH   3  19
TORSDOF 6
ENDMDL
MODEL 8
REMARK VINA RESULT:     -10.8      5.443     13.398
REMARK  Name = 42628060
REMARK  6 active torsions:
REMARK  status: ('A' for Active; 'I' for Inactive)
REMARK    1  A    between atoms: N_2  and  C_6
REMARK    2  A    between atoms: C_3  and  C_19
REMARK    3  A    between atoms: C_9  and  N_13
REMARK    4  A    between atoms: C_19  and  N_20
REMARK    5  A    between atoms: C_21  and  N_27
REMARK    6  A    between atoms: C_28  and  C_32
REMARK                            x       y       z     vdW  Elec       q    Type
REMARK                         _______ _______ _______ _____ _____    ______ ____
ROOT
ATOM      1  O   UNL     1      33.163 -13.088 -25.666  0.00  0.00    -0.277 OA
ATOM      2  N   UNL     1      33.234 -12.860 -23.330  0.00  0.00    -0.284 N 
ATOM      3  C   UNL     1      33.296 -13.552 -24.538  0.00  0.00    +0.205 C 
ATOM      4  H   UNL     1      33.360 -13.397 -22.515  0.00  0.00    +0.155 HD
ENDROOT
BRANCH   2   6
ATOM      5  F   UNL     1      30.902 -11.912 -22.137  0.00  0.00    -0.203 F 
ATOM      6  C   UNL     1      33.011 -11.476 -23.139  0.00  0.00    +0.078 C 
ATOM      7  C   UNL     1      31.832 -11.034 -22.538  0.00  0.00    +0.155 C 
ATOM      8  C   UNL     1      33.971 -10.553 -23.554  0.00  0.00    +0.018 C 
ATOM      9  C   UNL     1      32.574  -8.746 -22.767  0.00  0.00    +0.061 C 
ATOM     10  C   UNL     1      31.614  -9.668 -22.352  0.00  0.00    +0.046 C 
ATOM     11  C   UNL     1      33.753  -9.188 -23.368  0.00  0.00    +0.017 C 
BRANCH   9  13
ATOM     12  O   UNL     1      33.153  -7.275 -20.346  0.00  0.00    -0.269 OA
ATOM     13  N   UNL     1      32.348  -7.327 -22.575  0.00  0.00    -0.233 N 
ATOM     14  C   UNL     1      32.637  -6.729 -21.321  0.00  0.00    +0.257 C 
ATOM     15  C   UNL     1      31.866  -6.538 -23.622  0.00  0.00    +0.072 C 
ATOM     16  C   UNL     1      32.331  -5.270 -21.193  0.00  0.00    +0.059 C 
ATOM     17  C   UNL     1      31.632  -5.228 -23.491  0.00  0.00    +0.017 C 
ATOM     18  C   UNL     1      31.866  -4.579 -22.236  0.00  0.00    +0.006 C 
ENDBRANCH   9  13
ENDBRANCH   2   6
BRANCH   3  19
ATOM     19  C   UNL     1      33.555 -15.028 -24.286  0.00  0.00    +0.010 C 
BRANCH  19  20
ATOM     20  N   UNL     1      34.410 -15.176 -23.117  0.00  0.00    +0.394 N 
ATOM     21  C   UNL     1      35.383 -16.525 -21.484  0.00  0.00    +0.049 C 
ATOM     22  C   UNL     1      34.621 -15.391 -20.794  0.00  0.00    -0.005 C 
ATOM     23  C   UNL     1      34.827 -16.563 -22.904  0.00  0.00    -0.057 C 
ATOM     24  C   UNL     1      33.732 -14.793 -21.878  0.00  0.00    -0.075 C 
ATOM     25  H   UNL     1      35.205 -14.570 -23.314  0.00  0.00    -0.079 HD
BRANCH  21  27
ATOM     26  O   UNL     1      37.075 -18.826 -21.777  0.00  0.00    -0.270 OA
ATOM     27  N   UNL     1      35.242 -17.786 -20.809  0.00  0.00    -0.304 N 
ATOM     28  C   UNL     1      36.112 -18.849 -21.014  0.00  0.00    +0.252 C 
ATOM     29  H   UNL     1      34.496 -17.901 -20.176  0.00  0.00    +0.150 HD
BRANCH  28  32
ATOM     30 CL   UNL     1      33.470 -23.124 -18.702  0.00  0.00    -0.075 Cl
ATOM     31  S   UNL     1      34.196 -20.648 -20.172  0.00  0.00    -0.071 S 
ATOM     32  C   UNL     1      35.814 -20.094 -20.260  0.00  0.00    +0.084 C 
ATOM     33  C   UNL     1      36.682 -20.922 -19.582  0.00  0.00    +0.012 C 
ATOM     34  C   UNL     1      36.009 -22.026 -18.982  0.00  0.00    +0.019 C 
ATOM     35  C   UNL     1      34.653 -22.000 -19.225  0.00  0.00    +0.087 C 
ENDBRANCH  28  32
ENDBRANCH  21  27
ENDBRANCH  19  20
ENDBRANCH   3  19
TORSDOF 6
ENDMDL
MODEL 9
REMARK VINA RESULT:     -10.7      5.147     12.518
REMARK  Name = 42628060
REMARK  6 active torsions:
REMARK  status: ('A' for Active; 'I' for Inactive)
REMARK    1  A    between atoms: N_2  and  C_6
REMARK    2  A    between atoms: C_3  and  C_19
REMARK    3  A    between atoms: C_9  and  N_13
REMARK    4  A    between atoms: C_19  and  N_20
REMARK    5  A    between atoms: C_21  and  N_27
REMARK    6  A    between atoms: C_28  and  C_32
REMARK                            x       y       z     vdW  Elec       q    Type
REMARK                         _______ _______ _______ _____ _____    ______ ____
ROOT
ATOM      1  O   UNL     1      35.321 -14.899 -22.917  0.00  0.00    -0.277 OA
ATOM      2  N   UNL     1      33.073 -14.576 -23.516  0.00  0.00    -0.284 N 
ATOM      3  C   UNL     1      34.268 -15.286 -23.414  0.00  0.00    +0.205 C 
ATOM      4  H   UNL     1      32.326 -15.044 -23.953  0.00  0.00    +0.155 HD
ENDROOT
BRANCH   2   6
ATOM      5  F   UNL     1      34.299 -12.363 -24.683  0.00  0.00    -0.203 F 
ATOM      6  C   UNL     1      32.810 -13.262 -23.065  0.00  0.00    +0.078 C 
ATOM      7  C   UNL     1      33.441 -12.175 -23.671  0.00  0.00    +0.155 C 
ATOM      8  C   UNL     1      31.920 -13.053 -22.012  0.00  0.00    +0.018 C 
ATOM      9  C   UNL     1      32.290 -10.671 -22.170  0.00  0.00    +0.061 C 
ATOM     10  C   UNL     1      33.180 -10.879 -23.223  0.00  0.00    +0.046 C 
ATOM     11  C   UNL     1      31.659 -11.757 -21.564  0.00  0.00    +0.017 C 
BRANCH   9  13
ATOM     12  O   UNL     1      31.026  -8.586 -23.726  0.00  0.00    -0.269 OA
ATOM     13  N   UNL     1      32.020  -9.325 -21.704  0.00  0.00    -0.233 N 
ATOM     14  C   UNL     1      31.429  -8.379 -22.581  0.00  0.00    +0.257 C 
ATOM     15  C   UNL     1      32.317  -8.957 -20.389  0.00  0.00    +0.072 C 
ATOM     16  C   UNL     1      31.226  -7.000 -22.034  0.00  0.00    +0.059 C 
ATOM     17  C   UNL     1      32.096  -7.726 -19.916  0.00  0.00    +0.017 C 
ATOM     18  C   UNL     1      31.540  -6.719 -20.768  0.00  0.00    +0.006 C 
ENDBRANCH   9  13
ENDBRANCH   2   6
BRANCH   3  19
ATOM     19  C   UNL     1      34.113 -16.667 -24.030  0.00  0.00    +0.010 C 
BRANCH  19  20
ATOM     20  N   UNL     1      35.028 -17.592 -23.379  0.00  0.00    +0.394 N 
ATOM     21  C   UNL     1      35.394 -19.456 -22.027  0.00  0.00    +0.049 C 
ATOM     22  C   UNL     1      36.167 -18.269 -21.447  0.00  0.00    -0.005 C 
ATOM     23  C   UNL     1      34.367 -18.833 -22.967  0.00  0.00    -0.057 C 
ATOM     24  C   UNL     1      35.594 -17.043 -22.147  0.00  0.00    -0.075 C 
ATOM     25  H   UNL     1      35.747 -17.764 -24.080  0.00  0.00    -0.079 HD
BRANCH  21  27
ATOM     26  O   UNL     1      36.723 -20.764 -19.844  0.00  0.00    -0.270 OA
ATOM     27  N   UNL     1      34.782 -20.273 -21.016  0.00  0.00    -0.304 N 
ATOM     28  C   UNL     1      35.507 -20.870 -19.992  0.00  0.00    +0.252 C 
ATOM     29  H   UNL     1      33.808 -20.417 -21.051  0.00  0.00    +0.150 HD
BRANCH  28  32
ATOM     30 CL   UNL     1      34.086 -24.065 -15.706  0.00  0.00    -0.075 Cl
ATOM     31  S   UNL     1      35.526 -22.383 -17.684  0.00  0.00    -0.071 S 
ATOM     32  C   UNL     1      34.731 -21.706 -19.040  0.00  0.00    +0.084 C 
ATOM     33  C   UNL     1      33.395 -22.042 -19.077  0.00  0.00    +0.012 C 
ATOM     34  C   UNL     1      33.021 -22.866 -17.977  0.00  0.00    +0.019 C 
ATOM     35  C   UNL     1      34.083 -23.128 -17.141  0.00  0.00    +0.087 C 
ENDBRANCH  28  32
ENDBRANCH  21  27
ENDBRANCH  19  20
ENDBRANCH   3  19
TORSDOF 6
ENDMDL
