MODEL 1
REMARK VINA RESULT:     -11.9      0.000      0.000
REMARK  Name = 11524144
REMARK  6 active torsions:
REMARK  status: ('A' for Active; 'I' for Inactive)
REMARK    1  A    between atoms: C_1  and  O_22
REMARK    2  A    between atoms: C_2  and  C_10
REMARK    3  A    between atoms: C_12  and  C_17
REMARK    4  A    between atoms: O_22  and  C_23
REMARK    5  A    between atoms: C_23  and  C_24
REMARK    6  A    between atoms: C_24  and  N_25
REMARK                            x       y       z     vdW  Elec       q    Type
REMARK                         _______ _______ _______ _____ _____    ______ ____
ROOT
ATOM      1  C   UNL     1      34.417 -24.104 -15.613  0.00  0.00    +0.138 C 
ATOM      2  C   UNL     1      34.872 -22.382 -17.748  0.00  0.00    -0.001 C 
ATOM      3  C   UNL     1      33.451 -23.965 -16.603  0.00  0.00    +0.037 C 
ATOM      4  C   UNL     1      35.609 -23.391 -15.681  0.00  0.00    +0.037 C 
ATOM      5  C   UNL     1      33.679 -23.100 -17.674  0.00  0.00    +0.003 C 
ATOM      6  C   UNL     1      35.837 -22.527 -16.752  0.00  0.00    +0.003 C 
ENDROOT
BRANCH   2  10
ATOM      7  N   UNL     1      36.460 -20.052 -20.232  0.00  0.00    -0.193 N 
ATOM      8  N   UNL     1      34.140 -20.236 -20.830  0.00  0.00    -0.231 NA
ATOM      9  N   UNL     1      37.597 -19.425 -20.633  0.00  0.00    -0.179 NA
ATOM     10  C   UNL     1      35.112 -21.470 -18.877  0.00  0.00    +0.019 C 
ATOM     11  C   UNL     1      35.381 -19.722 -21.049  0.00  0.00    +0.137 C 
ATOM     12  C   UNL     1      35.866 -18.853 -22.001  0.00  0.00    +0.121 C 
ATOM     13  C   UNL     1      36.306 -20.923 -19.155  0.00  0.00    +0.145 C 
ATOM     14  C   UNL     1      34.029 -21.046 -19.819  0.00  0.00    +0.097 C 
ATOM     15  C   UNL     1      37.226 -18.710 -21.695  0.00  0.00    +0.103 C 
BRANCH  12  17
ATOM     16  N   UNL     1      33.531 -17.123 -25.076  0.00  0.00    -0.242 NA
ATOM     17  C   UNL     1      35.077 -18.269 -23.042  0.00  0.00    -0.007 C 
ATOM     18  C   UNL     1      35.131 -16.897 -23.277  0.00  0.00    +0.017 C 
ATOM     19  C   UNL     1      34.248 -19.065 -23.826  0.00  0.00    +0.017 C 
ATOM     20  C   UNL     1      34.347 -16.380 -24.296  0.00  0.00    +0.099 C 
ATOM     21  C   UNL     1      33.503 -18.450 -24.820  0.00  0.00    +0.099 C 
ENDBRANCH  12  17
ENDBRANCH   2  10
BRANCH   1  22
ATOM     22  O   UNL     1      34.194 -24.953 -14.561  0.00  0.00    -0.478 OA
BRANCH  22  23
ATOM     23  C   UNL     1      33.447 -24.437 -13.468  0.00  0.00    +0.183 C 
BRANCH  23  24
ATOM     24  C   UNL     1      32.151 -25.223 -13.346  0.00  0.00    -0.029 C 
BRANCH  24  25
ATOM     25  N   UNL     1      31.181 -24.777 -14.347  0.00  0.00    +0.389 N 
ATOM     26  C   UNL     1      30.004 -25.657 -14.350  0.00  0.00    -0.077 C 
ATOM     27  C   UNL     1      30.799 -23.379 -14.104  0.00  0.00    -0.077 C 
ATOM     28  C   UNL     1      29.001 -25.233 -15.424  0.00  0.00    -0.023 C 
ATOM     29  C   UNL     1      29.823 -22.881 -15.170  0.00  0.00    -0.023 C 
ATOM     30  C   UNL     1      28.591 -23.774 -15.255  0.00  0.00    -0.004 C 
ATOM     31  H   UNL     1      31.615 -24.829 -15.268  0.00  0.00    -0.080 HD
ENDBRANCH  24  25
ENDBRANCH  23  24
ENDBRANCH  22  23
ENDBRANCH   1  22
TORSDOF 6
ENDMDL
MODEL 2
REMARK VINA RESULT:     -11.6      3.520      9.951
REMARK  Name = 11524144
REMARK  6 active torsions:
REMARK  status: ('A' for Active; 'I' for Inactive)
REMARK    1  A    between atoms: C_1  and  O_22
REMARK    2  A    between atoms: C_2  and  C_10
REMARK    3  A    between atoms: C_12  and  C_17
REMARK    4  A    between atoms: O_22  and  C_23
REMARK    5  A    between atoms: C_23  and  C_24
REMARK    6  A    between atoms: C_24  and  N_25
REMARK                            x       y       z     vdW  Elec       q    Type
REMARK                         _______ _______ _______ _____ _____    ______ ____
ROOT
ATOM      1  C   UNL     1      34.898 -17.812 -23.510  0.00  0.00    +0.138 C 
ATOM      2  C   UNL     1      34.777 -19.579 -21.367  0.00  0.00    -0.001 C 
ATOM      3  C   UNL     1      34.201 -19.008 -23.643  0.00  0.00    +0.037 C 
ATOM      4  C   UNL     1      35.534 -17.491 -22.317  0.00  0.00    +0.037 C 
ATOM      5  C   UNL     1      34.141 -19.895 -22.568  0.00  0.00    +0.003 C 
ATOM      6  C   UNL     1      35.474 -18.378 -21.242  0.00  0.00    +0.003 C 
ENDROOT
BRANCH   2  10
ATOM      7  N   UNL     1      33.591 -21.960 -18.714  0.00  0.00    -0.193 N 
ATOM      8  N   UNL     1      35.959 -21.697 -18.408  0.00  0.00    -0.231 NA
ATOM      9  N   UNL     1      32.532 -22.616 -18.169  0.00  0.00    -0.179 NA
ATOM     10  C   UNL     1      34.714 -20.515 -20.234  0.00  0.00    +0.019 C 
ATOM     11  C   UNL     1      34.772 -22.247 -18.033  0.00  0.00    +0.137 C 
ATOM     12  C   UNL     1      34.436 -23.119 -17.022  0.00  0.00    +0.121 C 
ATOM     13  C   UNL     1      33.582 -21.096 -19.806  0.00  0.00    +0.145 C 
ATOM     14  C   UNL     1      35.919 -20.895 -19.430  0.00  0.00    +0.097 C 
ATOM     15  C   UNL     1      33.054 -23.307 -17.156  0.00  0.00    +0.103 C 
BRANCH  12  17
ATOM     16  N   UNL     1      37.182 -24.731 -14.236  0.00  0.00    -0.242 NA
ATOM     17  C   UNL     1      35.366 -23.664 -16.080  0.00  0.00    -0.007 C 
ATOM     18  C   UNL     1      35.025 -24.785 -15.326  0.00  0.00    +0.017 C 
ATOM     19  C   UNL     1      36.617 -23.079 -15.909  0.00  0.00    +0.017 C 
ATOM     20  C   UNL     1      35.959 -25.274 -14.427  0.00  0.00    +0.099 C 
ATOM     21  C   UNL     1      37.480 -23.645 -14.984  0.00  0.00    +0.099 C 
ENDBRANCH  12  17
ENDBRANCH   2  10
BRANCH   1  22
ATOM     22  O   UNL     1      34.957 -16.941 -24.566  0.00  0.00    -0.478 OA
BRANCH  22  23
ATOM     23  C   UNL     1      34.008 -15.883 -24.578  0.00  0.00    +0.183 C 
BRANCH  23  24
ATOM     24  C   UNL     1      34.481 -14.791 -23.632  0.00  0.00    -0.029 C 
BRANCH  24  25
ATOM     25  N   UNL     1      33.402 -14.383 -22.733  0.00  0.00    +0.389 N 
ATOM     26  C   UNL     1      33.809 -14.554 -21.331  0.00  0.00    -0.077 C 
ATOM     27  C   UNL     1      33.004 -12.995 -23.005  0.00  0.00    -0.077 C 
ATOM     28  C   UNL     1      32.674 -14.179 -20.377  0.00  0.00    -0.023 C 
ATOM     29  C   UNL     1      31.843 -12.568 -22.106  0.00  0.00    -0.023 C 
ATOM     30  C   UNL     1      32.182 -12.758 -20.632  0.00  0.00    -0.004 C 
ATOM     31  H   UNL     1      32.594 -14.981 -22.901  0.00  0.00    -0.080 HD
ENDBRANCH  24  25
ENDBRANCH  23  24
ENDBRANCH  22  23
ENDBRANCH   1  22
TORSDOF 6
ENDMDL
MODEL 3
REMARK VINA RESULT:     -11.6      3.102     10.517
REMARK  Name = 11524144
REMARK  6 active torsions:
REMARK  status: ('A' for Active; 'I' for Inactive)
REMARK    1  A    between atoms: C_1  and  O_22
REMARK    2  A    between atoms: C_2  and  C_10
REMARK    3  A    between atoms: C_12  and  C_17
REMARK    4  A    between atoms: O_22  and  C_23
REMARK    5  A    between atoms: C_23  and  C_24
REMARK    6  A    between atoms: C_24  and  N_25
REMARK                            x       y       z     vdW  Elec       q    Type
REMARK                         _______ _______ _______ _____ _____    ______ ____
ROOT
ATOM      1  C   UNL     1      34.319 -20.130 -21.311  0.00  0.00    +0.138 C 
ATOM      2  C   UNL     1      34.451 -21.617 -18.967  0.00  0.00    -0.001 C 
ATOM      3  C   UNL     1      35.557 -20.504 -20.803  0.00  0.00    +0.037 C 
ATOM      4  C   UNL     1      33.146 -20.492 -20.660  0.00  0.00    +0.037 C 
ATOM      5  C   UNL     1      35.624 -21.250 -19.626  0.00  0.00    +0.003 C 
ATOM      6  C   UNL     1      33.213 -21.239 -19.483  0.00  0.00    +0.003 C 
ENDROOT
BRANCH   2  10
ATOM      7  N   UNL     1      33.588 -23.672 -15.942  0.00  0.00    -0.193 N 
ATOM      8  N   UNL     1      35.963 -23.314 -15.889  0.00  0.00    -0.231 NA
ATOM      9  N   UNL     1      32.605 -24.279 -15.226  0.00  0.00    -0.179 NA
ATOM     10  C   UNL     1      34.521 -22.403 -17.726  0.00  0.00    +0.019 C 
ATOM     11  C   UNL     1      34.833 -23.841 -15.342  0.00  0.00    +0.137 C 
ATOM     12  C   UNL     1      34.619 -24.586 -14.204  0.00  0.00    +0.121 C 
ATOM     13  C   UNL     1      33.452 -22.953 -17.127  0.00  0.00    +0.145 C 
ATOM     14  C   UNL     1      35.804 -22.650 -16.994  0.00  0.00    +0.097 C 
ATOM     15  C   UNL     1      33.238 -24.823 -14.186  0.00  0.00    +0.103 C 
BRANCH  12  17
ATOM     16  N   UNL     1      37.658 -25.763 -11.505  0.00  0.00    -0.242 NA
ATOM     17  C   UNL     1      35.646 -24.985 -13.291  0.00  0.00    -0.007 C 
ATOM     18  C   UNL     1      35.750 -24.378 -12.042  0.00  0.00    +0.017 C 
ATOM     19  C   UNL     1      36.552 -25.982 -13.645  0.00  0.00    +0.017 C 
ATOM     20  C   UNL     1      36.763 -24.799 -11.195  0.00  0.00    +0.099 C 
ATOM     21  C   UNL     1      37.528 -26.331 -12.725  0.00  0.00    +0.099 C 
ENDBRANCH  12  17
ENDBRANCH   2  10
BRANCH   1  22
ATOM     22  O   UNL     1      34.254 -19.397 -22.468  0.00  0.00    -0.478 OA
BRANCH  22  23
ATOM     23  C   UNL     1      35.024 -18.203 -22.515  0.00  0.00    +0.183 C 
BRANCH  23  24
ATOM     24  C   UNL     1      34.976 -17.646 -23.929  0.00  0.00    -0.029 C 
BRANCH  24  25
ATOM     25  N   UNL     1      34.766 -16.199 -23.907  0.00  0.00    +0.389 N 
ATOM     26  C   UNL     1      33.614 -15.833 -24.744  0.00  0.00    -0.077 C 
ATOM     27  C   UNL     1      34.590 -15.727 -22.526  0.00  0.00    -0.077 C 
ATOM     28  C   UNL     1      33.410 -14.318 -24.770  0.00  0.00    -0.023 C 
ATOM     29  C   UNL     1      34.418 -14.208 -22.480  0.00  0.00    -0.023 C 
ATOM     30  C   UNL     1      33.260 -13.753 -23.361  0.00  0.00    -0.004 C 
ATOM     31  H   UNL     1      35.592 -15.742 -24.293  0.00  0.00    -0.080 HD
ENDBRANCH  24  25
ENDBRANCH  23  24
ENDBRANCH  22  23
ENDBRANCH   1  22
TORSDOF 6
ENDMDL
MODEL 4
REMARK VINA RESULT:     -11.4      3.552     10.222
REMARK  Name = 11524144
REMARK  6 active torsions:
REMARK  status: ('A' for Active; 'I' for Inactive)
REMARK    1  A    between atoms: C_1  and  O_22
REMARK    2  A    between atoms: C_2  and  C_10
REMARK    3  A    between atoms: C_12  and  C_17
REMARK    4  A    between atoms: O_22  and  C_23
REMARK    5  A    between atoms: C_23  and  C_24
REMARK    6  A    between atoms: C_24  and  N_25
REMARK                            x       y       z     vdW  Elec       q    Type
REMARK                         _______ _______ _______ _____ _____    ______ ____
ROOT
ATOM      1  C   UNL     1      35.751 -19.165 -22.041  0.00  0.00    +0.138 C 
ATOM      2  C   UNL     1      35.811 -20.708 -19.729  0.00  0.00    -0.001 C 
ATOM      3  C   UNL     1      36.922 -19.243 -21.296  0.00  0.00    +0.037 C 
ATOM      4  C   UNL     1      34.610 -19.851 -21.641  0.00  0.00    +0.037 C 
ATOM      5  C   UNL     1      36.952 -20.017 -20.136  0.00  0.00    +0.003 C 
ATOM      6  C   UNL     1      34.640 -20.625 -20.481  0.00  0.00    +0.003 C 
ENDROOT
BRANCH   2  10
ATOM      7  N   UNL     1      34.941 -23.081 -16.949  0.00  0.00    -0.193 N 
ATOM      8  N   UNL     1      37.098 -22.159 -16.430  0.00  0.00    -0.231 NA
ATOM      9  N   UNL     1      34.026 -23.950 -16.444  0.00  0.00    -0.179 NA
ATOM     10  C   UNL     1      35.843 -21.523 -18.505  0.00  0.00    +0.019 C 
ATOM     11  C   UNL     1      36.055 -22.975 -16.119  0.00  0.00    +0.137 C 
ATOM     12  C   UNL     1      35.825 -23.814 -15.052  0.00  0.00    +0.121 C 
ATOM     13  C   UNL     1      34.853 -22.350 -18.132  0.00  0.00    +0.145 C 
ATOM     14  C   UNL     1      36.987 -21.490 -17.540  0.00  0.00    +0.097 C 
ATOM     15  C   UNL     1      34.570 -24.382 -15.306  0.00  0.00    +0.103 C 
BRANCH  12  17
ATOM     16  N   UNL     1      38.503 -24.374 -11.824  0.00  0.00    -0.242 NA
ATOM     17  C   UNL     1      36.731 -24.003 -13.960  0.00  0.00    -0.007 C 
ATOM     18  C   UNL     1      37.800 -24.887 -14.079  0.00  0.00    +0.017 C 
ATOM     19  C   UNL     1      36.550 -23.305 -12.769  0.00  0.00    +0.017 C 
ATOM     20  C   UNL     1      38.648 -25.035 -12.994  0.00  0.00    +0.099 C 
ATOM     21  C   UNL     1      37.455 -23.523 -11.742  0.00  0.00    +0.099 C 
ENDBRANCH  12  17
ENDBRANCH   2  10
BRANCH   1  22
ATOM     22  O   UNL     1      35.721 -18.405 -23.181  0.00  0.00    -0.478 OA
BRANCH  22  23
ATOM     23  C   UNL     1      34.609 -17.535 -23.343  0.00  0.00    +0.183 C 
BRANCH  23  24
ATOM     24  C   UNL     1      35.102 -16.211 -23.907  0.00  0.00    -0.029 C 
BRANCH  24  25
ATOM     25  N   UNL     1      34.706 -15.102 -23.040  0.00  0.00    +0.389 N 
ATOM     26  C   UNL     1      33.451 -14.501 -23.516  0.00  0.00    -0.077 C 
ATOM     27  C   UNL     1      34.583 -15.556 -21.648  0.00  0.00    -0.077 C 
ATOM     28  C   UNL     1      33.047 -13.307 -22.649  0.00  0.00    -0.023 C 
ATOM     29  C   UNL     1      34.217 -14.396 -20.720  0.00  0.00    -0.023 C 
ATOM     30  C   UNL     1      32.941 -13.700 -21.179  0.00  0.00    -0.004 C 
ATOM     31  H   UNL     1      35.430 -14.385 -23.075  0.00  0.00    -0.080 HD
ENDBRANCH  24  25
ENDBRANCH  23  24
ENDBRANCH  22  23
ENDBRANCH   1  22
TORSDOF 6
ENDMDL
MODEL 5
REMARK VINA RESULT:     -11.4      6.900     13.119
REMARK  Name = 11524144
REMARK  6 active torsions:
REMARK  status: ('A' for Active; 'I' for Inactive)
REMARK    1  A    between atoms: C_1  and  O_22
REMARK    2  A    between atoms: C_2  and  C_10
REMARK    3  A    between atoms: C_12  and  C_17
REMARK    4  A    between atoms: O_22  and  C_23
REMARK    5  A    between atoms: C_23  and  C_24
REMARK    6  A    between atoms: C_24  and  N_25
REMARK                            x       y       z     vdW  Elec       q    Type
REMARK                         _______ _______ _______ _____ _____    ______ ____
ROOT
ATOM      1  C   UNL     1      31.785  -9.949 -22.276  0.00  0.00    +0.138 C 
ATOM      2  C   UNL     1      32.879 -12.502 -22.400  0.00  0.00    -0.001 C 
ATOM      3  C   UNL     1      31.421 -10.901 -21.330  0.00  0.00    +0.037 C 
ATOM      4  C   UNL     1      32.691 -10.261 -23.283  0.00  0.00    +0.037 C 
ATOM      5  C   UNL     1      31.970 -12.182 -21.393  0.00  0.00    +0.003 C 
ATOM      6  C   UNL     1      33.240 -11.542 -23.345  0.00  0.00    +0.003 C 
ENDROOT
BRANCH   2  10
ATOM      7  N   UNL     1      34.139 -15.834 -23.595  0.00  0.00    -0.193 N 
ATOM      8  N   UNL     1      34.435 -15.789 -21.211  0.00  0.00    -0.231 NA
ATOM      9  N   UNL     1      34.341 -16.655 -24.659  0.00  0.00    -0.179 NA
ATOM     10  C   UNL     1      33.457 -13.852 -22.467  0.00  0.00    +0.019 C 
ATOM     11  C   UNL     1      34.547 -16.433 -22.405  0.00  0.00    +0.137 C 
ATOM     12  C   UNL     1      35.024 -17.679 -22.741  0.00  0.00    +0.121 C 
ATOM     13  C   UNL     1      33.599 -14.550 -23.606  0.00  0.00    +0.145 C 
ATOM     14  C   UNL     1      33.928 -14.593 -21.254  0.00  0.00    +0.097 C 
ATOM     15  C   UNL     1      34.873 -17.758 -24.132  0.00  0.00    +0.103 C 
BRANCH  12  17
ATOM     16  N   UNL     1      36.558 -20.482 -19.967  0.00  0.00    -0.242 NA
ATOM     17  C   UNL     1      35.544 -18.628 -21.803  0.00  0.00    -0.007 C 
ATOM     18  C   UNL     1      34.709 -19.596 -21.249  0.00  0.00    +0.017 C 
ATOM     19  C   UNL     1      36.886 -18.590 -21.436  0.00  0.00    +0.017 C 
ATOM     20  C   UNL     1      35.260 -20.490 -20.345  0.00  0.00    +0.099 C 
ATOM     21  C   UNL     1      37.339 -19.530 -20.524  0.00  0.00    +0.099 C 
ENDBRANCH  12  17
ENDBRANCH   2  10
BRANCH   1  22
ATOM     22  O   UNL     1      31.246  -8.690 -22.214  0.00  0.00    -0.478 OA
BRANCH  22  23
ATOM     23  C   UNL     1      31.624  -7.885 -21.105  0.00  0.00    +0.183 C 
BRANCH  23  24
ATOM     24  C   UNL     1      32.135  -6.549 -21.624  0.00  0.00    -0.029 C 
BRANCH  24  25
ATOM     25  N   UNL     1      32.994  -6.744 -22.791  0.00  0.00    +0.389 N 
ATOM     26  C   UNL     1      33.025  -5.527 -23.615  0.00  0.00    -0.077 C 
ATOM     27  C   UNL     1      34.347  -7.137 -22.373  0.00  0.00    -0.077 C 
ATOM     28  C   UNL     1      33.881  -5.729 -24.866  0.00  0.00    -0.023 C 
ATOM     29  C   UNL     1      35.246  -7.392 -23.583  0.00  0.00    -0.023 C 
ATOM     30  C   UNL     1      35.293  -6.179 -24.505  0.00  0.00    -0.004 C 
ATOM     31  H   UNL     1      32.609  -7.498 -23.359  0.00  0.00    -0.080 HD
ENDBRANCH  24  25
ENDBRANCH  23  24
ENDBRANCH  22  23
ENDBRANCH   1  22
TORSDOF 6
ENDMDL
MODEL 6
REMARK VINA RESULT:     -11.4      5.902      9.740
REMARK  Name = 11524144
REMARK  6 active torsions:
REMARK  status: ('A' for Active; 'I' for Inactive)
REMARK    1  A    between atoms: C_1  and  O_22
REMARK    2  A    between atoms: C_2  and  C_10
REMARK    3  A    between atoms: C_12  and  C_17
REMARK    4  A    between atoms: O_22  and  C_23
REMARK    5  A    between atoms: C_23  and  C_24
REMARK    6  A    between atoms: C_24  and  N_25
REMARK                            x       y       z     vdW  Elec       q    Type
REMARK                         _______ _______ _______ _____ _____    ______ ____
ROOT
ATOM      1  C   UNL     1      34.948 -17.353 -23.265  0.00  0.00    +0.138 C 
ATOM      2  C   UNL     1      33.999 -14.745 -23.099  0.00  0.00    -0.001 C 
ATOM      3  C   UNL     1      34.340 -16.770 -24.371  0.00  0.00    +0.037 C 
ATOM      4  C   UNL     1      35.087 -16.645 -22.077  0.00  0.00    +0.037 C 
ATOM      5  C   UNL     1      33.864 -15.462 -24.287  0.00  0.00    +0.003 C 
ATOM      6  C   UNL     1      34.610 -15.336 -21.994  0.00  0.00    +0.003 C 
ENDROOT
BRANCH   2  10
ATOM      7  N   UNL     1      31.946 -11.694 -22.328  0.00  0.00    -0.193 N 
ATOM      8  N   UNL     1      33.810 -10.964 -23.656  0.00  0.00    -0.231 NA
ATOM      9  N   UNL     1      30.840 -11.197 -21.715  0.00  0.00    -0.179 NA
ATOM     10  C   UNL     1      33.496 -13.366 -23.010  0.00  0.00    +0.019 C 
ATOM     11  C   UNL     1      32.664 -10.691 -22.975  0.00  0.00    +0.137 C 
ATOM     12  C   UNL     1      31.978  -9.518 -22.755  0.00  0.00    +0.121 C 
ATOM     13  C   UNL     1      32.375 -13.019 -22.358  0.00  0.00    +0.145 C 
ATOM     14  C   UNL     1      34.185 -12.209 -23.665  0.00  0.00    +0.097 C 
ATOM     15  C   UNL     1      30.872  -9.890 -21.979  0.00  0.00    +0.103 C 
BRANCH  12  17
ATOM     16  N   UNL     1      33.171  -5.735 -24.228  0.00  0.00    -0.242 NA
ATOM     17  C   UNL     1      32.382  -8.238 -23.252  0.00  0.00    -0.007 C 
ATOM     18  C   UNL     1      31.770  -7.699 -24.382  0.00  0.00    +0.017 C 
ATOM     19  C   UNL     1      33.389  -7.521 -22.612  0.00  0.00    +0.017 C 
ATOM     20  C   UNL     1      32.197  -6.458 -24.824  0.00  0.00    +0.099 C 
ATOM     21  C   UNL     1      33.743  -6.287 -23.134  0.00  0.00    +0.099 C 
ENDBRANCH  12  17
ENDBRANCH   2  10
BRANCH   1  22
ATOM     22  O   UNL     1      35.416 -18.638 -23.348  0.00  0.00    -0.478 OA
BRANCH  22  23
ATOM     23  C   UNL     1      34.884 -19.576 -22.421  0.00  0.00    +0.183 C 
BRANCH  23  24
ATOM     24  C   UNL     1      35.745 -19.567 -21.168  0.00  0.00    -0.029 C 
BRANCH  24  25
ATOM     25  N   UNL     1      35.079 -20.280 -20.079  0.00  0.00    +0.389 N 
ATOM     26  C   UNL     1      33.683 -20.574 -20.435  0.00  0.00    -0.077 C 
ATOM     27  C   UNL     1      35.812 -21.510 -19.747  0.00  0.00    -0.077 C 
ATOM     28  C   UNL     1      32.957 -21.278 -19.287  0.00  0.00    -0.023 C 
ATOM     29  C   UNL     1      35.156 -22.244 -18.576  0.00  0.00    -0.023 C 
ATOM     30  C   UNL     1      33.690 -22.546 -18.863  0.00  0.00    -0.004 C 
ATOM     31  H   UNL     1      35.073 -19.684 -19.252  0.00  0.00    -0.080 HD
ENDBRANCH  24  25
ENDBRANCH  23  24
ENDBRANCH  22  23
ENDBRANCH   1  22
TORSDOF 6
ENDMDL
MODEL 7
REMARK VINA RESULT:     -10.9      3.359      6.220
REMARK  Name = 11524144
REMARK  6 active torsions:
REMARK  status: ('A' for Active; 'I' for Inactive)
REMARK    1  A    between atoms: C_1  and  O_22
REMARK    2  A    between atoms: C_2  and  C_10
REMARK    3  A    between atoms: C_12  and  C_17
REMARK    4  A    between atoms: O_22  and  C_23
REMARK    5  A    between atoms: C_23  and  C_24
REMARK    6  A    between atoms: C_24  and  N_25
REMARK                            x       y       z     vdW  Elec       q    Type
REMARK                         _______ _______ _______ _____ _____    ______ ____
ROOT
ATOM      1  C   UNL     1      36.147 -20.782 -20.050  0.00  0.00    +0.138 C 
ATOM      2  C   UNL     1      35.337 -18.448 -21.324  0.00  0.00    -0.001 C 
ATOM      3  C   UNL     1      37.088 -19.812 -20.371  0.00  0.00    +0.037 C 
ATOM      4  C   UNL     1      34.804 -20.598 -20.359  0.00  0.00    +0.037 C 
ATOM      5  C   UNL     1      36.682 -18.640 -21.011  0.00  0.00    +0.003 C 
ATOM      6  C   UNL     1      34.398 -19.426 -20.999  0.00  0.00    +0.003 C 
ENDROOT
BRANCH   2  10
ATOM      7  N   UNL     1      34.272 -15.923 -23.895  0.00  0.00    -0.193 N 
ATOM      8  N   UNL     1      34.373 -14.774 -21.787  0.00  0.00    -0.231 NA
ATOM      9  N   UNL     1      33.988 -15.686 -25.203  0.00  0.00    -0.179 NA
ATOM     10  C   UNL     1      34.909 -17.214 -22.000  0.00  0.00    +0.019 C 
ATOM     11  C   UNL     1      34.137 -14.768 -23.127  0.00  0.00    +0.137 C 
ATOM     12  C   UNL     1      33.751 -13.769 -23.993  0.00  0.00    +0.121 C 
ATOM     13  C   UNL     1      34.658 -17.130 -23.316  0.00  0.00    +0.145 C 
ATOM     14  C   UNL     1      34.731 -15.915 -21.276  0.00  0.00    +0.097 C 
ATOM     15  C   UNL     1      33.677 -14.390 -25.246  0.00  0.00    +0.103 C 
BRANCH  12  17
ATOM     16  N   UNL     1      33.019  -9.762 -22.849  0.00  0.00    -0.242 NA
ATOM     17  C   UNL     1      33.502 -12.414 -23.606  0.00  0.00    -0.007 C 
ATOM     18  C   UNL     1      34.418 -11.414 -23.926  0.00  0.00    +0.017 C 
ATOM     19  C   UNL     1      32.346 -12.084 -22.906  0.00  0.00    +0.017 C 
ATOM     20  C   UNL     1      34.132 -10.118 -23.529  0.00  0.00    +0.099 C 
ATOM     21  C   UNL     1      32.153 -10.757 -22.555  0.00  0.00    +0.099 C 
ENDBRANCH  12  17
ENDBRANCH   2  10
BRANCH   1  22
ATOM     22  O   UNL     1      36.546 -21.933 -19.421  0.00  0.00    -0.478 OA
BRANCH  22  23
ATOM     23  C   UNL     1      35.890 -22.258 -18.203  0.00  0.00    +0.183 C 
BRANCH  23  24
ATOM     24  C   UNL     1      36.856 -22.026 -17.051  0.00  0.00    -0.029 C 
BRANCH  24  25
ATOM     25  N   UNL     1      36.263 -22.457 -15.786  0.00  0.00    +0.389 N 
ATOM     26  C   UNL     1      34.967 -23.111 -16.021  0.00  0.00    -0.077 C 
ATOM     27  C   UNL     1      37.183 -23.347 -15.065  0.00  0.00    -0.077 C 
ATOM     28  C   UNL     1      34.310 -23.525 -14.704  0.00  0.00    -0.023 C 
ATOM     29  C   UNL     1      36.598 -23.769 -13.716  0.00  0.00    -0.023 C 
ATOM     30  C   UNL     1      35.231 -24.421 -13.882  0.00  0.00    -0.004 C 
ATOM     31  H   UNL     1      36.099 -21.636 -15.205  0.00  0.00    -0.080 HD
ENDBRANCH  24  25
ENDBRANCH  23  24
ENDBRANCH  22  23
ENDBRANCH   1  22
TORSDOF 6
ENDMDL
MODEL 8
REMARK VINA RESULT:     -10.7      7.760     13.773
REMARK  Name = 11524144
REMARK  6 active torsions:
REMARK  status: ('A' for Active; 'I' for Inactive)
REMARK    1  A    between atoms: C_1  and  O_22
REMARK    2  A    between atoms: C_2  and  C_10
REMARK    3  A    between atoms: C_12  and  C_17
REMARK    4  A    between atoms: O_22  and  C_23
REMARK    5  A    between atoms: C_23  and  C_24
REMARK    6  A    between atoms: C_24  and  N_25
REMARK                            x       y       z     vdW  Elec       q    Type
REMARK                         _______ _______ _______ _____ _____    ______ ____
ROOT
ATOM      1  C   UNL     1      32.018  -9.818 -22.630  0.00  0.00    +0.138 C 
ATOM      2  C   UNL     1      33.032 -12.405 -22.683  0.00  0.00    -0.001 C 
ATOM      3  C   UNL     1      33.119 -10.109 -23.427  0.00  0.00    +0.037 C 
ATOM      4  C   UNL     1      31.419 -10.808 -21.859  0.00  0.00    +0.037 C 
ATOM      5  C   UNL     1      33.628 -11.407 -23.454  0.00  0.00    +0.003 C 
ATOM      6  C   UNL     1      31.929 -12.106 -21.886  0.00  0.00    +0.003 C 
ENDROOT
BRANCH   2  10
ATOM      7  N   UNL     1      34.210 -15.800 -23.783  0.00  0.00    -0.193 N 
ATOM      8  N   UNL     1      34.468 -15.711 -21.396  0.00  0.00    -0.231 NA
ATOM      9  N   UNL     1      34.404 -16.650 -24.825  0.00  0.00    -0.179 NA
ATOM     10  C   UNL     1      33.570 -13.774 -22.710  0.00  0.00    +0.019 C 
ATOM     11  C   UNL     1      34.579 -16.384 -22.574  0.00  0.00    +0.137 C 
ATOM     12  C   UNL     1      35.024 -17.652 -22.874  0.00  0.00    +0.121 C 
ATOM     13  C   UNL     1      33.709 -14.501 -23.831  0.00  0.00    +0.145 C 
ATOM     14  C   UNL     1      33.998 -14.501 -21.473  0.00  0.00    +0.097 C 
ATOM     15  C   UNL     1      34.893 -17.757 -24.265  0.00  0.00    +0.103 C 
BRANCH  12  17
ATOM     16  N   UNL     1      36.431 -20.438 -20.017  0.00  0.00    -0.242 NA
ATOM     17  C   UNL     1      35.499 -18.594 -21.908  0.00  0.00    -0.007 C 
ATOM     18  C   UNL     1      36.809 -18.519 -21.439  0.00  0.00    +0.017 C 
ATOM     19  C   UNL     1      34.657 -19.593 -21.428  0.00  0.00    +0.017 C 
ATOM     20  C   UNL     1      37.221 -19.455 -20.504  0.00  0.00    +0.099 C 
ATOM     21  C   UNL     1      35.166 -20.481 -20.493  0.00  0.00    +0.099 C 
ENDBRANCH  12  17
ENDBRANCH   2  10
BRANCH   1  22
ATOM     22  O   UNL     1      31.517  -8.542 -22.604  0.00  0.00    -0.478 OA
BRANCH  22  23
ATOM     23  C   UNL     1      32.448  -7.484 -22.791  0.00  0.00    +0.183 C 
BRANCH  23  24
ATOM     24  C   UNL     1      31.952  -6.591 -23.918  0.00  0.00    -0.029 C 
BRANCH  24  25
ATOM     25  N   UNL     1      31.448  -5.325 -23.388  0.00  0.00    +0.389 N 
ATOM     26  C   UNL     1      32.143  -4.975 -22.142  0.00  0.00    -0.077 C 
ATOM     27  C   UNL     1      31.585  -4.259 -24.390  0.00  0.00    -0.077 C 
ATOM     28  C   UNL     1      31.593  -3.677 -21.548  0.00  0.00    -0.023 C 
ATOM     29  C   UNL     1      31.018  -2.937 -23.871  0.00  0.00    -0.023 C 
ATOM     30  C   UNL     1      31.669  -2.532 -22.554  0.00  0.00    -0.004 C 
ATOM     31  H   UNL     1      30.456  -5.431 -23.176  0.00  0.00    -0.080 HD
ENDBRANCH  24  25
ENDBRANCH  23  24
ENDBRANCH  22  23
ENDBRANCH   1  22
TORSDOF 6
ENDMDL
MODEL 9
REMARK VINA RESULT:     -10.5      7.325     11.736
REMARK  Name = 11524144
REMARK  6 active torsions:
REMARK  status: ('A' for Active; 'I' for Inactive)
REMARK    1  A    between atoms: C_1  and  O_22
REMARK    2  A    between atoms: C_2  and  C_10
REMARK    3  A    between atoms: C_12  and  C_17
REMARK    4  A    between atoms: O_22  and  C_23
REMARK    5  A    between atoms: C_23  and  C_24
REMARK    6  A    between atoms: C_24  and  N_25
REMARK                            x       y       z     vdW  Elec       q    Type
REMARK                         _______ _______ _______ _____ _____    ______ ____
ROOT
ATOM      1  C   UNL     1      33.810 -15.502 -24.193  0.00  0.00    +0.138 C 
ATOM      2  C   UNL     1      33.753 -12.747 -23.823  0.00  0.00    -0.001 C 
ATOM      3  C   UNL     1      33.375 -14.678 -25.224  0.00  0.00    +0.037 C 
ATOM      4  C   UNL     1      34.218 -14.962 -22.978  0.00  0.00    +0.037 C 
ATOM      5  C   UNL     1      33.346 -13.296 -25.039  0.00  0.00    +0.003 C 
ATOM      6  C   UNL     1      34.189 -13.580 -22.793  0.00  0.00    +0.003 C 
ENDROOT
BRANCH   2  10
ATOM      7  N   UNL     1      34.712  -9.132 -23.468  0.00  0.00    -0.193 N 
ATOM      8  N   UNL     1      32.337  -9.262 -23.125  0.00  0.00    -0.231 NA
ATOM      9  N   UNL     1      35.717  -8.217 -23.487  0.00  0.00    -0.179 NA
ATOM     10  C   UNL     1      33.722 -11.290 -23.628  0.00  0.00    +0.019 C 
ATOM     11  C   UNL     1      33.484  -8.532 -23.194  0.00  0.00    +0.137 C 
ATOM     12  C   UNL     1      33.734  -7.188 -23.037  0.00  0.00    +0.121 C 
ATOM     13  C   UNL     1      34.810 -10.505 -23.680  0.00  0.00    +0.145 C 
ATOM     14  C   UNL     1      32.461 -10.540 -23.328  0.00  0.00    +0.097 C 
ATOM     15  C   UNL     1      35.116  -7.056 -23.228  0.00  0.00    +0.103 C 
BRANCH  12  17
ATOM     16  N   UNL     1      30.777  -4.290 -22.164  0.00  0.00    -0.242 NA
ATOM     17  C   UNL     1      32.735  -6.207 -22.742  0.00  0.00    -0.007 C 
ATOM     18  C   UNL     1      32.075  -6.224 -21.516  0.00  0.00    +0.017 C 
ATOM     19  C   UNL     1      32.413  -5.228 -23.678  0.00  0.00    +0.017 C 
ATOM     20  C   UNL     1      31.115  -5.254 -21.278  0.00  0.00    +0.099 C 
ATOM     21  C   UNL     1      31.437  -4.302 -23.344  0.00  0.00    +0.099 C 
ENDBRANCH  12  17
ENDBRANCH   2  10
BRANCH   1  22
ATOM     22  O   UNL     1      33.839 -16.860 -24.375  0.00  0.00    -0.478 OA
BRANCH  22  23
ATOM     23  C   UNL     1      34.890 -17.571 -23.735  0.00  0.00    +0.183 C 
BRANCH  23  24
ATOM     24  C   UNL     1      34.354 -18.911 -23.257  0.00  0.00    -0.029 C 
BRANCH  24  25
ATOM     25  N   UNL     1      35.304 -19.553 -22.349  0.00  0.00    +0.389 N 
ATOM     26  C   UNL     1      36.341 -18.599 -21.932  0.00  0.00    -0.077 C 
ATOM     27  C   UNL     1      34.602 -20.115 -21.187  0.00  0.00    -0.077 C 
ATOM     28  C   UNL     1      37.371 -19.266 -21.020  0.00  0.00    -0.023 C 
ATOM     29  C   UNL     1      35.575 -20.833 -20.250  0.00  0.00    -0.023 C 
ATOM     30  C   UNL     1      36.704 -19.909 -19.808  0.00  0.00    -0.004 C 
ATOM     31  H   UNL     1      35.761 -20.319 -22.842  0.00  0.00    -0.080 HD
ENDBRANCH  24  25
ENDBRANCH  23  24
ENDBRANCH  22  23
ENDBRANCH   1  22
TORSDOF 6
ENDMDL
