MODEL 1
REMARK VINA RESULT:     -12.4      0.000      0.000
REMARK  Name = 24767976
REMARK  5 active torsions:
REMARK  status: ('A' for Active; 'I' for Inactive)
REMARK    1  A    between atoms: C_1  and  N_9
REMARK    2  A    between atoms: C_2  and  O_19
REMARK    3  A    between atoms: C_10  and  C_14
REMARK    4  A    between atoms: O_19  and  C_27
REMARK    5  A    between atoms: C_31  and  C_33
REMARK                            x       y       z     vdW  Elec       q    Type
REMARK                         _______ _______ _______ _____ _____    ______ ____
ROOT
ATOM      1  C   UNL     1      32.282 -10.692 -22.253  0.00  0.00    +0.050 C 
ATOM      2  C   UNL     1      33.408 -12.633 -23.146  0.00  0.00    +0.148 C 
ATOM      3  C   UNL     1      31.726 -11.477 -21.244  0.00  0.00    -0.008 C 
ATOM      4  C   UNL     1      33.123 -11.269 -23.205  0.00  0.00    +0.052 C 
ATOM      5  C   UNL     1      32.012 -12.842 -21.186  0.00  0.00    +0.000 C 
ATOM      6  C   UNL     1      32.853 -13.420 -22.138  0.00  0.00    +0.037 C 
ATOM      7  C   UNL     1      30.822 -10.886 -20.212  0.00  0.00    +0.032 C 
ENDROOT
BRANCH   1   9
ATOM      8  O   UNL     1      34.141  -8.357 -22.544  0.00  0.00    -0.268 OA
ATOM      9  N   UNL     1      32.009  -9.323 -22.328  0.00  0.00    -0.279 N 
ATOM     10  C   UNL     1      32.920  -8.270 -22.463  0.00  0.00    +0.265 C 
ATOM     11  H   UNL     1      31.058  -9.069 -22.277  0.00  0.00    +0.155 HD
BRANCH  10  14
ATOM     12  N   UNL     1      31.586  -6.384 -23.507  0.00  0.00    -0.206 N 
ATOM     13  N   UNL     1      31.158  -5.131 -23.280  0.00  0.00    -0.182 NA
ATOM     14  C   UNL     1      32.321  -6.909 -22.485  0.00  0.00    +0.124 C 
ATOM     15  C   UNL     1      32.378  -5.931 -21.522  0.00  0.00    +0.037 C 
ATOM     16  C   UNL     1      31.644  -4.859 -22.066  0.00  0.00    +0.078 C 
ATOM     17  C   UNL     1      31.246  -7.032 -24.753  0.00  0.00    +0.140 C 
ATOM     18  C   UNL     1      31.384  -3.547 -21.450  0.00  0.00    +0.054 C 
ENDBRANCH  10  14
ENDBRANCH   1   9
BRANCH   2  19
ATOM     19  O   UNL     1      34.247 -13.210 -24.096  0.00  0.00    -0.435 OA
BRANCH  19  27
ATOM     20  N   UNL     1      34.389 -18.509 -23.498  0.00  0.00    -0.373 NA
ATOM     21  N   UNL     1      34.888 -16.421 -22.891  0.00  0.00    -0.173 N 
ATOM     22  N   UNL     1      34.944 -15.060 -22.903  0.00  0.00    -0.138 NA
ATOM     23  C   UNL     1      35.144 -18.518 -22.353  0.00  0.00    +0.187 C 
ATOM     24  C   UNL     1      35.465 -17.241 -21.958  0.00  0.00    +0.193 C 
ATOM     25  C   UNL     1      34.245 -17.236 -23.808  0.00  0.00    +0.204 C 
ATOM     26  C   UNL     1      33.571 -16.600 -24.878  0.00  0.00    +0.054 C 
ATOM     27  C   UNL     1      34.309 -14.543 -23.905  0.00  0.00    +0.245 C 
ATOM     28  C   UNL     1      33.576 -15.264 -24.966  0.00  0.00    +0.063 C 
ATOM     29  O   UNL     1      36.769 -18.944 -19.855  0.00  0.00    -0.275 OA
ATOM     30  N   UNL     1      35.511 -19.678 -21.713  0.00  0.00    -0.261 N 
ATOM     31  C   UNL     1      36.277 -19.832 -20.539  0.00  0.00    +0.227 C 
ATOM     32  H   UNL     1      35.197 -20.512 -22.129  0.00  0.00    +0.157 HD
BRANCH  31  33
ATOM     33  C   UNL     1      36.486 -21.253 -20.116  0.00  0.00    +0.077 C 
ATOM     34  C   UNL     1      35.346 -22.002 -19.490  0.00  0.00    +0.010 C 
ATOM     35  C   UNL     1      36.517 -21.580 -18.652  0.00  0.00    +0.010 C 
ENDBRANCH  31  33
ENDBRANCH  19  27
ENDBRANCH   2  19
TORSDOF 5
ENDMDL
MODEL 2
REMARK VINA RESULT:     -12.3      3.399     12.545
REMARK  Name = 24767976
REMARK  5 active torsions:
REMARK  status: ('A' for Active; 'I' for Inactive)
REMARK    1  A    between atoms: C_1  and  N_9
REMARK    2  A    between atoms: C_2  and  O_19
REMARK    3  A    between atoms: C_10  and  C_14
REMARK    4  A    between atoms: O_19  and  C_27
REMARK    5  A    between atoms: C_31  and  C_33
REMARK                            x       y       z     vdW  Elec       q    Type
REMARK                         _______ _______ _______ _____ _____    ______ ____
ROOT
ATOM      1  C   UNL     1      35.341 -21.624 -18.785  0.00  0.00    +0.050 C 
ATOM      2  C   UNL     1      35.680 -19.936 -20.478  0.00  0.00    +0.148 C 
ATOM      3  C   UNL     1      33.994 -21.706 -19.136  0.00  0.00    -0.008 C 
ATOM      4  C   UNL     1      36.185 -20.739 -19.456  0.00  0.00    +0.052 C 
ATOM      5  C   UNL     1      33.490 -20.902 -20.159  0.00  0.00    +0.000 C 
ATOM      6  C   UNL     1      34.333 -20.016 -20.830  0.00  0.00    +0.037 C 
ATOM      7  C   UNL     1      33.067 -22.645 -18.433  0.00  0.00    +0.032 C 
ENDROOT
BRANCH   1   9
ATOM      8  O   UNL     1      37.148 -20.910 -16.502  0.00  0.00    -0.268 OA
ATOM      9  N   UNL     1      35.865 -22.421 -17.764  0.00  0.00    -0.279 N 
ATOM     10  C   UNL     1      36.709 -22.035 -16.717  0.00  0.00    +0.265 C 
ATOM     11  H   UNL     1      35.610 -23.373 -17.785  0.00  0.00    +0.155 HD
BRANCH  10  14
ATOM     12  N   UNL     1      36.286 -23.848 -14.998  0.00  0.00    -0.206 N 
ATOM     13  N   UNL     1      36.911 -24.780 -14.258  0.00  0.00    -0.182 NA
ATOM     14  C   UNL     1      37.123 -23.127 -15.797  0.00  0.00    +0.124 C 
ATOM     15  C   UNL     1      38.384 -23.620 -15.564  0.00  0.00    +0.037 C 
ATOM     16  C   UNL     1      38.192 -24.636 -14.608  0.00  0.00    +0.078 C 
ATOM     17  C   UNL     1      34.853 -23.701 -14.885  0.00  0.00    +0.140 C 
ATOM     18  C   UNL     1      39.217 -25.500 -14.000  0.00  0.00    +0.054 C 
ENDBRANCH  10  14
ENDBRANCH   1   9
BRANCH   2  19
ATOM     19  O   UNL     1      36.522 -19.051 -21.149  0.00  0.00    -0.435 OA
BRANCH  19  27
ATOM     20  N   UNL     1      33.687 -15.165 -23.455  0.00  0.00    -0.373 NA
ATOM     21  N   UNL     1      34.600 -16.191 -21.697  0.00  0.00    -0.173 N 
ATOM     22  N   UNL     1      35.294 -17.104 -20.962  0.00  0.00    -0.138 NA
ATOM     23  C   UNL     1      33.404 -14.473 -22.305  0.00  0.00    +0.187 C 
ATOM     24  C   UNL     1      33.956 -15.086 -21.206  0.00  0.00    +0.193 C 
ATOM     25  C   UNL     1      34.409 -16.198 -23.069  0.00  0.00    +0.204 C 
ATOM     26  C   UNL     1      34.991 -17.262 -23.798  0.00  0.00    +0.054 C 
ATOM     27  C   UNL     1      35.799 -18.049 -21.688  0.00  0.00    +0.245 C 
ATOM     28  C   UNL     1      35.691 -18.205 -23.154  0.00  0.00    +0.063 C 
ATOM     29  O   UNL     1      32.582 -12.693 -20.021  0.00  0.00    -0.275 OA
ATOM     30  N   UNL     1      32.660 -13.317 -22.296  0.00  0.00    -0.261 N 
ATOM     31  C   UNL     1      32.296 -12.512 -21.198  0.00  0.00    +0.227 C 
ATOM     32  H   UNL     1      32.337 -13.012 -23.174  0.00  0.00    +0.157 HD
BRANCH  31  33
ATOM     33  C   UNL     1      31.474 -11.312 -21.552  0.00  0.00    +0.077 C 
ATOM     34  C   UNL     1      32.170 -10.041 -21.943  0.00  0.00    +0.010 C 
ATOM     35  C   UNL     1      31.464 -10.134 -20.623  0.00  0.00    +0.010 C 
ENDBRANCH  31  33
ENDBRANCH  19  27
ENDBRANCH   2  19
TORSDOF 5
ENDMDL
MODEL 3
REMARK VINA RESULT:     -11.7      4.704      9.529
REMARK  Name = 24767976
REMARK  5 active torsions:
REMARK  status: ('A' for Active; 'I' for Inactive)
REMARK    1  A    between atoms: C_1  and  N_9
REMARK    2  A    between atoms: C_2  and  O_19
REMARK    3  A    between atoms: C_10  and  C_14
REMARK    4  A    between atoms: O_19  and  C_27
REMARK    5  A    between atoms: C_31  and  C_33
REMARK                            x       y       z     vdW  Elec       q    Type
REMARK                         _______ _______ _______ _____ _____    ______ ____
ROOT
ATOM      1  C   UNL     1      35.064 -19.377 -21.036  0.00  0.00    +0.050 C 
ATOM      2  C   UNL     1      34.185 -21.299 -19.867  0.00  0.00    +0.148 C 
ATOM      3  C   UNL     1      36.363 -19.795 -20.747  0.00  0.00    -0.008 C 
ATOM      4  C   UNL     1      33.975 -20.129 -20.596  0.00  0.00    +0.052 C 
ATOM      5  C   UNL     1      36.572 -20.966 -20.017  0.00  0.00    +0.000 C 
ATOM      6  C   UNL     1      35.483 -21.718 -19.577  0.00  0.00    +0.037 C 
ATOM      7  C   UNL     1      37.548 -19.009 -21.205  0.00  0.00    +0.032 C 
ENDROOT
BRANCH   1   9
ATOM      8  O   UNL     1      35.081 -16.510 -20.159  0.00  0.00    -0.268 OA
ATOM      9  N   UNL     1      34.834 -18.208 -21.766  0.00  0.00    -0.279 N 
ATOM     10  C   UNL     1      34.854 -16.887 -21.304  0.00  0.00    +0.265 C 
ATOM     11  H   UNL     1      34.631 -18.329 -22.722  0.00  0.00    +0.155 HD
BRANCH  10  14
ATOM     12  N   UNL     1      34.384 -16.078 -23.660  0.00  0.00    -0.206 N 
ATOM     13  N   UNL     1      34.103 -14.972 -24.368  0.00  0.00    -0.182 NA
ATOM     14  C   UNL     1      34.538 -15.852 -22.323  0.00  0.00    +0.124 C 
ATOM     15  C   UNL     1      34.344 -14.504 -22.146  0.00  0.00    +0.037 C 
ATOM     16  C   UNL     1      34.078 -14.013 -23.438  0.00  0.00    +0.078 C 
ATOM     17  C   UNL     1      34.495 -17.346 -24.343  0.00  0.00    +0.140 C 
ATOM     18  C   UNL     1      33.794 -12.622 -23.829  0.00  0.00    +0.054 C 
ENDBRANCH  10  14
ENDBRANCH   1   9
BRANCH   2  19
ATOM     19  O   UNL     1      33.097 -22.050 -19.427  0.00  0.00    -0.435 OA
BRANCH  19  27
ATOM     20  N   UNL     1      33.843 -23.906 -14.482  0.00  0.00    -0.373 NA
ATOM     21  N   UNL     1      34.557 -23.180 -16.467  0.00  0.00    -0.173 N 
ATOM     22  N   UNL     1      34.535 -22.705 -17.743  0.00  0.00    -0.138 NA
ATOM     23  C   UNL     1      35.214 -23.917 -14.523  0.00  0.00    +0.187 C 
ATOM     24  C   UNL     1      35.679 -23.475 -15.738  0.00  0.00    +0.193 C 
ATOM     25  C   UNL     1      33.464 -23.459 -15.662  0.00  0.00    +0.204 C 
ATOM     26  C   UNL     1      32.181 -23.229 -16.213  0.00  0.00    +0.054 C 
ATOM     27  C   UNL     1      33.334 -22.517 -18.185  0.00  0.00    +0.245 C 
ATOM     28  C   UNL     1      32.067 -22.762 -17.462  0.00  0.00    +0.063 C 
ATOM     29  O   UNL     1      38.205 -24.084 -14.231  0.00  0.00    -0.275 OA
ATOM     30  N   UNL     1      35.986 -24.328 -13.462  0.00  0.00    -0.261 N 
ATOM     31  C   UNL     1      37.392 -24.390 -13.369  0.00  0.00    +0.227 C 
ATOM     32  H   UNL     1      35.493 -24.616 -12.662  0.00  0.00    +0.157 HD
BRANCH  31  33
ATOM     33  C   UNL     1      37.905 -24.888 -12.053  0.00  0.00    +0.077 C 
ATOM     34  C   UNL     1      37.555 -26.279 -11.613  0.00  0.00    +0.010 C 
ATOM     35  C   UNL     1      36.938 -25.097 -10.925  0.00  0.00    +0.010 C 
ENDBRANCH  31  33
ENDBRANCH  19  27
ENDBRANCH   2  19
TORSDOF 5
ENDMDL
MODEL 4
REMARK VINA RESULT:     -11.6      3.914     12.968
REMARK  Name = 24767976
REMARK  5 active torsions:
REMARK  status: ('A' for Active; 'I' for Inactive)
REMARK    1  A    between atoms: C_1  and  N_9
REMARK    2  A    between atoms: C_2  and  O_19
REMARK    3  A    between atoms: C_10  and  C_14
REMARK    4  A    between atoms: O_19  and  C_27
REMARK    5  A    between atoms: C_31  and  C_33
REMARK                            x       y       z     vdW  Elec       q    Type
REMARK                         _______ _______ _______ _____ _____    ______ ____
ROOT
ATOM      1  C   UNL     1      35.124 -22.350 -17.770  0.00  0.00    +0.050 C 
ATOM      2  C   UNL     1      35.728 -21.018 -19.693  0.00  0.00    +0.148 C 
ATOM      3  C   UNL     1      33.799 -22.375 -18.203  0.00  0.00    -0.008 C 
ATOM      4  C   UNL     1      36.089 -21.671 -18.515  0.00  0.00    +0.052 C 
ATOM      5  C   UNL     1      33.438 -21.722 -19.382  0.00  0.00    +0.000 C 
ATOM      6  C   UNL     1      34.402 -21.043 -20.127  0.00  0.00    +0.037 C 
ATOM      7  C   UNL     1      32.745 -23.094 -17.425  0.00  0.00    +0.032 C 
ENDROOT
BRANCH   1   9
ATOM      8  O   UNL     1      37.264 -21.665 -15.785  0.00  0.00    -0.268 OA
ATOM      9  N   UNL     1      35.506 -22.999 -16.593  0.00  0.00    -0.279 N 
ATOM     10  C   UNL     1      36.518 -22.634 -15.699  0.00  0.00    +0.265 C 
ATOM     11  H   UNL     1      35.001 -23.814 -16.366  0.00  0.00    +0.155 HD
BRANCH  10  14
ATOM     12  N   UNL     1      37.774 -24.375 -14.351  0.00  0.00    -0.206 N 
ATOM     13  N   UNL     1      37.702 -25.103 -13.223  0.00  0.00    -0.182 NA
ATOM     14  C   UNL     1      36.705 -23.549 -14.541  0.00  0.00    +0.124 C 
ATOM     15  C   UNL     1      35.878 -23.750 -13.464  0.00  0.00    +0.037 C 
ATOM     16  C   UNL     1      36.543 -24.717 -12.686  0.00  0.00    +0.078 C 
ATOM     17  C   UNL     1      38.919 -24.526 -15.218  0.00  0.00    +0.140 C 
ATOM     18  C   UNL     1      36.097 -25.301 -11.410  0.00  0.00    +0.054 C 
ENDBRANCH  10  14
ENDBRANCH   1   9
BRANCH   2  19
ATOM     19  O   UNL     1      36.690 -20.340 -20.437  0.00  0.00    -0.435 OA
BRANCH  19  27
ATOM     20  N   UNL     1      34.298 -17.083 -23.919  0.00  0.00    -0.373 NA
ATOM     21  N   UNL     1      35.317 -17.532 -21.986  0.00  0.00    -0.173 N 
ATOM     22  N   UNL     1      35.945 -18.228 -20.998  0.00  0.00    -0.138 NA
ATOM     23  C   UNL     1      34.398 -15.943 -23.162  0.00  0.00    +0.187 C 
ATOM     24  C   UNL     1      35.022 -16.194 -21.964  0.00  0.00    +0.193 C 
ATOM     25  C   UNL     1      34.858 -18.030 -23.194  0.00  0.00    +0.204 C 
ATOM     26  C   UNL     1      35.054 -19.410 -23.440  0.00  0.00    +0.054 C 
ATOM     27  C   UNL     1      36.093 -19.480 -21.286  0.00  0.00    +0.245 C 
ATOM     28  C   UNL     1      35.663 -20.169 -22.521  0.00  0.00    +0.063 C 
ATOM     29  O   UNL     1      34.428 -13.254 -21.810  0.00  0.00    -0.275 OA
ATOM     30  N   UNL     1      33.920 -14.725 -23.585  0.00  0.00    -0.261 N 
ATOM     31  C   UNL     1      33.955 -13.485 -22.915  0.00  0.00    +0.227 C 
ATOM     32  H   UNL     1      33.497 -14.719 -24.473  0.00  0.00    +0.157 HD
BRANCH  31  33
ATOM     33  C   UNL     1      33.339 -12.351 -23.675  0.00  0.00    +0.077 C 
ATOM     34  C   UNL     1      34.030 -11.019 -23.686  0.00  0.00    +0.010 C 
ATOM     35  C   UNL     1      32.754 -11.197 -22.916  0.00  0.00    +0.010 C 
ENDBRANCH  31  33
ENDBRANCH  19  27
ENDBRANCH   2  19
TORSDOF 5
ENDMDL
MODEL 5
REMARK VINA RESULT:     -11.2      3.488     10.412
REMARK  Name = 24767976
REMARK  5 active torsions:
REMARK  status: ('A' for Active; 'I' for Inactive)
REMARK    1  A    between atoms: C_1  and  N_9
REMARK    2  A    between atoms: C_2  and  O_19
REMARK    3  A    between atoms: C_10  and  C_14
REMARK    4  A    between atoms: O_19  and  C_27
REMARK    5  A    between atoms: C_31  and  C_33
REMARK                            x       y       z     vdW  Elec       q    Type
REMARK                         _______ _______ _______ _____ _____    ______ ____
ROOT
ATOM      1  C   UNL     1      32.101 -11.897 -21.742  0.00  0.00    +0.050 C 
ATOM      2  C   UNL     1      31.373  -9.595 -21.714  0.00  0.00    +0.148 C 
ATOM      3  C   UNL     1      32.049 -11.931 -20.349  0.00  0.00    -0.008 C 
ATOM      4  C   UNL     1      31.763 -10.729 -22.425  0.00  0.00    +0.052 C 
ATOM      5  C   UNL     1      31.658 -10.796 -19.638  0.00  0.00    +0.000 C 
ATOM      6  C   UNL     1      31.320  -9.627 -20.321  0.00  0.00    +0.037 C 
ATOM      7  C   UNL     1      32.406 -13.169 -19.591  0.00  0.00    +0.032 C 
ENDROOT
BRANCH   1   9
ATOM      8  O   UNL     1      34.491 -12.342 -23.497  0.00  0.00    -0.268 OA
ATOM      9  N   UNL     1      32.488 -13.024 -22.472  0.00  0.00    -0.279 N 
ATOM     10  C   UNL     1      33.620 -13.179 -23.280  0.00  0.00    +0.265 C 
ATOM     11  H   UNL     1      31.891 -13.805 -22.410  0.00  0.00    +0.155 HD
BRANCH  10  14
ATOM     12  N   UNL     1      33.497 -14.737 -25.275  0.00  0.00    -0.206 N 
ATOM     13  N   UNL     1      33.684 -16.017 -25.638  0.00  0.00    -0.182 NA
ATOM     14  C   UNL     1      33.745 -14.497 -23.955  0.00  0.00    +0.124 C 
ATOM     15  C   UNL     1      34.120 -15.704 -23.418  0.00  0.00    +0.037 C 
ATOM     16  C   UNL     1      34.064 -16.603 -24.500  0.00  0.00    +0.078 C 
ATOM     17  C   UNL     1      33.071 -13.776 -26.266  0.00  0.00    +0.140 C 
ATOM     18  C   UNL     1      34.371 -18.044 -24.486  0.00  0.00    +0.054 C 
ENDBRANCH  10  14
ENDBRANCH   1   9
BRANCH   2  19
ATOM     19  O   UNL     1      31.035  -8.428 -22.395  0.00  0.00    -0.435 OA
BRANCH  19  27
ATOM     20  N   UNL     1      35.418  -6.431 -24.689  0.00  0.00    -0.373 NA
ATOM     21  N   UNL     1      33.367  -7.308 -24.737  0.00  0.00    -0.173 N 
ATOM     22  N   UNL     1      32.187  -7.835 -24.307  0.00  0.00    -0.138 NA
ATOM     23  C   UNL     1      34.985  -6.551 -25.986  0.00  0.00    +0.187 C 
ATOM     24  C   UNL     1      33.723  -7.090 -26.042  0.00  0.00    +0.193 C 
ATOM     25  C   UNL     1      34.429  -6.893 -23.950  0.00  0.00    +0.204 C 
ATOM     26  C   UNL     1      34.286  -7.025 -22.549  0.00  0.00    +0.054 C 
ATOM     27  C   UNL     1      32.122  -7.929 -23.019  0.00  0.00    +0.245 C 
ATOM     28  C   UNL     1      33.158  -7.535 -22.040  0.00  0.00    +0.063 C 
ATOM     29  O   UNL     1      34.397  -6.653 -28.936  0.00  0.00    -0.275 OA
ATOM     30  N   UNL     1      35.750  -6.169 -27.063  0.00  0.00    -0.261 N 
ATOM     31  C   UNL     1      35.433  -6.235 -28.435  0.00  0.00    +0.227 C 
ATOM     32  H   UNL     1      36.635  -5.800 -26.848  0.00  0.00    +0.157 HD
BRANCH  31  33
ATOM     33  C   UNL     1      36.507  -5.726 -29.346  0.00  0.00    +0.077 C 
ATOM     34  C   UNL     1      37.434  -6.709 -30.000  0.00  0.00    +0.010 C 
ATOM     35  C   UNL     1      37.938  -5.814 -28.905  0.00  0.00    +0.010 C 
ENDBRANCH  31  33
ENDBRANCH  19  27
ENDBRANCH   2  19
TORSDOF 5
ENDMDL
MODEL 6
REMARK VINA RESULT:     -11.0      2.208      3.537
REMARK  Name = 24767976
REMARK  5 active torsions:
REMARK  status: ('A' for Active; 'I' for Inactive)
REMARK    1  A    between atoms: C_1  and  N_9
REMARK    2  A    between atoms: C_2  and  O_19
REMARK    3  A    between atoms: C_10  and  C_14
REMARK    4  A    between atoms: O_19  and  C_27
REMARK    5  A    between atoms: C_31  and  C_33
REMARK                            x       y       z     vdW  Elec       q    Type
REMARK                         _______ _______ _______ _____ _____    ______ ____
ROOT
ATOM      1  C   UNL     1      32.146  -8.077 -21.432  0.00  0.00    +0.050 C 
ATOM      2  C   UNL     1      31.519 -10.397 -21.194  0.00  0.00    +0.148 C 
ATOM      3  C   UNL     1      32.573  -8.055 -20.105  0.00  0.00    -0.008 C 
ATOM      4  C   UNL     1      31.619  -9.248 -21.977  0.00  0.00    +0.052 C 
ATOM      5  C   UNL     1      32.472  -9.205 -19.321  0.00  0.00    +0.000 C 
ATOM      6  C   UNL     1      31.945 -10.376 -19.866  0.00  0.00    +0.037 C 
ATOM      7  C   UNL     1      33.141  -6.814 -19.495  0.00  0.00    +0.032 C 
ENDROOT
BRANCH   1   9
ATOM      8  O   UNL     1      30.302  -5.725 -21.679  0.00  0.00    -0.268 OA
ATOM      9  N   UNL     1      32.240  -6.935 -22.233  0.00  0.00    -0.279 N 
ATOM     10  C   UNL     1      31.345  -5.862 -22.310  0.00  0.00    +0.265 C 
ATOM     11  H   UNL     1      33.032  -6.880 -22.816  0.00  0.00    +0.155 HD
BRANCH  10  14
ATOM     12  N   UNL     1      31.851  -3.475 -22.995  0.00  0.00    -0.206 N 
ATOM     13  N   UNL     1      32.182  -2.720 -24.056  0.00  0.00    -0.182 NA
ATOM     14  C   UNL     1      31.707  -4.800 -23.285  0.00  0.00    +0.124 C 
ATOM     15  C   UNL     1      31.962  -4.920 -24.629  0.00  0.00    +0.037 C 
ATOM     16  C   UNL     1      32.249  -3.608 -25.051  0.00  0.00    +0.078 C 
ATOM     17  C   UNL     1      31.684  -2.846 -21.705  0.00  0.00    +0.140 C 
ATOM     18  C   UNL     1      32.595  -3.159 -26.410  0.00  0.00    +0.054 C 
ENDBRANCH  10  14
ENDBRANCH   1   9
BRANCH   2  19
ATOM     19  O   UNL     1      30.993 -11.566 -21.737  0.00  0.00    -0.435 OA
BRANCH  19  27
ATOM     20  N   UNL     1      34.999 -14.689 -23.366  0.00  0.00    -0.373 NA
ATOM     21  N   UNL     1      33.265 -14.195 -22.053  0.00  0.00    -0.173 N 
ATOM     22  N   UNL     1      32.209 -13.517 -21.522  0.00  0.00    -0.138 NA
ATOM     23  C   UNL     1      34.794 -15.695 -22.456  0.00  0.00    +0.187 C 
ATOM     24  C   UNL     1      33.730 -15.414 -21.634  0.00  0.00    +0.193 C 
ATOM     25  C   UNL     1      34.068 -13.793 -23.107  0.00  0.00    +0.204 C 
ATOM     26  C   UNL     1      33.771 -12.546 -23.706  0.00  0.00    +0.054 C 
ATOM     27  C   UNL     1      31.993 -12.388 -22.114  0.00  0.00    +0.245 C 
ATOM     28  C   UNL     1      32.750 -11.813 -23.247  0.00  0.00    +0.063 C 
ATOM     29  O   UNL     1      34.663 -18.089 -20.635  0.00  0.00    -0.275 OA
ATOM     30  N   UNL     1      35.578 -16.824 -22.407  0.00  0.00    -0.261 N 
ATOM     31  C   UNL     1      35.480 -17.926 -21.532  0.00  0.00    +0.227 C 
ATOM     32  H   UNL     1      36.303 -16.869 -23.070  0.00  0.00    +0.157 HD
BRANCH  31  33
ATOM     33  C   UNL     1      36.505 -18.993 -21.762  0.00  0.00    +0.077 C 
ATOM     34  C   UNL     1      37.185 -19.618 -20.578  0.00  0.00    +0.010 C 
ATOM     35  C   UNL     1      37.948 -18.691 -21.480  0.00  0.00    +0.010 C 
ENDBRANCH  31  33
ENDBRANCH  19  27
ENDBRANCH   2  19
TORSDOF 5
ENDMDL
MODEL 7
REMARK VINA RESULT:     -10.9      3.587      7.286
REMARK  Name = 24767976
REMARK  5 active torsions:
REMARK  status: ('A' for Active; 'I' for Inactive)
REMARK    1  A    between atoms: C_1  and  N_9
REMARK    2  A    between atoms: C_2  and  O_19
REMARK    3  A    between atoms: C_10  and  C_14
REMARK    4  A    between atoms: O_19  and  C_27
REMARK    5  A    between atoms: C_31  and  C_33
REMARK                            x       y       z     vdW  Elec       q    Type
REMARK                         _______ _______ _______ _____ _____    ______ ____
ROOT
ATOM      1  C   UNL     1      34.877 -17.072 -22.386  0.00  0.00    +0.050 C 
ATOM      2  C   UNL     1      36.440 -18.664 -21.461  0.00  0.00    +0.148 C 
ATOM      3  C   UNL     1      34.714 -17.883 -23.508  0.00  0.00    -0.008 C 
ATOM      4  C   UNL     1      35.741 -17.463 -21.362  0.00  0.00    +0.052 C 
ATOM      5  C   UNL     1      35.414 -19.086 -23.607  0.00  0.00    +0.000 C 
ATOM      6  C   UNL     1      36.278 -19.477 -22.583  0.00  0.00    +0.037 C 
ATOM      7  C   UNL     1      33.796 -17.490 -24.620  0.00  0.00    +0.032 C 
ENDROOT
BRANCH   1   9
ATOM      8  O   UNL     1      34.646 -15.189 -20.064  0.00  0.00    -0.268 OA
ATOM      9  N   UNL     1      34.184 -15.864 -22.268  0.00  0.00    -0.279 N 
ATOM     10  C   UNL     1      34.109 -15.020 -21.154  0.00  0.00    +0.265 C 
ATOM     11  H   UNL     1      33.687 -15.572 -23.066  0.00  0.00    +0.155 HD
BRANCH  10  14
ATOM     12  N   UNL     1      33.291 -12.973 -22.404  0.00  0.00    -0.206 N 
ATOM     13  N   UNL     1      32.425 -11.949 -22.318  0.00  0.00    -0.182 NA
ATOM     14  C   UNL     1      33.263 -13.811 -21.328  0.00  0.00    +0.124 C 
ATOM     15  C   UNL     1      32.313 -13.299 -20.478  0.00  0.00    +0.037 C 
ATOM     16  C   UNL     1      31.830 -12.153 -21.139  0.00  0.00    +0.078 C 
ATOM     17  C   UNL     1      34.133 -13.089 -23.572  0.00  0.00    +0.140 C 
ATOM     18  C   UNL     1      30.791 -11.220 -20.673  0.00  0.00    +0.054 C 
ENDBRANCH  10  14
ENDBRANCH   1   9
BRANCH   2  19
ATOM     19  O   UNL     1      37.303 -19.055 -20.440  0.00  0.00    -0.435 OA
BRANCH  19  27
ATOM     20  N   UNL     1      34.867 -22.859 -17.603  0.00  0.00    -0.373 NA
ATOM     21  N   UNL     1      36.495 -21.377 -17.965  0.00  0.00    -0.173 N 
ATOM     22  N   UNL     1      37.232 -20.403 -18.566  0.00  0.00    -0.138 NA
ATOM     23  C   UNL     1      35.771 -22.889 -16.571  0.00  0.00    +0.187 C 
ATOM     24  C   UNL     1      36.785 -21.984 -16.771  0.00  0.00    +0.193 C 
ATOM     25  C   UNL     1      35.320 -21.942 -18.433  0.00  0.00    +0.204 C 
ATOM     26  C   UNL     1      34.822 -21.465 -19.669  0.00  0.00    +0.054 C 
ATOM     27  C   UNL     1      36.722 -20.012 -19.689  0.00  0.00    +0.245 C 
ATOM     28  C   UNL     1      35.485 -20.507 -20.328  0.00  0.00    +0.063 C 
ATOM     29  O   UNL     1      37.517 -23.245 -14.145  0.00  0.00    -0.275 OA
ATOM     30  N   UNL     1      35.641 -23.732 -15.493  0.00  0.00    -0.261 N 
ATOM     31  C   UNL     1      36.488 -23.867 -14.373  0.00  0.00    +0.227 C 
ATOM     32  H   UNL     1      34.853 -24.321 -15.504  0.00  0.00    +0.157 HD
BRANCH  31  33
ATOM     33  C   UNL     1      36.041 -24.891 -13.376  0.00  0.00    +0.077 C 
ATOM     34  C   UNL     1      35.223 -24.452 -12.197  0.00  0.00    +0.010 C 
ATOM     35  C   UNL     1      36.647 -24.885 -12.004  0.00  0.00    +0.010 C 
ENDBRANCH  31  33
ENDBRANCH  19  27
ENDBRANCH   2  19
TORSDOF 5
ENDMDL
MODEL 8
REMARK VINA RESULT:     -10.6      5.703     13.990
REMARK  Name = 24767976
REMARK  5 active torsions:
REMARK  status: ('A' for Active; 'I' for Inactive)
REMARK    1  A    between atoms: C_1  and  N_9
REMARK    2  A    between atoms: C_2  and  O_19
REMARK    3  A    between atoms: C_10  and  C_14
REMARK    4  A    between atoms: O_19  and  C_27
REMARK    5  A    between atoms: C_31  and  C_33
REMARK                            x       y       z     vdW  Elec       q    Type
REMARK                         _______ _______ _______ _____ _____    ______ ____
ROOT
ATOM      1  C   UNL     1      34.049 -23.390 -16.028  0.00  0.00    +0.050 C 
ATOM      2  C   UNL     1      34.350 -23.076 -18.404  0.00  0.00    +0.148 C 
ATOM      3  C   UNL     1      32.718 -22.990 -16.143  0.00  0.00    -0.008 C 
ATOM      4  C   UNL     1      34.865 -23.433 -17.159  0.00  0.00    +0.052 C 
ATOM      5  C   UNL     1      32.202 -22.633 -17.390  0.00  0.00    +0.000 C 
ATOM      6  C   UNL     1      33.019 -22.675 -18.520  0.00  0.00    +0.037 C 
ATOM      7  C   UNL     1      31.821 -22.935 -14.949  0.00  0.00    +0.032 C 
ENDROOT
BRANCH   1   9
ATOM      8  O   UNL     1      35.545 -25.857 -15.210  0.00  0.00    -0.268 OA
ATOM      9  N   UNL     1      34.583 -23.753 -14.789  0.00  0.00    -0.279 N 
ATOM     10  C   UNL     1      35.276 -24.924 -14.460  0.00  0.00    +0.265 C 
ATOM     11  H   UNL     1      34.455 -23.106 -14.057  0.00  0.00    +0.155 HD
BRANCH  10  14
ATOM     12  N   UNL     1      36.857 -25.606 -12.600  0.00  0.00    -0.206 N 
ATOM     13  N   UNL     1      37.003 -25.580 -11.265  0.00  0.00    -0.182 NA
ATOM     14  C   UNL     1      35.699 -25.035 -13.039  0.00  0.00    +0.124 C 
ATOM     15  C   UNL     1      35.041 -24.606 -11.912  0.00  0.00    +0.037 C 
ATOM     16  C   UNL     1      35.891 -24.968 -10.849  0.00  0.00    +0.078 C 
ATOM     17  C   UNL     1      37.890 -26.206 -13.412  0.00  0.00    +0.140 C 
ATOM     18  C   UNL     1      35.673 -24.744  -9.411  0.00  0.00    +0.054 C 
ENDBRANCH  10  14
ENDBRANCH   1   9
BRANCH   2  19
ATOM     19  O   UNL     1      35.164 -23.118 -19.533  0.00  0.00    -0.435 OA
BRANCH  19  27
ATOM     20  N   UNL     1      36.330 -18.145 -21.073  0.00  0.00    -0.373 NA
ATOM     21  N   UNL     1      35.223 -20.075 -21.239  0.00  0.00    -0.173 N 
ATOM     22  N   UNL     1      34.814 -21.347 -20.973  0.00  0.00    -0.138 NA
ATOM     23  C   UNL     1      35.452 -18.097 -22.126  0.00  0.00    +0.187 C 
ATOM     24  C   UNL     1      34.758 -19.275 -22.250  0.00  0.00    +0.193 C 
ATOM     25  C   UNL     1      36.178 -19.345 -20.550  0.00  0.00    +0.204 C 
ATOM     26  C   UNL     1      36.805 -19.977 -19.450  0.00  0.00    +0.054 C 
ATOM     27  C   UNL     1      35.426 -21.865 -19.958  0.00  0.00    +0.245 C 
ATOM     28  C   UNL     1      36.463 -21.229 -19.119  0.00  0.00    +0.063 C 
ATOM     29  O   UNL     1      33.663 -17.610 -24.497  0.00  0.00    -0.275 OA
ATOM     30  N   UNL     1      35.317 -16.990 -22.931  0.00  0.00    -0.261 N 
ATOM     31  C   UNL     1      34.462 -16.805 -24.037  0.00  0.00    +0.227 C 
ATOM     32  H   UNL     1      35.892 -16.226 -22.705  0.00  0.00    +0.157 HD
BRANCH  31  33
ATOM     33  C   UNL     1      34.572 -15.462 -24.689  0.00  0.00    +0.077 C 
ATOM     34  C   UNL     1      33.784 -14.313 -24.129  0.00  0.00    +0.010 C 
ATOM     35  C   UNL     1      33.395 -14.920 -25.445  0.00  0.00    +0.010 C 
ENDBRANCH  31  33
ENDBRANCH  19  27
ENDBRANCH   2  19
TORSDOF 5
ENDMDL
MODEL 9
REMARK VINA RESULT:     -10.2      6.508     14.410
REMARK  Name = 24767976
REMARK  5 active torsions:
REMARK  status: ('A' for Active; 'I' for Inactive)
REMARK    1  A    between atoms: C_1  and  N_9
REMARK    2  A    between atoms: C_2  and  O_19
REMARK    3  A    between atoms: C_10  and  C_14
REMARK    4  A    between atoms: O_19  and  C_27
REMARK    5  A    between atoms: C_31  and  C_33
REMARK                            x       y       z     vdW  Elec       q    Type
REMARK                         _______ _______ _______ _____ _____    ______ ____
ROOT
ATOM      1  C   UNL     1      34.315 -24.194 -15.079  0.00  0.00    +0.050 C 
ATOM      2  C   UNL     1      32.912 -23.629 -16.962  0.00  0.00    +0.148 C 
ATOM      3  C   UNL     1      33.333 -23.727 -14.207  0.00  0.00    -0.008 C 
ATOM      4  C   UNL     1      34.105 -24.145 -16.458  0.00  0.00    +0.052 C 
ATOM      5  C   UNL     1      32.139 -23.211 -14.712  0.00  0.00    +0.000 C 
ATOM      6  C   UNL     1      31.929 -23.162 -16.091  0.00  0.00    +0.037 C 
ATOM      7  C   UNL     1      33.531 -23.767 -12.726  0.00  0.00    +0.032 C 
ENDROOT
BRANCH   1   9
ATOM      8  O   UNL     1      37.044 -22.960 -14.931  0.00  0.00    -0.268 OA
ATOM      9  N   UNL     1      35.517 -24.715 -14.592  0.00  0.00    -0.279 N 
ATOM     10  C   UNL     1      36.769 -24.092 -14.547  0.00  0.00    +0.265 C 
ATOM     11  H   UNL     1      35.477 -25.633 -14.238  0.00  0.00    +0.155 HD
BRANCH  10  14
ATOM     12  N   UNL     1      37.938 -25.402 -12.718  0.00  0.00    -0.206 N 
ATOM     13  N   UNL     1      39.042 -26.125 -12.467  0.00  0.00    -0.182 NA
ATOM     14  C   UNL     1      37.872 -24.921 -13.993  0.00  0.00    +0.124 C 
ATOM     15  C   UNL     1      39.013 -25.361 -14.619  0.00  0.00    +0.037 C 
ATOM     16  C   UNL     1      39.695 -26.097 -13.632  0.00  0.00    +0.078 C 
ATOM     17  C   UNL     1      36.966 -25.207 -11.667  0.00  0.00    +0.140 C 
ATOM     18  C   UNL     1      40.984 -26.796 -13.764  0.00  0.00    +0.054 C 
ENDBRANCH  10  14
ENDBRANCH   1   9
BRANCH   2  19
ATOM     19  O   UNL     1      32.702 -23.580 -18.338  0.00  0.00    -0.435 OA
BRANCH  19  27
ATOM     20  N   UNL     1      35.899 -19.832 -20.385  0.00  0.00    -0.373 NA
ATOM     21  N   UNL     1      33.996 -20.991 -20.287  0.00  0.00    -0.173 N 
ATOM     22  N   UNL     1      33.066 -21.900 -19.881  0.00  0.00    -0.138 NA
ATOM     23  C   UNL     1      35.030 -19.395 -21.352  0.00  0.00    +0.187 C 
ATOM     24  C   UNL     1      33.849 -20.095 -21.313  0.00  0.00    +0.193 C 
ATOM     25  C   UNL     1      35.258 -20.795 -19.753  0.00  0.00    +0.204 C 
ATOM     26  C   UNL     1      35.636 -21.621 -18.668  0.00  0.00    +0.054 C 
ATOM     27  C   UNL     1      33.474 -22.621 -18.887  0.00  0.00    +0.245 C 
ATOM     28  C   UNL     1      34.783 -22.542 -18.204  0.00  0.00    +0.063 C 
ATOM     29  O   UNL     1      33.416 -18.170 -23.578  0.00  0.00    -0.275 OA
ATOM     30  N   UNL     1      35.341 -18.383 -22.229  0.00  0.00    -0.261 N 
ATOM     31  C   UNL     1      34.551 -17.838 -23.262  0.00  0.00    +0.227 C 
ATOM     32  H   UNL     1      36.234 -17.985 -22.121  0.00  0.00    +0.157 HD
BRANCH  31  33
ATOM     33  C   UNL     1      35.208 -16.733 -24.030  0.00  0.00    +0.077 C 
ATOM     34  C   UNL     1      34.976 -15.313 -23.605  0.00  0.00    +0.010 C 
ATOM     35  C   UNL     1      34.360 -15.827 -24.873  0.00  0.00    +0.010 C 
ENDBRANCH  31  33
ENDBRANCH  19  27
ENDBRANCH   2  19
TORSDOF 5
ENDMDL
