MODEL 1
REMARK VINA RESULT:     -11.4      0.000      0.000
REMARK  Name = 5288017
REMARK  6 active torsions:
REMARK  status: ('A' for Active; 'I' for Inactive)
REMARK    1  A    between atoms: C_4  and  C_15
REMARK    2  A    between atoms: C_10  and  N_22
REMARK    3  A    between atoms: C_23  and  C_25
REMARK    4  A    between atoms: C_25  and  N_26
REMARK    5  A    between atoms: C_27  and  C_33
REMARK    6  A    between atoms: C_33  and  N_34
REMARK                            x       y       z     vdW  Elec       q    Type
REMARK                         _______ _______ _______ _____ _____    ______ ____
ROOT
ATOM      1  O   UNL     1      33.461 -23.803 -16.171  0.00  0.00    -0.286 OA
ATOM      2  N   UNL     1      37.361 -21.892 -17.193  0.00  0.00    -0.280 N 
ATOM      3  N   UNL     1      37.826 -22.243 -15.962  0.00  0.00    -0.173 NA
ATOM      4  C   UNL     1      36.059 -22.275 -17.448  0.00  0.00    +0.056 A 
ATOM      5  C   UNL     1      35.670 -22.908 -16.309  0.00  0.00    +0.071 A 
ATOM      6  C   UNL     1      36.774 -22.861 -15.445  0.00  0.00    +0.105 A 
ATOM      7  C   UNL     1      34.559 -23.588 -15.701  0.00  0.00    +0.199 C 
ATOM      8  C   UNL     1      35.091 -23.967 -14.345  0.00  0.00    +0.054 C 
ATOM      9  C   UNL     1      36.434 -23.514 -14.218  0.00  0.00    +0.024 C 
ATOM     10  C   UNL     1      34.474 -24.635 -13.326  0.00  0.00    +0.053 C 
ATOM     11  C   UNL     1      37.162 -23.730 -13.071  0.00  0.00    +0.002 C 
ATOM     12  C   UNL     1      35.186 -24.865 -12.159  0.00  0.00    +0.015 C 
ATOM     13  C   UNL     1      36.521 -24.416 -12.033  0.00  0.00    +0.001 C 
ATOM     14  H   UNL     1      37.909 -21.405 -17.849  0.00  0.00    +0.189 HD
ENDROOT
BRANCH   4  15
ATOM     15  C   UNL     1      35.358 -21.977 -18.766  0.00  0.00    +0.040 C 
ATOM     16  C   UNL     1      33.863 -21.681 -18.564  0.00  0.00    +0.006 C 
ATOM     17  C   UNL     1      36.051 -20.841 -19.538  0.00  0.00    +0.006 C 
ATOM     18  C   UNL     1      33.166 -21.391 -19.893  0.00  0.00    +0.000 C 
ATOM     19  C   UNL     1      35.344 -20.557 -20.862  0.00  0.00    +0.000 C 
ATOM     20  C   UNL     1      33.860 -20.267 -20.659  0.00  0.00    +0.000 C 
ENDBRANCH   4  15
BRANCH  10  22
ATOM     21  O   UNL     1      31.911 -23.409 -12.358  0.00  0.00    -0.277 OA
ATOM     22  N   UNL     1      33.139 -25.093 -13.438  0.00  0.00    -0.286 N 
ATOM     23  C   UNL     1      31.984 -24.471 -12.967  0.00  0.00    +0.205 C 
ATOM     24  H   UNL     1      33.011 -25.949 -13.906  0.00  0.00    +0.155 HD
BRANCH  23  25
ATOM     25  C   UNL     1      30.763 -25.308 -13.305  0.00  0.00    +0.010 C 
BRANCH  25  26
ATOM     26  N   UNL     1      30.115 -24.763 -14.499  0.00  0.00    +0.393 N 
ATOM     27  C   UNL     1      27.987 -23.374 -15.961  0.00  0.00    -0.026 C 
ATOM     28  C   UNL     1      29.334 -22.714 -15.644  0.00  0.00    -0.025 C 
ATOM     29  C   UNL     1      28.153 -24.897 -16.000  0.00  0.00    -0.025 C 
ATOM     30  C   UNL     1      29.961 -23.306 -14.381  0.00  0.00    -0.077 C 
ATOM     31  C   UNL     1      28.819 -25.416 -14.724  0.00  0.00    -0.077 C 
ATOM     32  H   UNL     1      30.708 -24.953 -15.307  0.00  0.00    -0.079 HD
BRANCH  27  33
ATOM     33  C   UNL     1      27.415 -22.850 -17.275  0.00  0.00    -0.086 C 
BRANCH  33  34
ATOM     34  N   UNL     1      26.313 -21.931 -17.032  0.00  0.00    +0.380 N 
ATOM     35  H   UNL     1      25.568 -22.108 -17.706  0.00  0.00    -0.089 HD
ATOM     36  H   UNL     1      26.641 -20.971 -17.133  0.00  0.00    -0.089 HD
ATOM     37  H   UNL     1      25.956 -22.071 -16.087  0.00  0.00    -0.089 HD
ENDBRANCH  33  34
ENDBRANCH  27  33
ENDBRANCH  25  26
ENDBRANCH  23  25
ENDBRANCH  10  22
TORSDOF 6
ENDMDL
MODEL 2
REMARK VINA RESULT:     -10.9      2.404      7.392
REMARK  Name = 5288017
REMARK  6 active torsions:
REMARK  status: ('A' for Active; 'I' for Inactive)
REMARK    1  A    between atoms: C_4  and  C_15
REMARK    2  A    between atoms: C_10  and  N_22
REMARK    3  A    between atoms: C_23  and  C_25
REMARK    4  A    between atoms: C_25  and  N_26
REMARK    5  A    between atoms: C_27  and  C_33
REMARK    6  A    between atoms: C_33  and  N_34
REMARK                            x       y       z     vdW  Elec       q    Type
REMARK                         _______ _______ _______ _____ _____    ______ ____
ROOT
ATOM      1  O   UNL     1      32.478 -23.191 -16.951  0.00  0.00    -0.286 OA
ATOM      2  N   UNL     1      31.174 -24.350 -12.845  0.00  0.00    -0.280 N 
ATOM      3  N   UNL     1      32.478 -24.331 -12.453  0.00  0.00    -0.173 NA
ATOM      4  C   UNL     1      30.966 -24.032 -14.172  0.00  0.00    +0.056 A 
ATOM      5  C   UNL     1      32.215 -23.797 -14.657  0.00  0.00    +0.071 A 
ATOM      6  C   UNL     1      33.091 -23.991 -13.578  0.00  0.00    +0.105 A 
ATOM      7  C   UNL     1      32.928 -23.430 -15.850  0.00  0.00    +0.199 C 
ATOM      8  C   UNL     1      34.364 -23.415 -15.397  0.00  0.00    +0.054 C 
ATOM      9  C   UNL     1      34.432 -23.759 -14.019  0.00  0.00    +0.024 C 
ATOM     10  C   UNL     1      35.495 -23.133 -16.110  0.00  0.00    +0.053 C 
ATOM     11  C   UNL     1      35.632 -23.819 -13.349  0.00  0.00    +0.002 C 
ATOM     12  C   UNL     1      36.717 -23.188 -15.457  0.00  0.00    +0.015 C 
ATOM     13  C   UNL     1      36.785 -23.528 -14.087  0.00  0.00    +0.001 C 
ATOM     14  H   UNL     1      30.438 -24.571 -12.230  0.00  0.00    +0.189 HD
ENDROOT
BRANCH   4  15
ATOM     15  C   UNL     1      29.581 -23.997 -14.801  0.00  0.00    +0.040 C 
ATOM     16  C   UNL     1      29.085 -22.557 -15.013  0.00  0.00    +0.006 C 
ATOM     17  C   UNL     1      29.527 -24.802 -16.111  0.00  0.00    +0.006 C 
ATOM     18  C   UNL     1      27.690 -22.533 -15.638  0.00  0.00    +0.000 C 
ATOM     19  C   UNL     1      28.130 -24.768 -16.729  0.00  0.00    +0.000 C 
ATOM     20  C   UNL     1      27.640 -23.338 -16.934  0.00  0.00    +0.000 C 
ENDBRANCH   4  15
BRANCH  10  22
ATOM     21  O   UNL     1      36.980 -21.022 -17.641  0.00  0.00    -0.277 OA
ATOM     22  N   UNL     1      35.443 -22.789 -17.482  0.00  0.00    -0.286 N 
ATOM     23  C   UNL     1      36.165 -21.794 -18.136  0.00  0.00    +0.205 C 
ATOM     24  H   UNL     1      34.826 -23.316 -18.039  0.00  0.00    +0.155 HD
BRANCH  23  25
ATOM     25  C   UNL     1      35.804 -21.767 -19.611  0.00  0.00    +0.010 C 
BRANCH  25  26
ATOM     26  N   UNL     1      35.655 -20.379 -20.050  0.00  0.00    +0.393 N 
ATOM     27  C   UNL     1      35.433 -18.236 -22.040  0.00  0.00    -0.026 C 
ATOM     28  C   UNL     1      34.224 -18.760 -21.256  0.00  0.00    -0.025 C 
ATOM     29  C   UNL     1      36.717 -18.487 -21.241  0.00  0.00    -0.025 C 
ATOM     30  C   UNL     1      34.422 -20.217 -20.834  0.00  0.00    -0.077 C 
ATOM     31  C   UNL     1      36.832 -19.953 -20.820  0.00  0.00    -0.077 C 
ATOM     32  H   UNL     1      35.585 -19.782 -19.227  0.00  0.00    -0.079 HD
BRANCH  27  33
ATOM     33  C   UNL     1      35.273 -16.755 -22.370  0.00  0.00    -0.086 C 
BRANCH  33  34
ATOM     34  N   UNL     1      35.216 -16.547 -23.810  0.00  0.00    +0.380 N 
ATOM     35  H   UNL     1      36.050 -16.942 -24.243  0.00  0.00    -0.089 HD
ATOM     36  H   UNL     1      35.170 -15.547 -24.008  0.00  0.00    -0.089 HD
ATOM     37  H   UNL     1      34.388 -17.007 -24.187  0.00  0.00    -0.089 HD
ENDBRANCH  33  34
ENDBRANCH  27  33
ENDBRANCH  25  26
ENDBRANCH  23  25
ENDBRANCH  10  22
TORSDOF 6
ENDMDL
MODEL 3
REMARK VINA RESULT:     -10.7      3.019      7.803
REMARK  Name = 5288017
REMARK  6 active torsions:
REMARK  status: ('A' for Active; 'I' for Inactive)
REMARK    1  A    between atoms: C_4  and  C_15
REMARK    2  A    between atoms: C_10  and  N_22
REMARK    3  A    between atoms: C_23  and  C_25
REMARK    4  A    between atoms: C_25  and  N_26
REMARK    5  A    between atoms: C_27  and  C_33
REMARK    6  A    between atoms: C_33  and  N_34
REMARK                            x       y       z     vdW  Elec       q    Type
REMARK                         _______ _______ _______ _____ _____    ______ ____
ROOT
ATOM      1  O   UNL     1      32.382 -22.719 -17.627  0.00  0.00    -0.286 OA
ATOM      2  N   UNL     1      32.441 -24.286 -13.451  0.00  0.00    -0.280 N 
ATOM      3  N   UNL     1      33.795 -24.132 -13.439  0.00  0.00    -0.173 NA
ATOM      4  C   UNL     1      31.828 -23.914 -14.630  0.00  0.00    +0.056 A 
ATOM      5  C   UNL     1      32.854 -23.496 -15.420  0.00  0.00    +0.071 A 
ATOM      6  C   UNL     1      34.019 -23.649 -14.653  0.00  0.00    +0.105 A 
ATOM      7  C   UNL     1      33.152 -22.970 -16.724  0.00  0.00    +0.199 C 
ATOM      8  C   UNL     1      34.648 -22.807 -16.692  0.00  0.00    +0.054 C 
ATOM      9  C   UNL     1      35.145 -23.226 -15.427  0.00  0.00    +0.024 C 
ATOM     10  C   UNL     1      35.491 -22.344 -17.662  0.00  0.00    +0.053 C 
ATOM     11  C   UNL     1      36.488 -23.180 -15.129  0.00  0.00    +0.002 C 
ATOM     12  C   UNL     1      36.849 -22.288 -17.386  0.00  0.00    +0.015 C 
ATOM     13  C   UNL     1      37.344 -22.703 -16.128  0.00  0.00    +0.001 C 
ATOM     14  H   UNL     1      31.940 -24.635 -12.679  0.00  0.00    +0.189 HD
ENDROOT
BRANCH   4  15
ATOM     15  C   UNL     1      30.324 -24.010 -14.841  0.00  0.00    +0.040 C 
ATOM     16  C   UNL     1      29.689 -22.628 -15.068  0.00  0.00    +0.006 C 
ATOM     17  C   UNL     1      29.967 -24.980 -15.980  0.00  0.00    +0.006 C 
ATOM     18  C   UNL     1      28.178 -22.735 -15.270  0.00  0.00    +0.000 C 
ATOM     19  C   UNL     1      28.455 -25.076 -16.176  0.00  0.00    +0.000 C 
ATOM     20  C   UNL     1      27.827 -23.703 -16.397  0.00  0.00    +0.000 C 
ENDBRANCH   4  15
BRANCH  10  22
ATOM     21  O   UNL     1      36.642 -20.386 -19.623  0.00  0.00    -0.277 OA
ATOM     22  N   UNL     1      35.011 -21.922 -18.925  0.00  0.00    -0.286 N 
ATOM     23  C   UNL     1      35.598 -21.006 -19.795  0.00  0.00    +0.205 C 
ATOM     24  H   UNL     1      34.165 -22.326 -19.225  0.00  0.00    +0.155 HD
BRANCH  23  25
ATOM     25  C   UNL     1      34.748 -20.848 -21.043  0.00  0.00    +0.010 C 
BRANCH  25  26
ATOM     26  N   UNL     1      35.125 -19.616 -21.736  0.00  0.00    +0.393 N 
ATOM     27  C   UNL     1      34.621 -16.989 -22.937  0.00  0.00    -0.026 C 
ATOM     28  C   UNL     1      35.301 -17.153 -21.574  0.00  0.00    -0.025 C 
ATOM     29  C   UNL     1      34.837 -18.250 -23.780  0.00  0.00    -0.025 C 
ATOM     30  C   UNL     1      34.864 -18.447 -20.884  0.00  0.00    -0.077 C 
ATOM     31  C   UNL     1      34.413 -19.507 -23.017  0.00  0.00    -0.077 C 
ATOM     32  H   UNL     1      36.125 -19.644 -21.933  0.00  0.00    -0.079 HD
BRANCH  27  33
ATOM     33  C   UNL     1      35.137 -15.749 -23.662  0.00  0.00    -0.086 C 
BRANCH  33  34
ATOM     34  N   UNL     1      34.558 -14.539 -23.098  0.00  0.00    +0.380 N 
ATOM     35  H   UNL     1      35.171 -14.177 -22.368  0.00  0.00    -0.089 HD
ATOM     36  H   UNL     1      33.643 -14.753 -22.699  0.00  0.00    -0.089 HD
ATOM     37  H   UNL     1      34.454 -13.838 -23.832  0.00  0.00    -0.089 HD
ENDBRANCH  33  34
ENDBRANCH  27  33
ENDBRANCH  25  26
ENDBRANCH  23  25
ENDBRANCH  10  22
TORSDOF 6
ENDMDL
MODEL 4
REMARK VINA RESULT:     -10.5     11.834     15.563
REMARK  Name = 5288017
REMARK  6 active torsions:
REMARK  status: ('A' for Active; 'I' for Inactive)
REMARK    1  A    between atoms: C_4  and  C_15
REMARK    2  A    between atoms: C_10  and  N_22
REMARK    3  A    between atoms: C_23  and  C_25
REMARK    4  A    between atoms: C_25  and  N_26
REMARK    5  A    between atoms: C_27  and  C_33
REMARK    6  A    between atoms: C_33  and  N_34
REMARK                            x       y       z     vdW  Elec       q    Type
REMARK                         _______ _______ _______ _____ _____    ______ ____
ROOT
ATOM      1  O   UNL     1      32.355  -9.743 -24.123  0.00  0.00    -0.286 OA
ATOM      2  N   UNL     1      31.909  -5.892 -21.915  0.00  0.00    -0.280 N 
ATOM      3  N   UNL     1      31.774  -6.601 -20.759  0.00  0.00    -0.173 NA
ATOM      4  C   UNL     1      32.094  -6.663 -23.045  0.00  0.00    +0.056 A 
ATOM      5  C   UNL     1      32.075  -7.942 -22.581  0.00  0.00    +0.071 A 
ATOM      6  C   UNL     1      31.879  -7.847 -21.195  0.00  0.00    +0.105 A 
ATOM      7  C   UNL     1      32.182  -9.312 -23.002  0.00  0.00    +0.199 C 
ATOM      8  C   UNL     1      32.031 -10.077 -21.714  0.00  0.00    +0.054 C 
ATOM      9  C   UNL     1      31.848  -9.165 -20.638  0.00  0.00    +0.024 C 
ATOM     10  C   UNL     1      32.048 -11.426 -21.500  0.00  0.00    +0.053 C 
ATOM     11  C   UNL     1      31.684  -9.601 -19.344  0.00  0.00    +0.002 C 
ATOM     12  C   UNL     1      31.885 -11.890 -20.203  0.00  0.00    +0.015 C 
ATOM     13  C   UNL     1      31.705 -10.985 -19.133  0.00  0.00    +0.001 C 
ATOM     14  H   UNL     1      31.878  -4.909 -21.942  0.00  0.00    +0.189 HD
ENDROOT
BRANCH   4  15
ATOM     15  C   UNL     1      32.265  -6.061 -24.432  0.00  0.00    +0.040 C 
ATOM     16  C   UNL     1      32.189  -4.525 -24.401  0.00  0.00    +0.006 C 
ATOM     17  C   UNL     1      33.561  -6.540 -25.108  0.00  0.00    +0.006 C 
ATOM     18  C   UNL     1      32.354  -3.930 -25.799  0.00  0.00    +0.000 C 
ATOM     19  C   UNL     1      33.719  -5.936 -26.502  0.00  0.00    +0.000 C 
ATOM     20  C   UNL     1      33.639  -4.412 -26.468  0.00  0.00    +0.000 C 
ENDBRANCH   4  15
BRANCH  10  22
ATOM     21  O   UNL     1      34.455 -11.971 -23.208  0.00  0.00    -0.277 OA
ATOM     22  N   UNL     1      32.230 -12.346 -22.560  0.00  0.00    -0.286 N 
ATOM     23  C   UNL     1      33.381 -12.554 -23.317  0.00  0.00    +0.205 C 
ATOM     24  H   UNL     1      31.453 -12.905 -22.788  0.00  0.00    +0.155 HD
BRANCH  23  25
ATOM     25  C   UNL     1      33.139 -13.639 -24.352  0.00  0.00    +0.010 C 
BRANCH  25  26
ATOM     26  N   UNL     1      33.488 -14.941 -23.783  0.00  0.00    +0.393 N 
ATOM     27  C   UNL     1      35.301 -17.154 -23.139  0.00  0.00    -0.026 C 
ATOM     28  C   UNL     1      34.843 -16.134 -22.091  0.00  0.00    -0.025 C 
ATOM     29  C   UNL     1      34.265 -17.240 -24.265  0.00  0.00    -0.025 C 
ATOM     30  C   UNL     1      34.506 -14.787 -22.733  0.00  0.00    -0.077 C 
ATOM     31  C   UNL     1      33.948 -15.857 -24.836  0.00  0.00    -0.077 C 
ATOM     32  H   UNL     1      32.655 -15.345 -23.356  0.00  0.00    -0.079 HD
BRANCH  27  33
ATOM     33  C   UNL     1      35.540 -18.522 -22.507  0.00  0.00    -0.086 C 
BRANCH  33  34
ATOM     34  N   UNL     1      35.453 -18.446 -21.056  0.00  0.00    +0.380 N 
ATOM     35  H   UNL     1      36.320 -18.791 -20.646  0.00  0.00    -0.089 HD
ATOM     36  H   UNL     1      34.672 -19.018 -20.731  0.00  0.00    -0.089 HD
ATOM     37  H   UNL     1      35.306 -17.477 -20.775  0.00  0.00    -0.089 HD
ENDBRANCH  33  34
ENDBRANCH  27  33
ENDBRANCH  25  26
ENDBRANCH  23  25
ENDBRANCH  10  22
TORSDOF 6
ENDMDL
MODEL 5
REMARK VINA RESULT:     -10.5      2.254      6.492
REMARK  Name = 5288017
REMARK  6 active torsions:
REMARK  status: ('A' for Active; 'I' for Inactive)
REMARK    1  A    between atoms: C_4  and  C_15
REMARK    2  A    between atoms: C_10  and  N_22
REMARK    3  A    between atoms: C_23  and  C_25
REMARK    4  A    between atoms: C_25  and  N_26
REMARK    5  A    between atoms: C_27  and  C_33
REMARK    6  A    between atoms: C_33  and  N_34
REMARK                            x       y       z     vdW  Elec       q    Type
REMARK                         _______ _______ _______ _____ _____    ______ ____
ROOT
ATOM      1  O   UNL     1      34.905 -24.152 -15.260  0.00  0.00    -0.286 OA
ATOM      2  N   UNL     1      32.135 -22.311 -18.232  0.00  0.00    -0.280 N 
ATOM      3  N   UNL     1      31.089 -22.642 -17.425  0.00  0.00    -0.173 NA
ATOM      4  C   UNL     1      33.375 -22.682 -17.752  0.00  0.00    +0.056 A 
ATOM      5  C   UNL     1      33.103 -23.289 -16.566  0.00  0.00    +0.071 A 
ATOM      6  C   UNL     1      31.709 -23.238 -16.416  0.00  0.00    +0.105 A 
ATOM      7  C   UNL     1      33.725 -23.943 -15.447  0.00  0.00    +0.199 C 
ATOM      8  C   UNL     1      32.556 -24.301 -14.568  0.00  0.00    +0.054 C 
ATOM      9  C   UNL     1      31.349 -23.862 -15.180  0.00  0.00    +0.024 C 
ATOM     10  C   UNL     1      32.542 -24.942 -13.362  0.00  0.00    +0.053 C 
ATOM     11  C   UNL     1      30.125 -24.063 -14.585  0.00  0.00    +0.002 C 
ATOM     12  C   UNL     1      31.320 -25.157 -12.742  0.00  0.00    +0.015 C 
ATOM     13  C   UNL     1      30.121 -24.720 -13.349  0.00  0.00    +0.001 C 
ATOM     14  H   UNL     1      32.017 -21.842 -19.090  0.00  0.00    +0.189 HD
ENDROOT
BRANCH   4  15
ATOM     15  C   UNL     1      34.666 -22.402 -18.506  0.00  0.00    +0.040 C 
ATOM     16  C   UNL     1      34.469 -21.341 -19.603  0.00  0.00    +0.006 C 
ATOM     17  C   UNL     1      35.811 -22.012 -17.556  0.00  0.00    +0.006 C 
ATOM     18  C   UNL     1      35.769 -21.073 -20.360  0.00  0.00    +0.000 C 
ATOM     19  C   UNL     1      37.104 -21.741 -18.323  0.00  0.00    +0.000 C 
ATOM     20  C   UNL     1      36.904 -20.692 -19.412  0.00  0.00    +0.000 C 
ENDBRANCH   4  15
BRANCH  10  22
ATOM     21  O   UNL     1      34.388 -23.521 -11.471  0.00  0.00    -0.277 OA
ATOM     22  N   UNL     1      33.734 -25.383 -12.740  0.00  0.00    -0.286 N 
ATOM     23  C   UNL     1      34.550 -24.672 -11.863  0.00  0.00    +0.205 C 
ATOM     24  H   UNL     1      34.020 -26.302 -12.951  0.00  0.00    +0.155 HD
BRANCH  23  25
ATOM     25  C   UNL     1      35.729 -25.526 -11.432  0.00  0.00    +0.010 C 
BRANCH  25  26
ATOM     26  N   UNL     1      36.783 -25.446 -12.444  0.00  0.00    +0.393 N 
ATOM     27  C   UNL     1      39.405 -26.075 -13.597  0.00  0.00    -0.026 C 
ATOM     28  C   UNL     1      38.105 -26.697 -14.120  0.00  0.00    -0.025 C 
ATOM     29  C   UNL     1      39.103 -24.731 -12.926  0.00  0.00    -0.025 C 
ATOM     30  C   UNL     1      37.042 -26.772 -13.022  0.00  0.00    -0.077 C 
ATOM     31  C   UNL     1      38.007 -24.872 -11.867  0.00  0.00    -0.077 C 
ATOM     32  H   UNL     1      36.470 -24.831 -13.194  0.00  0.00    -0.079 HD
BRANCH  27  33
ATOM     33  C   UNL     1      40.425 -25.911 -14.719  0.00  0.00    -0.086 C 
BRANCH  33  34
ATOM     34  N   UNL     1      40.023 -24.855 -15.637  0.00  0.00    +0.380 N 
ATOM     35  H   UNL     1      40.773 -24.170 -15.716  0.00  0.00    -0.089 HD
ATOM     36  H   UNL     1      39.181 -24.399 -15.284  0.00  0.00    -0.089 HD
ATOM     37  H   UNL     1      39.833 -25.257 -16.555  0.00  0.00    -0.089 HD
ENDBRANCH  33  34
ENDBRANCH  27  33
ENDBRANCH  25  26
ENDBRANCH  23  25
ENDBRANCH  10  22
TORSDOF 6
ENDMDL
MODEL 6
REMARK VINA RESULT:     -10.4      9.053     13.163
REMARK  Name = 5288017
REMARK  6 active torsions:
REMARK  status: ('A' for Active; 'I' for Inactive)
REMARK    1  A    between atoms: C_4  and  C_15
REMARK    2  A    between atoms: C_10  and  N_22
REMARK    3  A    between atoms: C_23  and  C_25
REMARK    4  A    between atoms: C_25  and  N_26
REMARK    5  A    between atoms: C_27  and  C_33
REMARK    6  A    between atoms: C_33  and  N_34
REMARK                            x       y       z     vdW  Elec       q    Type
REMARK                         _______ _______ _______ _____ _____    ______ ____
ROOT
ATOM      1  O   UNL     1      34.207 -15.268 -21.050  0.00  0.00    -0.286 OA
ATOM      2  N   UNL     1      35.072 -18.662 -23.813  0.00  0.00    -0.280 N 
ATOM      3  N   UNL     1      34.725 -17.864 -24.861  0.00  0.00    -0.173 NA
ATOM      4  C   UNL     1      34.981 -18.059 -22.575  0.00  0.00    +0.056 A 
ATOM      5  C   UNL     1      34.550 -16.799 -22.850  0.00  0.00    +0.071 A 
ATOM      6  C   UNL     1      34.411 -16.734 -24.244  0.00  0.00    +0.105 A 
ATOM      7  C   UNL     1      34.198 -15.551 -22.230  0.00  0.00    +0.199 C 
ATOM      8  C   UNL     1      33.819 -14.684 -23.402  0.00  0.00    +0.054 C 
ATOM      9  C   UNL     1      33.957 -15.426 -24.607  0.00  0.00    +0.024 C 
ATOM     10  C   UNL     1      33.396 -13.385 -23.419  0.00  0.00    +0.053 C 
ATOM     11  C   UNL     1      33.674 -14.870 -25.833  0.00  0.00    +0.002 C 
ATOM     12  C   UNL     1      33.105 -12.801 -24.642  0.00  0.00    +0.015 C 
ATOM     13  C   UNL     1      33.243 -13.538 -25.840  0.00  0.00    +0.001 C 
ATOM     14  H   UNL     1      35.364 -19.595 -23.930  0.00  0.00    +0.189 HD
ENDROOT
BRANCH   4  15
ATOM     15  C   UNL     1      35.325 -18.784 -21.281  0.00  0.00    +0.040 C 
ATOM     16  C   UNL     1      34.536 -20.095 -21.133  0.00  0.00    +0.006 C 
ATOM     17  C   UNL     1      36.838 -19.027 -21.146  0.00  0.00    +0.006 C 
ATOM     18  C   UNL     1      34.882 -20.810 -19.828  0.00  0.00    +0.000 C 
ATOM     19  C   UNL     1      37.172 -19.746 -19.841  0.00  0.00    +0.000 C 
ATOM     20  C   UNL     1      36.385 -21.045 -19.695  0.00  0.00    +0.000 C 
ENDBRANCH   4  15
BRANCH  10  22
ATOM     21  O   UNL     1      30.929 -12.390 -22.031  0.00  0.00    -0.277 OA
ATOM     22  N   UNL     1      33.255 -12.633 -22.228  0.00  0.00    -0.286 N 
ATOM     23  C   UNL     1      32.073 -12.202 -21.630  0.00  0.00    +0.205 C 
ATOM     24  H   UNL     1      34.090 -12.388 -21.767  0.00  0.00    +0.155 HD
BRANCH  23  25
ATOM     25  C   UNL     1      32.379 -11.425 -20.361  0.00  0.00    +0.010 C 
BRANCH  25  26
ATOM     26  N   UNL     1      31.964 -10.032 -20.531  0.00  0.00    +0.393 N 
ATOM     27  C   UNL     1      32.407  -7.168 -20.974  0.00  0.00    -0.026 C 
ATOM     28  C   UNL     1      31.882  -8.099 -22.073  0.00  0.00    -0.025 C 
ATOM     29  C   UNL     1      32.058  -7.743 -19.597  0.00  0.00    -0.025 C 
ATOM     30  C   UNL     1      32.356  -9.537 -21.858  0.00  0.00    -0.077 C 
ATOM     31  C   UNL     1      32.527  -9.193 -19.465  0.00  0.00    -0.077 C 
ATOM     32  H   UNL     1      30.947  -9.985 -20.465  0.00  0.00    -0.079 HD
BRANCH  27  33
ATOM     33  C   UNL     1      31.849  -5.757 -21.137  0.00  0.00    -0.086 C 
BRANCH  33  34
ATOM     34  N   UNL     1      30.530  -5.787 -21.752  0.00  0.00    +0.380 N 
ATOM     35  H   UNL     1      29.822  -5.916 -21.030  0.00  0.00    -0.089 HD
ATOM     36  H   UNL     1      30.483  -6.559 -22.417  0.00  0.00    -0.089 HD
ATOM     37  H   UNL     1      30.362  -4.907 -22.239  0.00  0.00    -0.089 HD
ENDBRANCH  33  34
ENDBRANCH  27  33
ENDBRANCH  25  26
ENDBRANCH  23  25
ENDBRANCH  10  22
TORSDOF 6
ENDMDL
MODEL 7
REMARK VINA RESULT:     -10.4      3.036      8.005
REMARK  Name = 5288017
REMARK  6 active torsions:
REMARK  status: ('A' for Active; 'I' for Inactive)
REMARK    1  A    between atoms: C_4  and  C_15
REMARK    2  A    between atoms: C_10  and  N_22
REMARK    3  A    between atoms: C_23  and  C_25
REMARK    4  A    between atoms: C_25  and  N_26
REMARK    5  A    between atoms: C_27  and  C_33
REMARK    6  A    between atoms: C_33  and  N_34
REMARK                            x       y       z     vdW  Elec       q    Type
REMARK                         _______ _______ _______ _____ _____    ______ ____
ROOT
ATOM      1  O   UNL     1      35.929 -23.140 -16.492  0.00  0.00    -0.286 OA
ATOM      2  N   UNL     1      34.550 -25.011 -12.684  0.00  0.00    -0.280 N 
ATOM      3  N   UNL     1      33.263 -24.791 -13.073  0.00  0.00    -0.173 NA
ATOM      4  C   UNL     1      35.505 -24.581 -13.584  0.00  0.00    +0.056 A 
ATOM      5  C   UNL     1      34.782 -24.055 -14.609  0.00  0.00    +0.071 A 
ATOM      6  C   UNL     1      33.434 -24.207 -14.250  0.00  0.00    +0.105 A 
ATOM      7  C   UNL     1      34.913 -23.418 -15.891  0.00  0.00    +0.199 C 
ATOM      8  C   UNL     1      33.483 -23.184 -16.303  0.00  0.00    +0.054 C 
ATOM      9  C   UNL     1      32.611 -23.671 -15.290  0.00  0.00    +0.024 C 
ATOM     10  C   UNL     1      32.991 -22.607 -17.438  0.00  0.00    +0.053 C 
ATOM     11  C   UNL     1      31.244 -23.583 -15.413  0.00  0.00    +0.002 C 
ATOM     12  C   UNL     1      31.616 -22.506 -17.586  0.00  0.00    +0.015 C 
ATOM     13  C   UNL     1      30.749 -22.991 -16.581  0.00  0.00    +0.001 C 
ATOM     14  H   UNL     1      34.781 -25.442 -11.831  0.00  0.00    +0.189 HD
ENDROOT
BRANCH   4  15
ATOM     15  C   UNL     1      36.998 -24.736 -13.335  0.00  0.00    +0.040 C 
ATOM     16  C   UNL     1      37.303 -25.928 -12.412  0.00  0.00    +0.006 C 
ATOM     17  C   UNL     1      37.791 -24.833 -14.649  0.00  0.00    +0.006 C 
ATOM     18  C   UNL     1      38.803 -26.070 -12.161  0.00  0.00    +0.000 C 
ATOM     19  C   UNL     1      39.289 -24.980 -14.387  0.00  0.00    +0.000 C 
ATOM     20  C   UNL     1      39.587 -26.161 -13.468  0.00  0.00    +0.000 C 
ENDBRANCH   4  15
BRANCH  10  22
ATOM     21  O   UNL     1      32.412 -20.799 -19.762  0.00  0.00    -0.277 OA
ATOM     22  N   UNL     1      33.846 -22.118 -18.455  0.00  0.00    -0.286 N 
ATOM     23  C   UNL     1      33.515 -21.274 -19.512  0.00  0.00    +0.205 C 
ATOM     24  H   UNL     1      34.786 -22.408 -18.409  0.00  0.00    +0.155 HD
BRANCH  23  25
ATOM     25  C   UNL     1      34.738 -20.999 -20.369  0.00  0.00    +0.010 C 
BRANCH  25  26
ATOM     26  N   UNL     1      34.512 -19.794 -21.168  0.00  0.00    +0.393 N 
ATOM     27  C   UNL     1      35.224 -17.756 -23.152  0.00  0.00    -0.026 C 
ATOM     28  C   UNL     1      34.224 -18.879 -23.449  0.00  0.00    -0.025 C 
ATOM     29  C   UNL     1      35.268 -17.486 -21.644  0.00  0.00    -0.025 C 
ATOM     30  C   UNL     1      34.512 -20.120 -22.601  0.00  0.00    -0.077 C 
ATOM     31  C   UNL     1      35.523 -18.773 -20.857  0.00  0.00    -0.077 C 
ATOM     32  H   UNL     1      33.597 -19.413 -20.932  0.00  0.00    -0.079 HD
BRANCH  27  33
ATOM     33  C   UNL     1      34.871 -16.489 -23.926  0.00  0.00    -0.086 C 
BRANCH  33  34
ATOM     34  N   UNL     1      34.881 -15.326 -23.051  0.00  0.00    +0.380 N 
ATOM     35  H   UNL     1      33.933 -15.132 -22.732  0.00  0.00    -0.089 HD
ATOM     36  H   UNL     1      35.240 -14.519 -23.562  0.00  0.00    -0.089 HD
ATOM     37  H   UNL     1      35.479 -15.512 -22.246  0.00  0.00    -0.089 HD
ENDBRANCH  33  34
ENDBRANCH  27  33
ENDBRANCH  25  26
ENDBRANCH  23  25
ENDBRANCH  10  22
TORSDOF 6
ENDMDL
MODEL 8
REMARK VINA RESULT:     -10.1      2.868      7.222
REMARK  Name = 5288017
REMARK  6 active torsions:
REMARK  status: ('A' for Active; 'I' for Inactive)
REMARK    1  A    between atoms: C_4  and  C_15
REMARK    2  A    between atoms: C_10  and  N_22
REMARK    3  A    between atoms: C_23  and  C_25
REMARK    4  A    between atoms: C_25  and  N_26
REMARK    5  A    between atoms: C_27  and  C_33
REMARK    6  A    between atoms: C_33  and  N_34
REMARK                            x       y       z     vdW  Elec       q    Type
REMARK                         _______ _______ _______ _____ _____    ______ ____
ROOT
ATOM      1  O   UNL     1      35.872 -24.502 -15.704  0.00  0.00    -0.286 OA
ATOM      2  N   UNL     1      35.894 -25.463 -11.347  0.00  0.00    -0.280 N 
ATOM      3  N   UNL     1      34.595 -25.056 -11.277  0.00  0.00    -0.173 NA
ATOM      4  C   UNL     1      36.459 -25.372 -12.603  0.00  0.00    +0.056 A 
ATOM      5  C   UNL     1      35.461 -24.876 -13.382  0.00  0.00    +0.071 A 
ATOM      6  C   UNL     1      34.358 -24.703 -12.532  0.00  0.00    +0.105 A 
ATOM      7  C   UNL     1      35.151 -24.480 -14.728  0.00  0.00    +0.199 C 
ATOM      8  C   UNL     1      33.716 -24.034 -14.631  0.00  0.00    +0.054 C 
ATOM      9  C   UNL     1      33.263 -24.180 -13.290  0.00  0.00    +0.024 C 
ATOM     10  C   UNL     1      32.890 -23.551 -15.605  0.00  0.00    +0.053 C 
ATOM     11  C   UNL     1      31.981 -23.844 -12.922  0.00  0.00    +0.002 C 
ATOM     12  C   UNL     1      31.592 -23.204 -15.259  0.00  0.00    +0.015 C 
ATOM     13  C   UNL     1      31.141 -23.350 -13.927  0.00  0.00    +0.001 C 
ATOM     14  H   UNL     1      36.389 -25.796 -10.565  0.00  0.00    +0.189 HD
ENDROOT
BRANCH   4  15
ATOM     15  C   UNL     1      37.898 -25.779 -12.888  0.00  0.00    +0.040 C 
ATOM     16  C   UNL     1      37.996 -26.734 -14.089  0.00  0.00    +0.006 C 
ATOM     17  C   UNL     1      38.812 -24.556 -13.074  0.00  0.00    +0.006 C 
ATOM     18  C   UNL     1      39.443 -27.143 -14.360  0.00  0.00    +0.000 C 
ATOM     19  C   UNL     1      40.255 -24.975 -13.350  0.00  0.00    +0.000 C 
ATOM     20  C   UNL     1      40.347 -25.926 -14.540  0.00  0.00    +0.000 C 
ENDBRANCH   4  15
BRANCH  10  22
ATOM     21  O   UNL     1      31.790 -21.862 -17.829  0.00  0.00    -0.277 OA
ATOM     22  N   UNL     1      33.326 -23.401 -16.943  0.00  0.00    -0.286 N 
ATOM     23  C   UNL     1      32.770 -22.593 -17.933  0.00  0.00    +0.205 C 
ATOM     24  H   UNL     1      34.115 -23.928 -17.204  0.00  0.00    +0.155 HD
BRANCH  23  25
ATOM     25  C   UNL     1      33.553 -22.733 -19.226  0.00  0.00    +0.010 C 
BRANCH  25  26
ATOM     26  N   UNL     1      34.253 -21.480 -19.510  0.00  0.00    +0.393 N 
ATOM     27  C   UNL     1      35.787 -19.617 -21.176  0.00  0.00    -0.026 C 
ATOM     28  C   UNL     1      34.292 -19.430 -20.894  0.00  0.00    -0.025 C 
ATOM     29  C   UNL     1      36.429 -20.431 -20.047  0.00  0.00    -0.025 C 
ATOM     30  C   UNL     1      33.604 -20.768 -20.619  0.00  0.00    -0.077 C 
ATOM     31  C   UNL     1      35.670 -21.737 -19.802  0.00  0.00    -0.077 C 
ATOM     32  H   UNL     1      34.205 -20.885 -18.683  0.00  0.00    -0.079 HD
BRANCH  27  33
ATOM     33  C   UNL     1      36.485 -18.272 -21.349  0.00  0.00    -0.086 C 
BRANCH  33  34
ATOM     34  N   UNL     1      35.792 -17.449 -22.329  0.00  0.00    +0.380 N 
ATOM     35  H   UNL     1      34.811 -17.362 -22.067  0.00  0.00    -0.089 HD
ATOM     36  H   UNL     1      35.861 -17.884 -23.249  0.00  0.00    -0.089 HD
ATOM     37  H   UNL     1      36.219 -16.523 -22.358  0.00  0.00    -0.089 HD
ENDBRANCH  33  34
ENDBRANCH  27  33
ENDBRANCH  25  26
ENDBRANCH  23  25
ENDBRANCH  10  22
TORSDOF 6
ENDMDL
MODEL 9
REMARK VINA RESULT:      -9.8     13.107     16.755
REMARK  Name = 5288017
REMARK  6 active torsions:
REMARK  status: ('A' for Active; 'I' for Inactive)
REMARK    1  A    between atoms: C_4  and  C_15
REMARK    2  A    between atoms: C_10  and  N_22
REMARK    3  A    between atoms: C_23  and  C_25
REMARK    4  A    between atoms: C_25  and  N_26
REMARK    5  A    between atoms: C_27  and  C_33
REMARK    6  A    between atoms: C_33  and  N_34
REMARK                            x       y       z     vdW  Elec       q    Type
REMARK                         _______ _______ _______ _____ _____    ______ ____
ROOT
ATOM      1  O   UNL     1      32.990  -8.129 -24.393  0.00  0.00    -0.286 OA
ATOM      2  N   UNL     1      32.111  -4.204 -22.464  0.00  0.00    -0.280 N 
ATOM      3  N   UNL     1      31.851  -4.863 -21.301  0.00  0.00    -0.173 NA
ATOM      4  C   UNL     1      32.473  -5.018 -23.519  0.00  0.00    +0.056 A 
ATOM      5  C   UNL     1      32.441  -6.273 -22.996  0.00  0.00    +0.071 A 
ATOM      6  C   UNL     1      32.060  -6.122 -21.654  0.00  0.00    +0.105 A 
ATOM      7  C   UNL     1      32.655  -7.655 -23.328  0.00  0.00    +0.199 C 
ATOM      8  C   UNL     1      32.363  -8.365 -22.032  0.00  0.00    +0.054 C 
ATOM      9  C   UNL     1      32.006  -7.412 -21.038  0.00  0.00    +0.024 C 
ATOM     10  C   UNL     1      32.403  -9.700 -21.747  0.00  0.00    +0.053 C 
ATOM     11  C   UNL     1      31.688  -7.794 -19.755  0.00  0.00    +0.002 C 
ATOM     12  C   UNL     1      32.087 -10.110 -20.460  0.00  0.00    +0.015 C 
ATOM     13  C   UNL     1      31.733  -9.165 -19.472  0.00  0.00    +0.001 C 
ATOM     14  H   UNL     1      32.047  -3.225 -22.546  0.00  0.00    +0.189 HD
ENDROOT
BRANCH   4  15
ATOM     15  C   UNL     1      32.803  -4.473 -24.901  0.00  0.00    +0.040 C 
ATOM     16  C   UNL     1      32.630  -2.947 -24.971  0.00  0.00    +0.006 C 
ATOM     17  C   UNL     1      34.210  -4.894 -25.361  0.00  0.00    +0.006 C 
ATOM     18  C   UNL     1      32.955  -2.411 -26.365  0.00  0.00    +0.000 C 
ATOM     19  C   UNL     1      34.528  -4.349 -26.752  0.00  0.00    +0.000 C 
ATOM     20  C   UNL     1      34.350  -2.835 -26.819  0.00  0.00    +0.000 C 
ENDBRANCH   4  15
BRANCH  10  22
ATOM     21  O   UNL     1      31.727 -12.617 -21.943  0.00  0.00    -0.277 OA
ATOM     22  N   UNL     1      32.758 -10.659 -22.725  0.00  0.00    -0.286 N 
ATOM     23  C   UNL     1      32.407 -12.007 -22.761  0.00  0.00    +0.205 C 
ATOM     24  H   UNL     1      33.317 -10.336 -23.469  0.00  0.00    +0.155 HD
BRANCH  23  25
ATOM     25  C   UNL     1      33.001 -12.672 -23.991  0.00  0.00    +0.010 C 
BRANCH  25  26
ATOM     26  N   UNL     1      33.278 -14.078 -23.697  0.00  0.00    +0.393 N 
ATOM     27  C   UNL     1      34.895 -16.525 -23.726  0.00  0.00    -0.026 C 
ATOM     28  C   UNL     1      34.731 -15.661 -22.470  0.00  0.00    -0.025 C 
ATOM     29  C   UNL     1      33.692 -16.322 -24.654  0.00  0.00    -0.025 C 
ATOM     30  C   UNL     1      34.458 -14.200 -22.830  0.00  0.00    -0.077 C 
ATOM     31  C   UNL     1      33.455 -14.839 -24.942  0.00  0.00    -0.077 C 
ATOM     32  H   UNL     1      32.480 -14.471 -23.199  0.00  0.00    -0.079 HD
BRANCH  27  33
ATOM     33  C   UNL     1      35.066 -17.996 -23.362  0.00  0.00    -0.086 C 
BRANCH  33  34
ATOM     34  N   UNL     1      36.091 -18.164 -22.342  0.00  0.00    +0.380 N 
ATOM     35  H   UNL     1      36.949 -17.704 -22.645  0.00  0.00    -0.089 HD
ATOM     36  H   UNL     1      36.270 -19.158 -22.199  0.00  0.00    -0.089 HD
ATOM     37  H   UNL     1      35.772 -17.746 -21.468  0.00  0.00    -0.089 HD
ENDBRANCH  33  34
ENDBRANCH  27  33
ENDBRANCH  25  26
ENDBRANCH  23  25
ENDBRANCH  10  22
TORSDOF 6
ENDMDL
