MODEL 1
REMARK VINA RESULT:     -11.4      0.000      0.000
REMARK  Name = 9890801
REMARK  11 active torsions:
REMARK  status: ('A' for Active; 'I' for Inactive)
REMARK    1  A    between atoms: N_1  and  S_2
REMARK    2  A    between atoms: N_1  and  C_11
REMARK    3  A    between atoms: N_1  and  C_22
REMARK    4  A    between atoms: S_2  and  C_6
REMARK    5  A    between atoms: C_11  and  C_13
REMARK    6  A    between atoms: C_12  and  C_18
REMARK    7  A    between atoms: C_22  and  C_23
REMARK    8  A    between atoms: C_26  and  O_29
REMARK    9  A    between atoms: O_29  and  C_30
REMARK   10  A    between atoms: C_30  and  C_32
REMARK   11  A    between atoms: C_32  and  O_33
REMARK                            x       y       z     vdW  Elec       q    Type
REMARK                         _______ _______ _______ _____ _____    ______ ____
ROOT
ATOM      1  N   UNL     1      34.419 -23.428 -15.602  0.00  0.00    -0.147 NA
ENDROOT
BRANCH   1   2
ATOM      2  S   UNL     1      35.726 -24.465 -15.164  0.00  0.00    +0.065 S 
ATOM      3  O   UNL     1      36.972 -23.909 -15.659  0.00  0.00    -0.153 OA
ATOM      4  O   UNL     1      35.381 -25.839 -15.484  0.00  0.00    -0.153 OA
BRANCH   2   6
ATOM      5  N   UNL     1      34.901 -25.054 -11.257  0.00  0.00    -0.241 NA
ATOM      6  C   UNL     1      35.754 -24.328 -13.398  0.00  0.00    +0.141 C 
ATOM      7  C   UNL     1      36.606 -23.430 -12.764  0.00  0.00    +0.023 C 
ATOM      8  C   UNL     1      34.929 -25.111 -12.607  0.00  0.00    +0.119 C 
ATOM      9  C   UNL     1      36.606 -23.345 -11.375  0.00  0.00    +0.022 C 
ATOM     10  C   UNL     1      35.742 -24.172 -10.675  0.00  0.00    +0.099 C 
ENDBRANCH   2   6
ENDBRANCH   1   2
BRANCH   1  11
ATOM     11  C   UNL     1      33.748 -23.671 -16.903  0.00  0.00    +0.122 C 
BRANCH  11  13
ATOM     12  C   UNL     1      34.902 -20.847 -19.907  0.00  0.00    -0.023 C 
ATOM     13  C   UNL     1      34.150 -22.688 -17.950  0.00  0.00    -0.004 C 
ATOM     14  C   UNL     1      33.553 -21.138 -19.705  0.00  0.00    -0.005 C 
ATOM     15  C   UNL     1      35.875 -21.477 -19.132  0.00  0.00    -0.005 C 
ATOM     16  C   UNL     1      33.177 -22.058 -18.727  0.00  0.00    -0.003 C 
ATOM     17  C   UNL     1      35.500 -22.397 -18.152  0.00  0.00    -0.003 C 
BRANCH  12  18
ATOM     18  C   UNL     1      35.317 -19.835 -20.988  0.00  0.00    +0.019 C 
ATOM     19  C   UNL     1      35.102 -20.450 -22.387  0.00  0.00    +0.004 C 
ATOM     20  C   UNL     1      36.808 -19.474 -20.815  0.00  0.00    +0.004 C 
ATOM     21  C   UNL     1      34.519 -18.512 -20.943  0.00  0.00    +0.004 C 
ENDBRANCH  12  18
ENDBRANCH  11  13
ENDBRANCH   1  11
BRANCH   1  22
ATOM     22  C   UNL     1      33.453 -23.046 -14.540  0.00  0.00    +0.123 C 
BRANCH  22  23
ATOM     23  C   UNL     1      32.071 -23.568 -14.813  0.00  0.00    -0.001 C 
ATOM     24  C   UNL     1      31.172 -22.805 -15.558  0.00  0.00    +0.034 C 
ATOM     25  C   UNL     1      31.687 -24.815 -14.321  0.00  0.00    -0.003 C 
ATOM     26  C   UNL     1      29.889 -23.289 -15.810  0.00  0.00    +0.139 C 
ATOM     27  C   UNL     1      30.403 -25.299 -14.574  0.00  0.00    +0.003 C 
ATOM     28  C   UNL     1      29.504 -24.536 -15.319  0.00  0.00    +0.037 C 
BRANCH  26  29
ATOM     29  O   UNL     1      29.010 -22.544 -16.536  0.00  0.00    -0.464 OA
BRANCH  29  30
ATOM     30  C   UNL     1      27.776 -23.166 -16.896  0.00  0.00    +0.314 C 
BRANCH  30  32
ATOM     31  O   UNL     1      26.350 -21.284 -17.471  0.00  0.00    -0.246 OA
ATOM     32  C   UNL     1      26.644 -22.194 -16.711  0.00  0.00    +0.359 C 
BRANCH  32  33
ATOM     33  O   UNL     1      25.975 -22.469 -15.563  0.00  0.00    -0.478 OA
ATOM     34  H   UNL     1      25.067 -22.696 -15.591  0.00  0.00    +0.295 HD
ENDBRANCH  32  33
ENDBRANCH  30  32
ENDBRANCH  29  30
ENDBRANCH  26  29
ENDBRANCH  22  23
ENDBRANCH   1  22
TORSDOF 11
ENDMDL
MODEL 2
REMARK VINA RESULT:     -10.0      3.061      6.650
REMARK  Name = 9890801
REMARK  11 active torsions:
REMARK  status: ('A' for Active; 'I' for Inactive)
REMARK    1  A    between atoms: N_1  and  S_2
REMARK    2  A    between atoms: N_1  and  C_11
REMARK    3  A    between atoms: N_1  and  C_22
REMARK    4  A    between atoms: S_2  and  C_6
REMARK    5  A    between atoms: C_11  and  C_13
REMARK    6  A    between atoms: C_12  and  C_18
REMARK    7  A    between atoms: C_22  and  C_23
REMARK    8  A    between atoms: C_26  and  O_29
REMARK    9  A    between atoms: O_29  and  C_30
REMARK   10  A    between atoms: C_30  and  C_32
REMARK   11  A    between atoms: C_32  and  O_33
REMARK                            x       y       z     vdW  Elec       q    Type
REMARK                         _______ _______ _______ _____ _____    ______ ____
ROOT
ATOM      1  N   UNL     1      35.773 -23.570 -15.504  0.00  0.00    -0.147 NA
ENDROOT
BRANCH   1   2
ATOM      2  S   UNL     1      36.473 -24.970 -14.779  0.00  0.00    +0.065 S 
ATOM      3  O   UNL     1      37.884 -25.033 -15.112  0.00  0.00    -0.153 OA
ATOM      4  O   UNL     1      35.627 -26.122 -15.035  0.00  0.00    -0.153 OA
BRANCH   2   6
ATOM      5  N   UNL     1      35.366 -25.098 -10.899  0.00  0.00    -0.241 NA
ATOM      6  C   UNL     1      36.357 -24.609 -13.048  0.00  0.00    +0.141 C 
ATOM      7  C   UNL     1      37.123 -23.600 -12.475  0.00  0.00    +0.023 C 
ATOM      8  C   UNL     1      35.502 -25.323 -12.224  0.00  0.00    +0.119 C 
ATOM      9  C   UNL     1      37.011 -23.339 -11.113  0.00  0.00    +0.022 C 
ATOM     10  C   UNL     1      36.126 -24.110 -10.376  0.00  0.00    +0.099 C 
ENDBRANCH   2   6
ENDBRANCH   1   2
BRANCH   1  11
ATOM     11  C   UNL     1      34.849 -22.752 -14.680  0.00  0.00    +0.122 C 
BRANCH  11  13
ATOM     12  C   UNL     1      30.767 -23.984 -15.057  0.00  0.00    -0.023 C 
ATOM     13  C   UNL     1      33.427 -23.181 -14.812  0.00  0.00    -0.004 C 
ATOM     14  C   UNL     1      31.469 -24.249 -13.881  0.00  0.00    -0.005 C 
ATOM     15  C   UNL     1      31.394 -23.318 -16.110  0.00  0.00    -0.005 C 
ATOM     16  C   UNL     1      32.799 -23.848 -13.759  0.00  0.00    -0.003 C 
ATOM     17  C   UNL     1      32.725 -22.916 -15.987  0.00  0.00    -0.003 C 
BRANCH  12  18
ATOM     18  C   UNL     1      29.300 -24.428 -15.193  0.00  0.00    +0.019 C 
ATOM     19  C   UNL     1      28.368 -23.222 -14.957  0.00  0.00    +0.004 C 
ATOM     20  C   UNL     1      28.991 -25.522 -14.149  0.00  0.00    +0.004 C 
ATOM     21  C   UNL     1      28.952 -25.010 -16.581  0.00  0.00    +0.004 C 
ENDBRANCH  12  18
ENDBRANCH  11  13
ENDBRANCH   1  11
BRANCH   1  22
ATOM     22  C   UNL     1      36.642 -22.731 -16.366  0.00  0.00    +0.123 C 
BRANCH  22  23
ATOM     23  C   UNL     1      35.943 -22.288 -17.621  0.00  0.00    -0.001 C 
ATOM     24  C   UNL     1      36.484 -21.263 -18.396  0.00  0.00    +0.034 C 
ATOM     25  C   UNL     1      34.753 -22.903 -18.009  0.00  0.00    -0.003 C 
ATOM     26  C   UNL     1      35.834 -20.852 -19.560  0.00  0.00    +0.139 C 
ATOM     27  C   UNL     1      34.103 -22.492 -19.173  0.00  0.00    +0.003 C 
ATOM     28  C   UNL     1      34.644 -21.466 -19.949  0.00  0.00    +0.037 C 
BRANCH  26  29
ATOM     29  O   UNL     1      36.360 -19.850 -20.317  0.00  0.00    -0.464 OA
BRANCH  29  30
ATOM     30  C   UNL     1      35.592 -19.413 -21.438  0.00  0.00    +0.314 C 
BRANCH  30  32
ATOM     31  O   UNL     1      35.201 -17.196 -20.523  0.00  0.00    -0.246 OA
ATOM     32  C   UNL     1      35.531 -17.911 -21.458  0.00  0.00    +0.359 C 
BRANCH  32  33
ATOM     33  O   UNL     1      35.901 -17.444 -22.677  0.00  0.00    -0.478 OA
ATOM     34  H   UNL     1      35.671 -16.573 -22.935  0.00  0.00    +0.295 HD
ENDBRANCH  32  33
ENDBRANCH  30  32
ENDBRANCH  29  30
ENDBRANCH  26  29
ENDBRANCH  22  23
ENDBRANCH   1  22
TORSDOF 11
ENDMDL
MODEL 3
REMARK VINA RESULT:     -10.0      2.540      6.354
REMARK  Name = 9890801
REMARK  11 active torsions:
REMARK  status: ('A' for Active; 'I' for Inactive)
REMARK    1  A    between atoms: N_1  and  S_2
REMARK    2  A    between atoms: N_1  and  C_11
REMARK    3  A    between atoms: N_1  and  C_22
REMARK    4  A    between atoms: S_2  and  C_6
REMARK    5  A    between atoms: C_11  and  C_13
REMARK    6  A    between atoms: C_12  and  C_18
REMARK    7  A    between atoms: C_22  and  C_23
REMARK    8  A    between atoms: C_26  and  O_29
REMARK    9  A    between atoms: O_29  and  C_30
REMARK   10  A    between atoms: C_30  and  C_32
REMARK   11  A    between atoms: C_32  and  O_33
REMARK                            x       y       z     vdW  Elec       q    Type
REMARK                         _______ _______ _______ _____ _____    ______ ____
ROOT
ATOM      1  N   UNL     1      33.445 -23.584 -16.184  0.00  0.00    -0.147 NA
ENDROOT
BRANCH   1   2
ATOM      2  S   UNL     1      32.430 -23.713 -14.796  0.00  0.00    +0.065 S 
ATOM      3  O   UNL     1      32.506 -22.485 -14.025  0.00  0.00    -0.153 OA
ATOM      4  O   UNL     1      32.671 -24.984 -14.137  0.00  0.00    -0.153 OA
BRANCH   2   6
ATOM      5  N   UNL     1      29.043 -22.690 -16.738  0.00  0.00    -0.241 NA
ATOM      6  C   UNL     1      30.809 -23.787 -15.506  0.00  0.00    +0.141 C 
ATOM      7  C   UNL     1      30.037 -24.940 -15.409  0.00  0.00    +0.023 C 
ATOM      8  C   UNL     1      30.271 -22.700 -16.175  0.00  0.00    +0.119 C 
ATOM      9  C   UNL     1      28.767 -24.968 -15.977  0.00  0.00    +0.022 C 
ATOM     10  C   UNL     1      28.321 -23.827 -16.625  0.00  0.00    +0.099 C 
ENDBRANCH   2   6
ENDBRANCH   1   2
BRANCH   1  11
ATOM     11  C   UNL     1      32.793 -23.517 -17.515  0.00  0.00    +0.122 C 
BRANCH  11  13
ATOM     12  C   UNL     1      34.662 -20.689 -20.130  0.00  0.00    -0.023 C 
ATOM     13  C   UNL     1      33.443 -22.532 -18.426  0.00  0.00    -0.004 C 
ATOM     14  C   UNL     1      35.422 -21.696 -19.534  0.00  0.00    -0.005 C 
ATOM     15  C   UNL     1      33.293 -20.603 -19.874  0.00  0.00    -0.005 C 
ATOM     16  C   UNL     1      34.813 -22.617 -18.682  0.00  0.00    -0.003 C 
ATOM     17  C   UNL     1      32.684 -21.525 -19.022  0.00  0.00    -0.003 C 
BRANCH  12  18
ATOM     18  C   UNL     1      35.334 -19.672 -21.068  0.00  0.00    +0.019 C 
ATOM     19  C   UNL     1      35.110 -20.092 -22.536  0.00  0.00    +0.004 C 
ATOM     20  C   UNL     1      36.849 -19.622 -20.778  0.00  0.00    +0.004 C 
ATOM     21  C   UNL     1      34.793 -18.233 -20.917  0.00  0.00    +0.004 C 
ENDBRANCH  12  18
ENDBRANCH  11  13
ENDBRANCH   1  11
BRANCH   1  22
ATOM     22  C   UNL     1      34.626 -22.687 -16.097  0.00  0.00    +0.123 C 
BRANCH  22  23
ATOM     23  C   UNL     1      35.829 -23.384 -15.529  0.00  0.00    -0.001 C 
ATOM     24  C   UNL     1      35.666 -24.492 -14.697  0.00  0.00    +0.034 C 
ATOM     25  C   UNL     1      37.110 -22.923 -15.834  0.00  0.00    -0.003 C 
ATOM     26  C   UNL     1      36.784 -25.138 -14.169  0.00  0.00    +0.139 C 
ATOM     27  C   UNL     1      38.228 -23.570 -15.305  0.00  0.00    +0.003 C 
ATOM     28  C   UNL     1      38.065 -24.677 -14.473  0.00  0.00    +0.037 C 
BRANCH  26  29
ATOM     29  O   UNL     1      36.626 -26.218 -13.356  0.00  0.00    -0.464 OA
BRANCH  29  30
ATOM     30  C   UNL     1      37.233 -26.153 -12.065  0.00  0.00    +0.314 C 
BRANCH  30  32
ATOM     31  O   UNL     1      36.923 -24.353 -10.462  0.00  0.00    -0.246 OA
ATOM     32  C   UNL     1      36.452 -25.220 -11.182  0.00  0.00    +0.359 C 
BRANCH  32  33
ATOM     33  O   UNL     1      35.123 -25.472 -11.297  0.00  0.00    -0.478 OA
ATOM     34  H   UNL     1      34.656 -25.190 -12.058  0.00  0.00    +0.295 HD
ENDBRANCH  32  33
ENDBRANCH  30  32
ENDBRANCH  29  30
ENDBRANCH  26  29
ENDBRANCH  22  23
ENDBRANCH   1  22
TORSDOF 11
ENDMDL
MODEL 4
REMARK VINA RESULT:      -9.7      2.551      6.929
REMARK  Name = 9890801
REMARK  11 active torsions:
REMARK  status: ('A' for Active; 'I' for Inactive)
REMARK    1  A    between atoms: N_1  and  S_2
REMARK    2  A    between atoms: N_1  and  C_11
REMARK    3  A    between atoms: N_1  and  C_22
REMARK    4  A    between atoms: S_2  and  C_6
REMARK    5  A    between atoms: C_11  and  C_13
REMARK    6  A    between atoms: C_12  and  C_18
REMARK    7  A    between atoms: C_22  and  C_23
REMARK    8  A    between atoms: C_26  and  O_29
REMARK    9  A    between atoms: O_29  and  C_30
REMARK   10  A    between atoms: C_30  and  C_32
REMARK   11  A    between atoms: C_32  and  O_33
REMARK                            x       y       z     vdW  Elec       q    Type
REMARK                         _______ _______ _______ _____ _____    ______ ____
ROOT
ATOM      1  N   UNL     1      33.518 -23.691 -16.232  0.00  0.00    -0.147 NA
ENDROOT
BRANCH   1   2
ATOM      2  S   UNL     1      32.540 -23.631 -14.813  0.00  0.00    +0.065 S 
ATOM      3  O   UNL     1      32.647 -22.316 -14.208  0.00  0.00    -0.153 OA
ATOM      4  O   UNL     1      32.788 -24.811 -14.004  0.00  0.00    -0.153 OA
BRANCH   2   6
ATOM      5  N   UNL     1      29.080 -22.790 -16.713  0.00  0.00    -0.241 NA
ATOM      6  C   UNL     1      30.900 -23.776 -15.466  0.00  0.00    +0.141 C 
ATOM      7  C   UNL     1      30.150 -24.930 -15.267  0.00  0.00    +0.023 C 
ATOM      8  C   UNL     1      30.324 -22.744 -16.189  0.00  0.00    +0.119 C 
ATOM      9  C   UNL     1      28.864 -25.016 -15.793  0.00  0.00    +0.022 C 
ATOM     10  C   UNL     1      28.380 -23.927 -16.501  0.00  0.00    +0.099 C 
ENDBRANCH   2   6
ENDBRANCH   1   2
BRANCH   1  11
ATOM     11  C   UNL     1      32.842 -23.550 -17.546  0.00  0.00    +0.122 C 
BRANCH  11  13
ATOM     12  C   UNL     1      34.778 -20.715 -20.103  0.00  0.00    -0.023 C 
ATOM     13  C   UNL     1      33.517 -22.563 -18.437  0.00  0.00    -0.004 C 
ATOM     14  C   UNL     1      33.404 -20.628 -19.880  0.00  0.00    -0.005 C 
ATOM     15  C   UNL     1      35.522 -21.726 -19.493  0.00  0.00    -0.005 C 
ATOM     16  C   UNL     1      32.773 -21.552 -19.048  0.00  0.00    -0.003 C 
ATOM     17  C   UNL     1      34.891 -22.650 -18.659  0.00  0.00    -0.003 C 
BRANCH  12  18
ATOM     18  C   UNL     1      35.474 -19.698 -21.023  0.00  0.00    +0.019 C 
ATOM     19  C   UNL     1      36.977 -19.629 -20.679  0.00  0.00    +0.004 C 
ATOM     20  C   UNL     1      34.842 -18.303 -20.826  0.00  0.00    +0.004 C 
ATOM     21  C   UNL     1      35.364 -20.039 -22.526  0.00  0.00    +0.004 C 
ENDBRANCH  12  18
ENDBRANCH  11  13
ENDBRANCH   1  11
BRANCH   1  22
ATOM     22  C   UNL     1      34.827 -22.989 -16.201  0.00  0.00    +0.123 C 
BRANCH  22  23
ATOM     23  C   UNL     1      35.727 -23.512 -15.118  0.00  0.00    -0.001 C 
ATOM     24  C   UNL     1      36.449 -24.688 -15.318  0.00  0.00    +0.034 C 
ATOM     25  C   UNL     1      35.840 -22.820 -13.912  0.00  0.00    -0.003 C 
ATOM     26  C   UNL     1      37.285 -25.173 -14.312  0.00  0.00    +0.139 C 
ATOM     27  C   UNL     1      36.676 -23.306 -12.906  0.00  0.00    +0.003 C 
ATOM     28  C   UNL     1      37.398 -24.482 -13.106  0.00  0.00    +0.037 C 
BRANCH  26  29
ATOM     29  O   UNL     1      37.989 -26.322 -14.505  0.00  0.00    -0.464 OA
BRANCH  29  30
ATOM     30  C   UNL     1      39.231 -26.446 -13.813  0.00  0.00    +0.314 C 
BRANCH  30  32
ATOM     31  O   UNL     1      41.070 -24.887 -14.127  0.00  0.00    -0.246 OA
ATOM     32  C   UNL     1      40.312 -25.733 -14.578  0.00  0.00    +0.359 C 
BRANCH  32  33
ATOM     33  O   UNL     1      40.337 -26.165 -15.864  0.00  0.00    -0.478 OA
ATOM     34  H   UNL     1      40.836 -26.923 -16.095  0.00  0.00    +0.295 HD
ENDBRANCH  32  33
ENDBRANCH  30  32
ENDBRANCH  29  30
ENDBRANCH  26  29
ENDBRANCH  22  23
ENDBRANCH   1  22
TORSDOF 11
ENDMDL
MODEL 5
REMARK VINA RESULT:      -9.7     12.432     16.529
REMARK  Name = 9890801
REMARK  11 active torsions:
REMARK  status: ('A' for Active; 'I' for Inactive)
REMARK    1  A    between atoms: N_1  and  S_2
REMARK    2  A    between atoms: N_1  and  C_11
REMARK    3  A    between atoms: N_1  and  C_22
REMARK    4  A    between atoms: S_2  and  C_6
REMARK    5  A    between atoms: C_11  and  C_13
REMARK    6  A    between atoms: C_12  and  C_18
REMARK    7  A    between atoms: C_22  and  C_23
REMARK    8  A    between atoms: C_26  and  O_29
REMARK    9  A    between atoms: O_29  and  C_30
REMARK   10  A    between atoms: C_30  and  C_32
REMARK   11  A    between atoms: C_32  and  O_33
REMARK                            x       y       z     vdW  Elec       q    Type
REMARK                         _______ _______ _______ _____ _____    ______ ____
ROOT
ATOM      1  N   UNL     1      32.153  -8.829 -22.173  0.00  0.00    -0.147 NA
ENDROOT
BRANCH   1   2
ATOM      2  S   UNL     1      32.239  -7.974 -20.677  0.00  0.00    +0.065 S 
ATOM      3  O   UNL     1      33.620  -7.916 -20.232  0.00  0.00    -0.153 OA
ATOM      4  O   UNL     1      31.218  -8.473 -19.775  0.00  0.00    -0.153 OA
BRANCH   2   6
ATOM      5  N   UNL     1      30.032  -4.666 -21.370  0.00  0.00    -0.241 NA
ATOM      6  C   UNL     1      31.769  -6.330 -21.143  0.00  0.00    +0.141 C 
ATOM      7  C   UNL     1      32.708  -5.429 -21.634  0.00  0.00    +0.023 C 
ATOM      8  C   UNL     1      30.456  -5.903 -21.031  0.00  0.00    +0.119 C 
ATOM      9  C   UNL     1      32.309  -4.145 -21.992  0.00  0.00    +0.022 C 
ATOM     10  C   UNL     1      30.971  -3.817 -21.842  0.00  0.00    +0.099 C 
ENDBRANCH   2   6
ENDBRANCH   1   2
BRANCH   1  11
ATOM     11  C   UNL     1      33.421  -9.083 -22.899  0.00  0.00    +0.122 C 
BRANCH  11  13
ATOM     12  C   UNL     1      34.461  -5.898 -25.564  0.00  0.00    -0.023 C 
ATOM     13  C   UNL     1      33.784  -7.974 -23.828  0.00  0.00    -0.004 C 
ATOM     14  C   UNL     1      33.205  -6.499 -25.652  0.00  0.00    -0.005 C 
ATOM     15  C   UNL     1      35.378  -6.335 -24.608  0.00  0.00    -0.005 C 
ATOM     16  C   UNL     1      32.867  -7.537 -24.785  0.00  0.00    -0.003 C 
ATOM     17  C   UNL     1      35.040  -7.373 -23.740  0.00  0.00    -0.003 C 
BRANCH  12  18
ATOM     18  C   UNL     1      34.836  -4.755 -26.523  0.00  0.00    +0.019 C 
ATOM     19  C   UNL     1      34.318  -5.076 -27.941  0.00  0.00    +0.004 C 
ATOM     20  C   UNL     1      36.371  -4.597 -26.566  0.00  0.00    +0.004 C 
ATOM     21  C   UNL     1      34.246  -3.385 -26.121  0.00  0.00    +0.004 C 
ENDBRANCH  12  18
ENDBRANCH  11  13
ENDBRANCH   1  11
BRANCH   1  22
ATOM     22  C   UNL     1      31.222  -9.983 -22.256  0.00  0.00    +0.123 C 
BRANCH  22  23
ATOM     23  C   UNL     1      31.890 -11.280 -21.896  0.00  0.00    -0.001 C 
ATOM     24  C   UNL     1      32.695 -11.933 -22.829  0.00  0.00    +0.034 C 
ATOM     25  C   UNL     1      31.703 -11.832 -20.629  0.00  0.00    -0.003 C 
ATOM     26  C   UNL     1      33.314 -13.137 -22.495  0.00  0.00    +0.139 C 
ATOM     27  C   UNL     1      32.322 -13.037 -20.295  0.00  0.00    +0.003 C 
ATOM     28  C   UNL     1      33.128 -13.690 -21.228  0.00  0.00    +0.037 C 
BRANCH  26  29
ATOM     29  O   UNL     1      34.100 -13.775 -23.405  0.00  0.00    -0.464 OA
BRANCH  29  30
ATOM     30  C   UNL     1      34.208 -15.194 -23.288  0.00  0.00    +0.314 C 
BRANCH  30  32
ATOM     31  O   UNL     1      34.765 -16.684 -25.125  0.00  0.00    -0.246 OA
ATOM     32  C   UNL     1      34.038 -15.831 -24.639  0.00  0.00    +0.359 C 
BRANCH  32  33
ATOM     33  O   UNL     1      32.945 -15.322 -25.261  0.00  0.00    -0.478 OA
ATOM     34  H   UNL     1      32.087 -15.585 -24.992  0.00  0.00    +0.295 HD
ENDBRANCH  32  33
ENDBRANCH  30  32
ENDBRANCH  29  30
ENDBRANCH  26  29
ENDBRANCH  22  23
ENDBRANCH   1  22
TORSDOF 11
ENDMDL
MODEL 6
REMARK VINA RESULT:      -9.4     12.765     16.950
REMARK  Name = 9890801
REMARK  11 active torsions:
REMARK  status: ('A' for Active; 'I' for Inactive)
REMARK    1  A    between atoms: N_1  and  S_2
REMARK    2  A    between atoms: N_1  and  C_11
REMARK    3  A    between atoms: N_1  and  C_22
REMARK    4  A    between atoms: S_2  and  C_6
REMARK    5  A    between atoms: C_11  and  C_13
REMARK    6  A    between atoms: C_12  and  C_18
REMARK    7  A    between atoms: C_22  and  C_23
REMARK    8  A    between atoms: C_26  and  O_29
REMARK    9  A    between atoms: O_29  and  C_30
REMARK   10  A    between atoms: C_30  and  C_32
REMARK   11  A    between atoms: C_32  and  O_33
REMARK                            x       y       z     vdW  Elec       q    Type
REMARK                         _______ _______ _______ _____ _____    ______ ____
ROOT
ATOM      1  N   UNL     1      32.217  -8.523 -22.618  0.00  0.00    -0.147 NA
ENDROOT
BRANCH   1   2
ATOM      2  S   UNL     1      32.276  -7.567 -21.183  0.00  0.00    +0.065 S 
ATOM      3  O   UNL     1      33.640  -7.525 -20.686  0.00  0.00    -0.153 OA
ATOM      4  O   UNL     1      31.203  -7.966 -20.291  0.00  0.00    -0.153 OA
BRANCH   2   6
ATOM      5  N   UNL     1      30.912  -4.562 -23.507  0.00  0.00    -0.241 NA
ATOM      6  C   UNL     1      31.887  -5.946 -21.782  0.00  0.00    +0.141 C 
ATOM      7  C   UNL     1      32.224  -4.812 -21.052  0.00  0.00    +0.023 C 
ATOM      8  C   UNL     1      31.237  -5.769 -22.993  0.00  0.00    +0.119 C 
ATOM      9  C   UNL     1      31.904  -3.552 -21.548  0.00  0.00    +0.022 C 
ATOM     10  C   UNL     1      31.254  -3.483 -22.769  0.00  0.00    +0.099 C 
ENDBRANCH   2   6
ENDBRANCH   1   2
BRANCH   1  11
ATOM     11  C   UNL     1      33.503  -8.879 -23.267  0.00  0.00    +0.122 C 
BRANCH  11  13
ATOM     12  C   UNL     1      34.907  -5.834 -25.929  0.00  0.00    -0.023 C 
ATOM     13  C   UNL     1      33.991  -7.818 -24.194  0.00  0.00    -0.004 C 
ATOM     14  C   UNL     1      35.606  -6.109 -24.754  0.00  0.00    -0.005 C 
ATOM     15  C   UNL     1      33.750  -6.550 -26.237  0.00  0.00    -0.005 C 
ATOM     16  C   UNL     1      35.148  -7.101 -23.886  0.00  0.00    -0.003 C 
ATOM     17  C   UNL     1      33.292  -7.543 -25.369  0.00  0.00    -0.003 C 
BRANCH  12  18
ATOM     18  C   UNL     1      35.409  -4.738 -26.884  0.00  0.00    +0.019 C 
ATOM     19  C   UNL     1      34.741  -3.393 -26.530  0.00  0.00    +0.004 C 
ATOM     20  C   UNL     1      35.054  -5.116 -28.338  0.00  0.00    +0.004 C 
ATOM     21  C   UNL     1      36.938  -4.517 -26.831  0.00  0.00    +0.004 C 
ENDBRANCH  12  18
ENDBRANCH  11  13
ENDBRANCH   1  11
BRANCH   1  22
ATOM     22  C   UNL     1      31.242  -9.643 -22.662  0.00  0.00    +0.123 C 
BRANCH  22  23
ATOM     23  C   UNL     1      31.841 -10.938 -22.192  0.00  0.00    -0.001 C 
ATOM     24  C   UNL     1      32.662 -11.678 -23.044  0.00  0.00    +0.034 C 
ATOM     25  C   UNL     1      31.576 -11.401 -20.903  0.00  0.00    -0.003 C 
ATOM     26  C   UNL     1      33.217 -12.880 -22.607  0.00  0.00    +0.139 C 
ATOM     27  C   UNL     1      32.131 -12.605 -20.467  0.00  0.00    +0.003 C 
ATOM     28  C   UNL     1      32.952 -13.344 -21.318  0.00  0.00    +0.037 C 
BRANCH  26  29
ATOM     29  O   UNL     1      34.016 -13.603 -23.438  0.00  0.00    -0.464 OA
BRANCH  29  30
ATOM     30  C   UNL     1      33.752 -15.003 -23.537  0.00  0.00    +0.314 C 
BRANCH  30  32
ATOM     31  O   UNL     1      33.347 -14.938 -25.932  0.00  0.00    -0.246 OA
ATOM     32  C   UNL     1      33.895 -15.447 -24.966  0.00  0.00    +0.359 C 
BRANCH  32  33
ATOM     33  O   UNL     1      34.735 -16.511 -25.043  0.00  0.00    -0.478 OA
ATOM     34  H   UNL     1      35.283 -16.729 -24.316  0.00  0.00    +0.295 HD
ENDBRANCH  32  33
ENDBRANCH  30  32
ENDBRANCH  29  30
ENDBRANCH  26  29
ENDBRANCH  22  23
ENDBRANCH   1  22
TORSDOF 11
ENDMDL
MODEL 7
REMARK VINA RESULT:      -9.4      2.167      6.409
REMARK  Name = 9890801
REMARK  11 active torsions:
REMARK  status: ('A' for Active; 'I' for Inactive)
REMARK    1  A    between atoms: N_1  and  S_2
REMARK    2  A    between atoms: N_1  and  C_11
REMARK    3  A    between atoms: N_1  and  C_22
REMARK    4  A    between atoms: S_2  and  C_6
REMARK    5  A    between atoms: C_11  and  C_13
REMARK    6  A    between atoms: C_12  and  C_18
REMARK    7  A    between atoms: C_22  and  C_23
REMARK    8  A    between atoms: C_26  and  O_29
REMARK    9  A    between atoms: O_29  and  C_30
REMARK   10  A    between atoms: C_30  and  C_32
REMARK   11  A    between atoms: C_32  and  O_33
REMARK                            x       y       z     vdW  Elec       q    Type
REMARK                         _______ _______ _______ _____ _____    ______ ____
ROOT
ATOM      1  N   UNL     1      34.096 -23.142 -17.059  0.00  0.00    -0.147 NA
ENDROOT
BRANCH   1   2
ATOM      2  S   UNL     1      33.544 -23.026 -18.689  0.00  0.00    +0.065 S 
ATOM      3  O   UNL     1      32.188 -22.508 -18.704  0.00  0.00    -0.153 OA
ATOM      4  O   UNL     1      33.844 -24.260 -19.390  0.00  0.00    -0.153 OA
BRANCH   2   6
ATOM      5  N   UNL     1      34.806 -19.692 -20.584  0.00  0.00    -0.241 NA
ATOM      6  C   UNL     1      34.593 -21.769 -19.365  0.00  0.00    +0.141 C 
ATOM      7  C   UNL     1      35.975 -21.841 -19.230  0.00  0.00    +0.023 C 
ATOM      8  C   UNL     1      34.063 -20.683 -20.044  0.00  0.00    +0.119 C 
ATOM      9  C   UNL     1      36.774 -20.839 -19.771  0.00  0.00    +0.022 C 
ATOM     10  C   UNL     1      36.145 -19.795 -20.433  0.00  0.00    +0.099 C 
ENDBRANCH   2   6
ENDBRANCH   1   2
BRANCH   1  11
ATOM     11  C   UNL     1      35.550 -22.987 -16.807  0.00  0.00    +0.122 C 
BRANCH  11  13
ATOM     12  C   UNL     1      36.740 -24.538 -12.999  0.00  0.00    -0.023 C 
ATOM     13  C   UNL     1      35.965 -23.528 -15.481  0.00  0.00    -0.004 C 
ATOM     14  C   UNL     1      36.845 -23.172 -13.259  0.00  0.00    -0.005 C 
ATOM     15  C   UNL     1      36.248 -25.400 -13.980  0.00  0.00    -0.005 C 
ATOM     16  C   UNL     1      36.458 -22.667 -14.500  0.00  0.00    -0.003 C 
ATOM     17  C   UNL     1      35.860 -24.894 -15.221  0.00  0.00    -0.003 C 
BRANCH  12  18
ATOM     18  C   UNL     1      37.170 -25.096 -11.632  0.00  0.00    +0.019 C 
ATOM     19  C   UNL     1      36.011 -24.949 -10.623  0.00  0.00    +0.004 C 
ATOM     20  C   UNL     1      38.396 -24.314 -11.115  0.00  0.00    +0.004 C 
ATOM     21  C   UNL     1      37.562 -26.590 -11.663  0.00  0.00    +0.004 C 
ENDBRANCH  12  18
ENDBRANCH  11  13
ENDBRANCH   1  11
BRANCH   1  22
ATOM     22  C   UNL     1      33.276 -22.494 -16.003  0.00  0.00    +0.123 C 
BRANCH  22  23
ATOM     23  C   UNL     1      32.311 -23.452 -15.364  0.00  0.00    -0.001 C 
ATOM     24  C   UNL     1      30.989 -23.510 -15.804  0.00  0.00    +0.034 C 
ATOM     25  C   UNL     1      32.739 -24.283 -14.328  0.00  0.00    -0.003 C 
ATOM     26  C   UNL     1      30.094 -24.399 -15.210  0.00  0.00    +0.139 C 
ATOM     27  C   UNL     1      31.843 -25.173 -13.733  0.00  0.00    +0.003 C 
ATOM     28  C   UNL     1      30.521 -25.231 -14.174  0.00  0.00    +0.037 C 
BRANCH  26  29
ATOM     29  O   UNL     1      28.804 -24.455 -15.638  0.00  0.00    -0.464 OA
BRANCH  29  30
ATOM     30  C   UNL     1      27.992 -23.304 -15.405  0.00  0.00    +0.314 C 
BRANCH  30  32
ATOM     31  O   UNL     1      27.068 -21.668 -16.946  0.00  0.00    -0.246 OA
ATOM     32  C   UNL     1      27.421 -22.813 -16.706  0.00  0.00    +0.359 C 
BRANCH  32  33
ATOM     33  O   UNL     1      27.350 -23.832 -17.599  0.00  0.00    -0.478 OA
ATOM     34  H   UNL     1      27.188 -23.652 -18.504  0.00  0.00    +0.295 HD
ENDBRANCH  32  33
ENDBRANCH  30  32
ENDBRANCH  29  30
ENDBRANCH  26  29
ENDBRANCH  22  23
ENDBRANCH   1  22
TORSDOF 11
ENDMDL
MODEL 8
REMARK VINA RESULT:      -8.7     13.558     17.832
REMARK  Name = 9890801
REMARK  11 active torsions:
REMARK  status: ('A' for Active; 'I' for Inactive)
REMARK    1  A    between atoms: N_1  and  S_2
REMARK    2  A    between atoms: N_1  and  C_11
REMARK    3  A    between atoms: N_1  and  C_22
REMARK    4  A    between atoms: S_2  and  C_6
REMARK    5  A    between atoms: C_11  and  C_13
REMARK    6  A    between atoms: C_12  and  C_18
REMARK    7  A    between atoms: C_22  and  C_23
REMARK    8  A    between atoms: C_26  and  O_29
REMARK    9  A    between atoms: O_29  and  C_30
REMARK   10  A    between atoms: C_30  and  C_32
REMARK   11  A    between atoms: C_32  and  O_33
REMARK                            x       y       z     vdW  Elec       q    Type
REMARK                         _______ _______ _______ _____ _____    ______ ____
ROOT
ATOM      1  N   UNL     1      32.974  -7.382 -22.887  0.00  0.00    -0.147 NA
ENDROOT
BRANCH   1   2
ATOM      2  S   UNL     1      31.427  -6.771 -23.343  0.00  0.00    +0.065 S 
ATOM      3  O   UNL     1      30.407  -7.350 -22.488  0.00  0.00    -0.153 OA
ATOM      4  O   UNL     1      31.281  -6.851 -24.784  0.00  0.00    -0.153 OA
BRANCH   2   6
ATOM      5  N   UNL     1      31.527  -2.746 -23.640  0.00  0.00    -0.241 NA
ATOM      6  C   UNL     1      31.550  -5.054 -22.922  0.00  0.00    +0.141 C 
ATOM      7  C   UNL     1      31.759  -4.652 -21.608  0.00  0.00    +0.023 C 
ATOM      8  C   UNL     1      31.442  -4.071 -23.893  0.00  0.00    +0.119 C 
ATOM      9  C   UNL     1      31.851  -3.296 -21.308  0.00  0.00    +0.022 C 
ATOM     10  C   UNL     1      31.729  -2.392 -22.352  0.00  0.00    +0.099 C 
ENDBRANCH   2   6
ENDBRANCH   1   2
BRANCH   1  11
ATOM     11  C   UNL     1      34.150  -6.495 -23.065  0.00  0.00    +0.122 C 
BRANCH  11  13
ATOM     12  C   UNL     1      35.286  -6.066 -27.170  0.00  0.00    -0.023 C 
ATOM     13  C   UNL     1      34.546  -6.345 -24.494  0.00  0.00    -0.004 C 
ATOM     14  C   UNL     1      35.323  -7.322 -26.564  0.00  0.00    -0.005 C 
ATOM     15  C   UNL     1      34.880  -4.950 -26.439  0.00  0.00    -0.005 C 
ATOM     16  C   UNL     1      34.953  -7.461 -25.226  0.00  0.00    -0.003 C 
ATOM     17  C   UNL     1      34.509  -5.089 -25.101  0.00  0.00    -0.003 C 
BRANCH  12  18
ATOM     18  C   UNL     1      35.697  -5.911 -28.644  0.00  0.00    +0.019 C 
ATOM     19  C   UNL     1      37.083  -6.552 -28.867  0.00  0.00    +0.004 C 
ATOM     20  C   UNL     1      35.764  -4.413 -29.009  0.00  0.00    +0.004 C 
ATOM     21  C   UNL     1      34.720  -6.580 -29.637  0.00  0.00    +0.004 C 
ENDBRANCH  12  18
ENDBRANCH  11  13
ENDBRANCH   1  11
BRANCH   1  22
ATOM     22  C   UNL     1      33.062  -8.179 -21.636  0.00  0.00    +0.123 C 
BRANCH  22  23
ATOM     23  C   UNL     1      32.651  -9.609 -21.843  0.00  0.00    -0.001 C 
ATOM     24  C   UNL     1      33.226 -10.359 -22.869  0.00  0.00    +0.034 C 
ATOM     25  C   UNL     1      31.695 -10.187 -21.008  0.00  0.00    -0.003 C 
ATOM     26  C   UNL     1      32.844 -11.687 -23.060  0.00  0.00    +0.139 C 
ATOM     27  C   UNL     1      31.313 -11.516 -21.200  0.00  0.00    +0.003 C 
ATOM     28  C   UNL     1      31.887 -12.265 -22.226  0.00  0.00    +0.037 C 
BRANCH  26  29
ATOM     29  O   UNL     1      33.403 -12.419 -24.062  0.00  0.00    -0.464 OA
BRANCH  29  30
ATOM     30  C   UNL     1      33.206 -13.833 -24.020  0.00  0.00    +0.314 C 
BRANCH  30  32
ATOM     31  O   UNL     1      33.711 -13.795 -26.397  0.00  0.00    -0.246 OA
ATOM     32  C   UNL     1      33.356 -14.408 -25.402  0.00  0.00    +0.359 C 
BRANCH  32  33
ATOM     33  O   UNL     1      33.040 -15.728 -25.395  0.00  0.00    -0.478 OA
ATOM     34  H   UNL     1      33.332 -16.283 -26.090  0.00  0.00    +0.295 HD
ENDBRANCH  32  33
ENDBRANCH  30  32
ENDBRANCH  29  30
ENDBRANCH  26  29
ENDBRANCH  22  23
ENDBRANCH   1  22
TORSDOF 11
ENDMDL
MODEL 9
REMARK VINA RESULT:      -8.5      2.368      5.888
REMARK  Name = 9890801
REMARK  11 active torsions:
REMARK  status: ('A' for Active; 'I' for Inactive)
REMARK    1  A    between atoms: N_1  and  S_2
REMARK    2  A    between atoms: N_1  and  C_11
REMARK    3  A    between atoms: N_1  and  C_22
REMARK    4  A    between atoms: S_2  and  C_6
REMARK    5  A    between atoms: C_11  and  C_13
REMARK    6  A    between atoms: C_12  and  C_18
REMARK    7  A    between atoms: C_22  and  C_23
REMARK    8  A    between atoms: C_26  and  O_29
REMARK    9  A    between atoms: O_29  and  C_30
REMARK   10  A    between atoms: C_30  and  C_32
REMARK   11  A    between atoms: C_32  and  O_33
REMARK                            x       y       z     vdW  Elec       q    Type
REMARK                         _______ _______ _______ _____ _____    ______ ____
ROOT
ATOM      1  N   UNL     1      33.620 -23.480 -16.579  0.00  0.00    -0.147 NA
ENDROOT
BRANCH   1   2
ATOM      2  S   UNL     1      32.218 -22.778 -15.860  0.00  0.00    +0.065 S 
ATOM      3  O   UNL     1      31.237 -22.493 -16.891  0.00  0.00    -0.153 OA
ATOM      4  O   UNL     1      32.620 -21.725 -14.946  0.00  0.00    -0.153 OA
BRANCH   2   6
ATOM      5  N   UNL     1      31.806 -25.546 -12.951  0.00  0.00    -0.241 NA
ATOM      6  C   UNL     1      31.578 -24.108 -14.881  0.00  0.00    +0.141 C 
ATOM      7  C   UNL     1      30.398 -24.754 -15.232  0.00  0.00    +0.023 C 
ATOM      8  C   UNL     1      32.239 -24.538 -13.740  0.00  0.00    +0.119 C 
ATOM      9  C   UNL     1      29.920 -25.795 -14.443  0.00  0.00    +0.022 C 
ATOM     10  C   UNL     1      30.655 -26.149 -13.323  0.00  0.00    +0.099 C 
ENDBRANCH   2   6
ENDBRANCH   1   2
BRANCH   1  11
ATOM     11  C   UNL     1      33.586 -23.757 -18.037  0.00  0.00    +0.122 C 
BRANCH  11  13
ATOM     12  C   UNL     1      35.030 -20.475 -20.375  0.00  0.00    -0.023 C 
ATOM     13  C   UNL     1      34.089 -22.613 -18.851  0.00  0.00    -0.004 C 
ATOM     14  C   UNL     1      35.932 -21.362 -19.787  0.00  0.00    -0.005 C 
ATOM     15  C   UNL     1      33.658 -20.657 -20.202  0.00  0.00    -0.005 C 
ATOM     16  C   UNL     1      35.461 -22.430 -19.025  0.00  0.00    -0.003 C 
ATOM     17  C   UNL     1      33.187 -21.726 -19.440  0.00  0.00    -0.003 C 
BRANCH  12  18
ATOM     18  C   UNL     1      35.549 -19.294 -21.214  0.00  0.00    +0.019 C 
ATOM     19  C   UNL     1      37.070 -19.138 -21.005  0.00  0.00    +0.004 C 
ATOM     20  C   UNL     1      34.840 -17.995 -20.775  0.00  0.00    +0.004 C 
ATOM     21  C   UNL     1      35.310 -19.454 -22.732  0.00  0.00    +0.004 C 
ENDBRANCH  12  18
ENDBRANCH  11  13
ENDBRANCH   1  11
BRANCH   1  22
ATOM     22  C   UNL     1      34.947 -22.980 -16.138  0.00  0.00    +0.123 C 
BRANCH  22  23
ATOM     23  C   UNL     1      35.641 -23.944 -15.218  0.00  0.00    -0.001 C 
ATOM     24  C   UNL     1      36.393 -23.466 -14.145  0.00  0.00    +0.034 C 
ATOM     25  C   UNL     1      35.534 -25.317 -15.437  0.00  0.00    -0.003 C 
ATOM     26  C   UNL     1      37.038 -24.361 -13.291  0.00  0.00    +0.139 C 
ATOM     27  C   UNL     1      36.179 -26.213 -14.583  0.00  0.00    +0.003 C 
ATOM     28  C   UNL     1      36.931 -25.734 -13.510  0.00  0.00    +0.037 C 
BRANCH  26  29
ATOM     29  O   UNL     1      37.773 -23.895 -12.245  0.00  0.00    -0.464 OA
BRANCH  29  30
ATOM     30  C   UNL     1      37.088 -23.109 -11.269  0.00  0.00    +0.314 C 
BRANCH  30  32
ATOM     31  O   UNL     1      34.912 -24.168 -11.057  0.00  0.00    -0.246 OA
ATOM     32  C   UNL     1      36.023 -23.937 -10.605  0.00  0.00    +0.359 C 
BRANCH  32  33
ATOM     33  O   UNL     1      36.470 -24.404  -9.413  0.00  0.00    -0.478 OA
ATOM     34  H   UNL     1      35.910 -24.926  -8.873  0.00  0.00    +0.295 HD
ENDBRANCH  32  33
ENDBRANCH  30  32
ENDBRANCH  29  30
ENDBRANCH  26  29
ENDBRANCH  22  23
ENDBRANCH   1  22
TORSDOF 11
ENDMDL
