MODEL 1
REMARK VINA RESULT:     -11.7      0.000      0.000
REMARK  Name = 9865515
REMARK  6 active torsions:
REMARK  status: ('A' for Active; 'I' for Inactive)
REMARK    1  A    between atoms: C_1  and  C_20
REMARK    2  A    between atoms: C_2  and  C_9
REMARK    3  A    between atoms: N_8  and  C_11
REMARK    4  A    between atoms: C_12  and  N_17
REMARK    5  A    between atoms: C_20  and  N_21
REMARK    6  A    between atoms: C_25  and  C_30
REMARK                            x       y       z     vdW  Elec       q    Type
REMARK                         _______ _______ _______ _____ _____    ______ ____
ROOT
ATOM      1  C   UNL     1      34.532 -22.365 -18.866  0.00  0.00    -0.002 C 
ATOM      2  C   UNL     1      35.255 -20.180 -20.441  0.00  0.00    +0.054 C 
ATOM      3  C   UNL     1      33.548 -21.603 -19.495  0.00  0.00    -0.002 C 
ATOM      4  C   UNL     1      35.878 -22.034 -19.024  0.00  0.00    -0.002 C 
ATOM      5  C   UNL     1      33.909 -20.510 -20.282  0.00  0.00    +0.004 C 
ATOM      6  C   UNL     1      36.239 -20.942 -19.812  0.00  0.00    +0.004 C 
ENDROOT
BRANCH   2   9
ATOM      7  O   UNL     1      36.832 -18.845 -21.510  0.00  0.00    -0.270 OA
ATOM      8  N   UNL     1      34.574 -18.248 -21.731  0.00  0.00    -0.279 N 
ATOM      9  C   UNL     1      35.632 -19.038 -21.261  0.00  0.00    +0.250 C 
ATOM     10  H   UNL     1      33.673 -18.526 -21.449  0.00  0.00    +0.155 HD
BRANCH   8  11
ATOM     11  C   UNL     1      34.633 -17.101 -22.561  0.00  0.00    +0.064 C 
ATOM     12  C   UNL     1      34.666 -15.834 -22.001  0.00  0.00    +0.055 C 
ATOM     13  C   UNL     1      34.655 -17.283 -23.934  0.00  0.00    +0.016 C 
ATOM     14  C   UNL     1      34.723 -14.719 -22.838  0.00  0.00    +0.015 C 
ATOM     15  C   UNL     1      34.713 -16.169 -24.770  0.00  0.00    +0.001 C 
ATOM     16  C   UNL     1      34.746 -14.886 -24.222  0.00  0.00    +0.001 C 
BRANCH  12  17
ATOM     17  N   UNL     1      34.645 -15.642 -20.602  0.00  0.00    -0.356 N 
ATOM     18  H   UNL     1      35.468 -15.759 -20.076  0.00  0.00    +0.142 HD
ATOM     19  H   UNL     1      33.805 -15.390 -20.152  0.00  0.00    +0.142 HD
ENDBRANCH  12  17
ENDBRANCH   8  11
ENDBRANCH   2   9
BRANCH   1  20
ATOM     20  C   UNL     1      34.147 -23.535 -18.024  0.00  0.00    +0.124 C 
BRANCH  20  21
ATOM     21  N   UNL     1      32.995 -23.225 -17.204  0.00  0.00    -0.264 N 
ATOM     22  N   UNL     1      34.008 -24.078 -15.266  0.00  0.00    -0.338 NA
ATOM     23  N   UNL     1      31.786 -23.149 -15.195  0.00  0.00    -0.170 NA
ATOM     24  C   UNL     1      32.928 -23.492 -15.847  0.00  0.00    +0.145 C 
ATOM     25  C   UNL     1      33.908 -24.323 -13.944  0.00  0.00    +0.147 C 
ATOM     26  C   UNL     1      32.794 -24.015 -13.189  0.00  0.00    +0.055 C 
ATOM     27  C   UNL     1      31.753 -23.423 -13.874  0.00  0.00    +0.114 C 
ATOM     28  H   UNL     1      32.218 -22.801 -17.635  0.00  0.00    +0.160 HD
BRANCH  25  30
ATOM     29  N   UNL     1      36.281 -25.553 -11.347  0.00  0.00    -0.242 NA
ATOM     30  C   UNL     1      35.065 -24.945 -13.346  0.00  0.00    +0.050 C 
ATOM     31  C   UNL     1      36.058 -25.520 -14.132  0.00  0.00    +0.006 C 
ATOM     32  C   UNL     1      35.223 -24.988 -11.970  0.00  0.00    +0.101 C 
ATOM     33  C   UNL     1      37.162 -26.111 -13.528  0.00  0.00    +0.021 C 
ATOM     34  C   UNL     1      37.225 -26.101 -12.143  0.00  0.00    +0.099 C 
ENDBRANCH  25  30
ENDBRANCH  20  21
ENDBRANCH   1  20
TORSDOF 6
ENDMDL
MODEL 2
REMARK VINA RESULT:     -11.5      1.638      2.148
REMARK  Name = 9865515
REMARK  6 active torsions:
REMARK  status: ('A' for Active; 'I' for Inactive)
REMARK    1  A    between atoms: C_1  and  C_20
REMARK    2  A    between atoms: C_2  and  C_9
REMARK    3  A    between atoms: N_8  and  C_11
REMARK    4  A    between atoms: C_12  and  N_17
REMARK    5  A    between atoms: C_20  and  N_21
REMARK    6  A    between atoms: C_25  and  C_30
REMARK                            x       y       z     vdW  Elec       q    Type
REMARK                         _______ _______ _______ _____ _____    ______ ____
ROOT
ATOM      1  C   UNL     1      35.684 -21.044 -19.530  0.00  0.00    -0.002 C 
ATOM      2  C   UNL     1      35.202 -19.173 -21.542  0.00  0.00    +0.054 C 
ATOM      3  C   UNL     1      34.407 -20.922 -20.078  0.00  0.00    -0.002 C 
ATOM      4  C   UNL     1      36.720 -20.230 -19.989  0.00  0.00    -0.002 C 
ATOM      5  C   UNL     1      34.165 -19.986 -21.083  0.00  0.00    +0.004 C 
ATOM      6  C   UNL     1      36.479 -19.294 -20.995  0.00  0.00    +0.004 C 
ENDROOT
BRANCH   2   9
ATOM      7  O   UNL     1      34.948 -18.567 -23.774  0.00  0.00    -0.270 OA
ATOM      8  N   UNL     1      34.696 -16.886 -22.156  0.00  0.00    -0.279 N 
ATOM      9  C   UNL     1      34.949 -18.195 -22.589  0.00  0.00    +0.250 C 
ATOM     10  H   UNL     1      34.732 -16.744 -21.183  0.00  0.00    +0.155 HD
BRANCH   8  11
ATOM     11  C   UNL     1      34.397 -15.742 -22.936  0.00  0.00    +0.064 C 
ATOM     12  C   UNL     1      34.380 -14.484 -22.355  0.00  0.00    +0.055 C 
ATOM     13  C   UNL     1      34.123 -15.918 -24.283  0.00  0.00    +0.016 C 
ATOM     14  C   UNL     1      34.082 -13.372 -23.144  0.00  0.00    +0.015 C 
ATOM     15  C   UNL     1      33.825 -14.807 -25.070  0.00  0.00    +0.001 C 
ATOM     16  C   UNL     1      33.804 -13.534 -24.501  0.00  0.00    +0.001 C 
BRANCH  12  17
ATOM     17  N   UNL     1      34.660 -14.298 -20.984  0.00  0.00    -0.356 N 
ATOM     18  H   UNL     1      34.113 -14.752 -20.303  0.00  0.00    +0.142 HD
ATOM     19  H   UNL     1      35.403 -13.714 -20.707  0.00  0.00    +0.142 HD
ENDBRANCH  12  17
ENDBRANCH   8  11
ENDBRANCH   2   9
BRANCH   1  20
ATOM     20  C   UNL     1      35.944 -22.046 -18.456  0.00  0.00    +0.124 C 
BRANCH  20  21
ATOM     21  N   UNL     1      34.720 -22.391 -17.764  0.00  0.00    -0.264 N 
ATOM     22  N   UNL     1      35.869 -23.562 -16.086  0.00  0.00    -0.338 NA
ATOM     23  N   UNL     1      33.466 -23.389 -16.051  0.00  0.00    -0.170 NA
ATOM     24  C   UNL     1      34.684 -23.137 -16.599  0.00  0.00    +0.145 C 
ATOM     25  C   UNL     1      35.797 -24.286 -14.950  0.00  0.00    +0.147 C 
ATOM     26  C   UNL     1      34.612 -24.598 -14.314  0.00  0.00    +0.055 C 
ATOM     27  C   UNL     1      33.467 -24.118 -14.915  0.00  0.00    +0.114 C 
ATOM     28  H   UNL     1      33.868 -22.077 -18.144  0.00  0.00    +0.160 HD
BRANCH  25  30
ATOM     29  N   UNL     1      39.480 -24.637 -14.502  0.00  0.00    -0.242 NA
ATOM     30  C   UNL     1      37.065 -24.728 -14.422  0.00  0.00    +0.050 C 
ATOM     31  C   UNL     1      37.128 -25.634 -13.369  0.00  0.00    +0.006 C 
ATOM     32  C   UNL     1      38.260 -24.263 -14.948  0.00  0.00    +0.101 C 
ATOM     33  C   UNL     1      38.364 -26.043 -12.882  0.00  0.00    +0.021 C 
ATOM     34  C   UNL     1      39.501 -25.519 -13.478  0.00  0.00    +0.099 C 
ENDBRANCH  25  30
ENDBRANCH  20  21
ENDBRANCH   1  20
TORSDOF 6
ENDMDL
MODEL 3
REMARK VINA RESULT:     -11.3      1.217      2.070
REMARK  Name = 9865515
REMARK  6 active torsions:
REMARK  status: ('A' for Active; 'I' for Inactive)
REMARK    1  A    between atoms: C_1  and  C_20
REMARK    2  A    between atoms: C_2  and  C_9
REMARK    3  A    between atoms: N_8  and  C_11
REMARK    4  A    between atoms: C_12  and  N_17
REMARK    5  A    between atoms: C_20  and  N_21
REMARK    6  A    between atoms: C_25  and  C_30
REMARK                            x       y       z     vdW  Elec       q    Type
REMARK                         _______ _______ _______ _____ _____    ______ ____
ROOT
ATOM      1  C   UNL     1      34.241 -22.682 -18.761  0.00  0.00    -0.002 C 
ATOM      2  C   UNL     1      35.028 -20.402 -20.161  0.00  0.00    +0.054 C 
ATOM      3  C   UNL     1      35.590 -22.333 -18.825  0.00  0.00    -0.002 C 
ATOM      4  C   UNL     1      33.285 -21.890 -19.398  0.00  0.00    -0.002 C 
ATOM      5  C   UNL     1      35.984 -21.194 -19.526  0.00  0.00    +0.004 C 
ATOM      6  C   UNL     1      33.679 -20.750 -20.098  0.00  0.00    +0.004 C 
ENDROOT
BRANCH   2   9
ATOM      7  O   UNL     1      36.610 -18.815 -20.788  0.00  0.00    -0.270 OA
ATOM      8  N   UNL     1      34.456 -18.622 -21.700  0.00  0.00    -0.279 N 
ATOM      9  C   UNL     1      35.439 -19.214 -20.895  0.00  0.00    +0.250 C 
ATOM     10  H   UNL     1      33.572 -19.052 -21.681  0.00  0.00    +0.155 HD
BRANCH   8  11
ATOM     11  C   UNL     1      34.571 -17.484 -22.537  0.00  0.00    +0.064 C 
ATOM     12  C   UNL     1      34.463 -17.614 -23.912  0.00  0.00    +0.055 C 
ATOM     13  C   UNL     1      34.795 -16.252 -21.944  0.00  0.00    +0.016 C 
ATOM     14  C   UNL     1      34.580 -16.479 -24.715  0.00  0.00    +0.015 C 
ATOM     15  C   UNL     1      34.912 -15.118 -22.747  0.00  0.00    +0.001 C 
ATOM     16  C   UNL     1      34.804 -15.232 -24.133  0.00  0.00    +0.001 C 
BRANCH  12  17
ATOM     17  N   UNL     1      34.234 -18.866 -24.522  0.00  0.00    -0.356 N 
ATOM     18  H   UNL     1      34.609 -19.684 -24.123  0.00  0.00    +0.142 HD
ATOM     19  H   UNL     1      33.698 -18.922 -25.347  0.00  0.00    +0.142 HD
ENDBRANCH  12  17
ENDBRANCH   8  11
ENDBRANCH   2   9
BRANCH   1  20
ATOM     20  C   UNL     1      33.819 -23.900 -18.010  0.00  0.00    +0.124 C 
BRANCH  20  21
ATOM     21  N   UNL     1      33.096 -23.543 -16.809  0.00  0.00    -0.264 N 
ATOM     22  N   UNL     1      34.769 -24.411 -15.411  0.00  0.00    -0.338 NA
ATOM     23  N   UNL     1      32.784 -23.405 -14.487  0.00  0.00    -0.170 NA
ATOM     24  C   UNL     1      33.564 -23.794 -15.531  0.00  0.00    +0.145 C 
ATOM     25  C   UNL     1      35.195 -24.640 -14.152  0.00  0.00    +0.147 C 
ATOM     26  C   UNL     1      34.481 -24.286 -13.025  0.00  0.00    +0.055 C 
ATOM     27  C   UNL     1      33.270 -23.665 -13.255  0.00  0.00    +0.114 C 
ATOM     28  H   UNL     1      32.224 -23.096 -16.906  0.00  0.00    +0.160 HD
BRANCH  25  30
ATOM     29  N   UNL     1      37.864 -27.210 -14.550  0.00  0.00    -0.242 NA
ATOM     30  C   UNL     1      36.477 -25.296 -14.047  0.00  0.00    +0.050 C 
ATOM     31  C   UNL     1      37.536 -24.697 -13.373  0.00  0.00    +0.006 C 
ATOM     32  C   UNL     1      36.691 -26.542 -14.613  0.00  0.00    +0.101 C 
ATOM     33  C   UNL     1      38.758 -25.353 -13.287  0.00  0.00    +0.021 C 
ATOM     34  C   UNL     1      38.870 -26.597 -13.888  0.00  0.00    +0.099 C 
ENDBRANCH  25  30
ENDBRANCH  20  21
ENDBRANCH   1  20
TORSDOF 6
ENDMDL
MODEL 4
REMARK VINA RESULT:     -11.3      4.723     13.343
REMARK  Name = 9865515
REMARK  6 active torsions:
REMARK  status: ('A' for Active; 'I' for Inactive)
REMARK    1  A    between atoms: C_1  and  C_20
REMARK    2  A    between atoms: C_2  and  C_9
REMARK    3  A    between atoms: N_8  and  C_11
REMARK    4  A    between atoms: C_12  and  N_17
REMARK    5  A    between atoms: C_20  and  N_21
REMARK    6  A    between atoms: C_25  and  C_30
REMARK                            x       y       z     vdW  Elec       q    Type
REMARK                         _______ _______ _______ _____ _____    ______ ____
ROOT
ATOM      1  C   UNL     1      34.274 -14.368 -23.058  0.00  0.00    -0.002 C 
ATOM      2  C   UNL     1      34.995 -16.961 -22.326  0.00  0.00    +0.054 C 
ATOM      3  C   UNL     1      34.475 -14.683 -21.714  0.00  0.00    -0.002 C 
ATOM      4  C   UNL     1      34.435 -15.349 -24.036  0.00  0.00    -0.002 C 
ATOM      5  C   UNL     1      34.834 -15.980 -21.348  0.00  0.00    +0.004 C 
ATOM      6  C   UNL     1      34.795 -16.646 -23.670  0.00  0.00    +0.004 C 
ENDROOT
BRANCH   2   9
ATOM      7  O   UNL     1      36.265 -18.894 -22.576  0.00  0.00    -0.270 OA
ATOM      8  N   UNL     1      34.679 -18.851 -20.848  0.00  0.00    -0.279 N 
ATOM      9  C   UNL     1      35.368 -18.314 -21.944  0.00  0.00    +0.250 C 
ATOM     10  H   UNL     1      33.992 -18.271 -20.448  0.00  0.00    +0.155 HD
BRANCH   8  11
ATOM     11  C   UNL     1      34.843 -20.122 -20.240  0.00  0.00    +0.064 C 
ATOM     12  C   UNL     1      33.738 -20.906 -19.950  0.00  0.00    +0.055 C 
ATOM     13  C   UNL     1      36.128 -20.549 -19.948  0.00  0.00    +0.016 C 
ATOM     14  C   UNL     1      33.925 -22.152 -19.352  0.00  0.00    +0.015 C 
ATOM     15  C   UNL     1      36.314 -21.795 -19.350  0.00  0.00    +0.001 C 
ATOM     16  C   UNL     1      35.212 -22.597 -19.051  0.00  0.00    +0.001 C 
BRANCH  12  17
ATOM     17  N   UNL     1      32.426 -20.476 -20.247  0.00  0.00    -0.356 N 
ATOM     18  H   UNL     1      31.738 -20.474 -19.544  0.00  0.00    +0.142 HD
ATOM     19  H   UNL     1      32.199 -20.178 -21.158  0.00  0.00    +0.142 HD
ENDBRANCH  12  17
ENDBRANCH   8  11
ENDBRANCH   2   9
BRANCH   1  20
ATOM     20  C   UNL     1      33.891 -12.980 -23.451  0.00  0.00    +0.124 C 
BRANCH  20  21
ATOM     21  N   UNL     1      32.681 -12.567 -22.773  0.00  0.00    -0.264 N 
ATOM     22  N   UNL     1      33.052 -10.301 -23.259  0.00  0.00    -0.338 NA
ATOM     23  N   UNL     1      31.110 -10.998 -22.014  0.00  0.00    -0.170 NA
ATOM     24  C   UNL     1      32.269 -11.248 -22.679  0.00  0.00    +0.145 C 
ATOM     25  C   UNL     1      32.620  -9.028 -23.149  0.00  0.00    +0.147 C 
ATOM     26  C   UNL     1      31.460  -8.665 -22.495  0.00  0.00    +0.055 C 
ATOM     27  C   UNL     1      30.738  -9.703 -21.941  0.00  0.00    +0.114 C 
ATOM     28  H   UNL     1      32.121 -13.261 -22.356  0.00  0.00    +0.160 HD
BRANCH  25  30
ATOM     29  N   UNL     1      33.810  -6.447 -25.559  0.00  0.00    -0.242 NA
ATOM     30  C   UNL     1      33.465  -8.037 -23.772  0.00  0.00    +0.050 C 
ATOM     31  C   UNL     1      34.705  -7.709 -23.231  0.00  0.00    +0.006 C 
ATOM     32  C   UNL     1      33.068  -7.382 -24.926  0.00  0.00    +0.101 C 
ATOM     33  C   UNL     1      35.497  -6.751 -23.854  0.00  0.00    +0.021 C 
ATOM     34  C   UNL     1      35.008  -6.154 -25.005  0.00  0.00    +0.099 C 
ENDBRANCH  25  30
ENDBRANCH  20  21
ENDBRANCH   1  20
TORSDOF 6
ENDMDL
MODEL 5
REMARK VINA RESULT:     -11.2      5.606     10.135
REMARK  Name = 9865515
REMARK  6 active torsions:
REMARK  status: ('A' for Active; 'I' for Inactive)
REMARK    1  A    between atoms: C_1  and  C_20
REMARK    2  A    between atoms: C_2  and  C_9
REMARK    3  A    between atoms: N_8  and  C_11
REMARK    4  A    between atoms: C_12  and  N_17
REMARK    5  A    between atoms: C_20  and  N_21
REMARK    6  A    between atoms: C_25  and  C_30
REMARK                            x       y       z     vdW  Elec       q    Type
REMARK                         _______ _______ _______ _____ _____    ______ ____
ROOT
ATOM      1  C   UNL     1      33.919 -13.483 -22.647  0.00  0.00    -0.002 C 
ATOM      2  C   UNL     1      32.555 -11.049 -22.654  0.00  0.00    +0.054 C 
ATOM      3  C   UNL     1      34.217 -12.519 -23.610  0.00  0.00    -0.002 C 
ATOM      4  C   UNL     1      32.938 -13.230 -21.688  0.00  0.00    -0.002 C 
ATOM      5  C   UNL     1      33.535 -11.302 -23.614  0.00  0.00    +0.004 C 
ATOM      6  C   UNL     1      32.257 -12.014 -21.691  0.00  0.00    +0.004 C 
ENDROOT
BRANCH   2   9
ATOM      7  O   UNL     1      30.605  -9.785 -22.557  0.00  0.00    -0.270 OA
ATOM      8  N   UNL     1      32.639  -8.632 -22.757  0.00  0.00    -0.279 N 
ATOM      9  C   UNL     1      31.842  -9.781 -22.659  0.00  0.00    +0.250 C 
ATOM     10  H   UNL     1      33.608  -8.788 -22.833  0.00  0.00    +0.155 HD
BRANCH   8  11
ATOM     11  C   UNL     1      32.231  -7.275 -22.762  0.00  0.00    +0.064 C 
ATOM     12  C   UNL     1      32.301  -6.520 -21.603  0.00  0.00    +0.055 C 
ATOM     13  C   UNL     1      31.763  -6.734 -23.949  0.00  0.00    +0.016 C 
ATOM     14  C   UNL     1      31.893  -5.186 -21.632  0.00  0.00    +0.015 C 
ATOM     15  C   UNL     1      31.356  -5.401 -23.977  0.00  0.00    +0.001 C 
ATOM     16  C   UNL     1      31.420  -4.626 -22.819  0.00  0.00    +0.001 C 
BRANCH  12  17
ATOM     17  N   UNL     1      32.778  -7.066 -20.391  0.00  0.00    -0.356 N 
ATOM     18  H   UNL     1      33.644  -6.774 -20.027  0.00  0.00    +0.142 HD
ATOM     19  H   UNL     1      32.243  -7.738 -19.909  0.00  0.00    +0.142 HD
ENDBRANCH  12  17
ENDBRANCH   8  11
ENDBRANCH   2   9
BRANCH   1  20
ATOM     20  C   UNL     1      34.649 -14.784 -22.642  0.00  0.00    +0.124 C 
BRANCH  20  21
ATOM     21  N   UNL     1      34.186 -15.641 -23.712  0.00  0.00    -0.264 N 
ATOM     22  N   UNL     1      34.882 -17.588 -22.602  0.00  0.00    -0.338 NA
ATOM     23  N   UNL     1      33.823 -17.707 -24.763  0.00  0.00    -0.170 NA
ATOM     24  C   UNL     1      34.301 -17.021 -23.691  0.00  0.00    +0.145 C 
ATOM     25  C   UNL     1      34.978 -18.933 -22.616  0.00  0.00    +0.147 C 
ATOM     26  C   UNL     1      34.525 -19.724 -23.653  0.00  0.00    +0.055 C 
ATOM     27  C   UNL     1      33.951 -19.050 -24.711  0.00  0.00    +0.114 C 
ATOM     28  H   UNL     1      33.766 -15.220 -24.496  0.00  0.00    +0.160 HD
BRANCH  25  30
ATOM     29  N   UNL     1      37.418 -19.511 -19.859  0.00  0.00    -0.242 NA
ATOM     30  C   UNL     1      35.598 -19.517 -21.450  0.00  0.00    +0.050 C 
ATOM     31  C   UNL     1      35.023 -20.604 -20.799  0.00  0.00    +0.006 C 
ATOM     32  C   UNL     1      36.785 -19.012 -20.944  0.00  0.00    +0.101 C 
ATOM     33  C   UNL     1      35.645 -21.145 -19.679  0.00  0.00    +0.021 C 
ATOM     34  C   UNL     1      36.830 -20.567 -19.253  0.00  0.00    +0.099 C 
ENDBRANCH  25  30
ENDBRANCH  20  21
ENDBRANCH   1  20
TORSDOF 6
ENDMDL
MODEL 6
REMARK VINA RESULT:     -10.9      2.704     10.894
REMARK  Name = 9865515
REMARK  6 active torsions:
REMARK  status: ('A' for Active; 'I' for Inactive)
REMARK    1  A    between atoms: C_1  and  C_20
REMARK    2  A    between atoms: C_2  and  C_9
REMARK    3  A    between atoms: N_8  and  C_11
REMARK    4  A    between atoms: C_12  and  N_17
REMARK    5  A    between atoms: C_20  and  N_21
REMARK    6  A    between atoms: C_25  and  C_30
REMARK                            x       y       z     vdW  Elec       q    Type
REMARK                         _______ _______ _______ _____ _____    ______ ____
ROOT
ATOM      1  C   UNL     1      35.157 -20.396 -20.310  0.00  0.00    -0.002 C 
ATOM      2  C   UNL     1      34.010 -22.319 -18.647  0.00  0.00    +0.054 C 
ATOM      3  C   UNL     1      33.769 -20.531 -20.253  0.00  0.00    -0.002 C 
ATOM      4  C   UNL     1      35.970 -21.222 -19.536  0.00  0.00    -0.002 C 
ATOM      5  C   UNL     1      33.196 -21.493 -19.422  0.00  0.00    +0.004 C 
ATOM      6  C   UNL     1      35.397 -22.184 -18.704  0.00  0.00    +0.004 C 
ENDROOT
BRANCH   2   9
ATOM      7  O   UNL     1      33.537 -24.524 -18.075  0.00  0.00    -0.270 OA
ATOM      8  N   UNL     1      32.750 -22.837 -16.646  0.00  0.00    -0.279 N 
ATOM      9  C   UNL     1      33.412 -23.324 -17.781  0.00  0.00    +0.250 C 
ATOM     10  H   UNL     1      32.733 -21.859 -16.547  0.00  0.00    +0.155 HD
BRANCH   8  11
ATOM     11  C   UNL     1      32.102 -23.572 -15.622  0.00  0.00    +0.064 C 
ATOM     12  C   UNL     1      30.719 -23.644 -15.582  0.00  0.00    +0.055 C 
ATOM     13  C   UNL     1      32.885 -24.207 -14.672  0.00  0.00    +0.016 C 
ATOM     14  C   UNL     1      30.103 -24.372 -14.564  0.00  0.00    +0.015 C 
ATOM     15  C   UNL     1      32.269 -24.935 -13.655  0.00  0.00    +0.001 C 
ATOM     16  C   UNL     1      30.877 -25.018 -13.600  0.00  0.00    +0.001 C 
BRANCH  12  17
ATOM     17  N   UNL     1      29.915 -23.000 -16.548  0.00  0.00    -0.356 N 
ATOM     18  H   UNL     1      30.334 -22.545 -17.313  0.00  0.00    +0.142 HD
ATOM     19  H   UNL     1      28.934 -23.006 -16.456  0.00  0.00    +0.142 HD
ENDBRANCH  12  17
ENDBRANCH   8  11
ENDBRANCH   2   9
BRANCH   1  20
ATOM     20  C   UNL     1      35.770 -19.366 -21.199  0.00  0.00    +0.124 C 
BRANCH  20  21
ATOM     21  N   UNL     1      35.311 -19.519 -22.562  0.00  0.00    -0.264 N 
ATOM     22  N   UNL     1      34.685 -17.263 -22.721  0.00  0.00    -0.338 NA
ATOM     23  N   UNL     1      34.384 -18.764 -24.581  0.00  0.00    -0.170 NA
ATOM     24  C   UNL     1      34.777 -18.484 -23.310  0.00  0.00    +0.145 C 
ATOM     25  C   UNL     1      34.160 -16.278 -23.478  0.00  0.00    +0.147 C 
ATOM     26  C   UNL     1      33.730 -16.456 -24.778  0.00  0.00    +0.055 C 
ATOM     27  C   UNL     1      33.868 -17.733 -25.283  0.00  0.00    +0.114 C 
ATOM     28  H   UNL     1      35.382 -20.407 -22.980  0.00  0.00    +0.160 HD
BRANCH  25  30
ATOM     29  N   UNL     1      33.739 -12.603 -23.028  0.00  0.00    -0.242 NA
ATOM     30  C   UNL     1      34.071 -14.989 -22.834  0.00  0.00    +0.050 C 
ATOM     31  C   UNL     1      34.223 -14.863 -21.457  0.00  0.00    +0.006 C 
ATOM     32  C   UNL     1      33.833 -13.838 -23.568  0.00  0.00    +0.101 C 
ATOM     33  C   UNL     1      34.133 -13.609 -20.865  0.00  0.00    +0.021 C 
ATOM     34  C   UNL     1      33.892 -12.519 -21.687  0.00  0.00    +0.099 C 
ENDBRANCH  25  30
ENDBRANCH  20  21
ENDBRANCH   1  20
TORSDOF 6
ENDMDL
MODEL 7
REMARK VINA RESULT:     -10.9      2.494     10.834
REMARK  Name = 9865515
REMARK  6 active torsions:
REMARK  status: ('A' for Active; 'I' for Inactive)
REMARK    1  A    between atoms: C_1  and  C_20
REMARK    2  A    between atoms: C_2  and  C_9
REMARK    3  A    between atoms: N_8  and  C_11
REMARK    4  A    between atoms: C_12  and  N_17
REMARK    5  A    between atoms: C_20  and  N_21
REMARK    6  A    between atoms: C_25  and  C_30
REMARK                            x       y       z     vdW  Elec       q    Type
REMARK                         _______ _______ _______ _____ _____    ______ ____
ROOT
ATOM      1  C   UNL     1      35.526 -19.700 -20.622  0.00  0.00    -0.002 C 
ATOM      2  C   UNL     1      34.301 -21.757 -19.192  0.00  0.00    +0.054 C 
ATOM      3  C   UNL     1      36.300 -20.585 -19.870  0.00  0.00    -0.002 C 
ATOM      4  C   UNL     1      34.140 -19.845 -20.658  0.00  0.00    -0.002 C 
ATOM      5  C   UNL     1      35.687 -21.613 -19.154  0.00  0.00    +0.004 C 
ATOM      6  C   UNL     1      33.527 -20.873 -19.943  0.00  0.00    +0.004 C 
ENDROOT
BRANCH   2   9
ATOM      7  O   UNL     1      33.690 -23.983 -18.898  0.00  0.00    -0.270 OA
ATOM      8  N   UNL     1      33.073 -22.457 -17.226  0.00  0.00    -0.279 N 
ATOM      9  C   UNL     1      33.661 -22.829 -18.443  0.00  0.00    +0.250 C 
ATOM     10  H   UNL     1      33.129 -21.502 -16.998  0.00  0.00    +0.155 HD
BRANCH   8  11
ATOM     11  C   UNL     1      32.408 -23.279 -16.282  0.00  0.00    +0.064 C 
ATOM     12  C   UNL     1      33.122 -23.904 -15.273  0.00  0.00    +0.055 C 
ATOM     13  C   UNL     1      31.037 -23.437 -16.400  0.00  0.00    +0.016 C 
ATOM     14  C   UNL     1      32.445 -24.708 -14.356  0.00  0.00    +0.015 C 
ATOM     15  C   UNL     1      30.360 -24.241 -15.483  0.00  0.00    +0.001 C 
ATOM     16  C   UNL     1      31.065 -24.877 -14.461  0.00  0.00    +0.001 C 
BRANCH  12  17
ATOM     17  N   UNL     1      34.520 -23.746 -15.147  0.00  0.00    -0.356 N 
ATOM     18  H   UNL     1      35.050 -24.420 -14.664  0.00  0.00    +0.142 HD
ATOM     19  H   UNL     1      34.965 -22.962 -15.543  0.00  0.00    +0.142 HD
ENDBRANCH  12  17
ENDBRANCH   8  11
ENDBRANCH   2   9
BRANCH   1  20
ATOM     20  C   UNL     1      36.181 -18.601 -21.389  0.00  0.00    +0.124 C 
BRANCH  20  21
ATOM     21  N   UNL     1      35.783 -18.633 -22.780  0.00  0.00    -0.264 N 
ATOM     22  N   UNL     1      34.637 -16.591 -22.613  0.00  0.00    -0.338 NA
ATOM     23  N   UNL     1      34.720 -17.797 -24.698  0.00  0.00    -0.170 NA
ATOM     24  C   UNL     1      35.024 -17.644 -23.381  0.00  0.00    +0.145 C 
ATOM     25  C   UNL     1      33.899 -15.647 -23.231  0.00  0.00    +0.147 C 
ATOM     26  C   UNL     1      33.535 -15.706 -24.561  0.00  0.00    +0.055 C 
ATOM     27  C   UNL     1      33.978 -16.815 -25.252  0.00  0.00    +0.114 C 
ATOM     28  H   UNL     1      36.068 -19.399 -23.328  0.00  0.00    +0.160 HD
BRANCH  25  30
ATOM     29  N   UNL     1      32.723 -12.255 -22.232  0.00  0.00    -0.242 NA
ATOM     30  C   UNL     1      33.499 -14.538 -22.398  0.00  0.00    +0.050 C 
ATOM     31  C   UNL     1      33.496 -14.647 -21.011  0.00  0.00    +0.006 C 
ATOM     32  C   UNL     1      33.107 -13.331 -22.954  0.00  0.00    +0.101 C 
ATOM     33  C   UNL     1      33.106 -13.561 -20.235  0.00  0.00    +0.021 C 
ATOM     34  C   UNL     1      32.732 -12.398 -20.888  0.00  0.00    +0.099 C 
ENDBRANCH  25  30
ENDBRANCH  20  21
ENDBRANCH   1  20
TORSDOF 6
ENDMDL
MODEL 8
REMARK VINA RESULT:     -10.9      1.817      3.135
REMARK  Name = 9865515
REMARK  6 active torsions:
REMARK  status: ('A' for Active; 'I' for Inactive)
REMARK    1  A    between atoms: C_1  and  C_20
REMARK    2  A    between atoms: C_2  and  C_9
REMARK    3  A    between atoms: N_8  and  C_11
REMARK    4  A    between atoms: C_12  and  N_17
REMARK    5  A    between atoms: C_20  and  N_21
REMARK    6  A    between atoms: C_25  and  C_30
REMARK                            x       y       z     vdW  Elec       q    Type
REMARK                         _______ _______ _______ _____ _____    ______ ____
ROOT
ATOM      1  C   UNL     1      35.076 -21.195 -19.634  0.00  0.00    -0.002 C 
ATOM      2  C   UNL     1      35.188 -19.004 -21.357  0.00  0.00    +0.054 C 
ATOM      3  C   UNL     1      36.302 -20.596 -19.922  0.00  0.00    -0.002 C 
ATOM      4  C   UNL     1      33.906 -20.699 -20.208  0.00  0.00    -0.002 C 
ATOM      5  C   UNL     1      36.359 -19.501 -20.784  0.00  0.00    +0.004 C 
ATOM      6  C   UNL     1      33.962 -19.603 -21.069  0.00  0.00    +0.004 C 
ENDROOT
BRANCH   2   9
ATOM      7  O   UNL     1      36.009 -17.906 -23.237  0.00  0.00    -0.270 OA
ATOM      8  N   UNL     1      34.396 -16.794 -21.947  0.00  0.00    -0.279 N 
ATOM      9  C   UNL     1      35.247 -17.863 -22.258  0.00  0.00    +0.250 C 
ATOM     10  H   UNL     1      33.849 -16.904 -21.136  0.00  0.00    +0.155 HD
BRANCH   8  11
ATOM     11  C   UNL     1      34.220 -15.575 -22.648  0.00  0.00    +0.064 C 
ATOM     12  C   UNL     1      34.331 -14.364 -21.984  0.00  0.00    +0.055 C 
ATOM     13  C   UNL     1      33.935 -15.631 -24.002  0.00  0.00    +0.016 C 
ATOM     14  C   UNL     1      34.154 -13.177 -22.695  0.00  0.00    +0.015 C 
ATOM     15  C   UNL     1      33.758 -14.445 -24.713  0.00  0.00    +0.001 C 
ATOM     16  C   UNL     1      33.866 -13.217 -24.059  0.00  0.00    +0.001 C 
BRANCH  12  17
ATOM     17  N   UNL     1      34.622 -14.300 -20.603  0.00  0.00    -0.356 N 
ATOM     18  H   UNL     1      35.552 -14.182 -20.301  0.00  0.00    +0.142 HD
ATOM     19  H   UNL     1      33.895 -14.373 -19.943  0.00  0.00    +0.142 HD
ENDBRANCH  12  17
ENDBRANCH   8  11
ENDBRANCH   2   9
BRANCH   1  20
ATOM     20  C   UNL     1      35.015 -22.366 -18.711  0.00  0.00    +0.124 C 
BRANCH  20  21
ATOM     21  N   UNL     1      36.105 -22.331 -17.760  0.00  0.00    -0.264 N 
ATOM     22  N   UNL     1      34.756 -23.140 -16.018  0.00  0.00    -0.338 NA
ATOM     23  N   UNL     1      37.082 -22.631 -15.648  0.00  0.00    -0.170 NA
ATOM     24  C   UNL     1      35.976 -22.712 -16.435  0.00  0.00    +0.145 C 
ATOM     25  C   UNL     1      34.667 -23.504 -14.723  0.00  0.00    +0.147 C 
ATOM     26  C   UNL     1      35.726 -23.459 -13.839  0.00  0.00    +0.055 C 
ATOM     27  C   UNL     1      36.921 -23.010 -14.362  0.00  0.00    +0.114 C 
ATOM     28  H   UNL     1      36.985 -22.020 -18.072  0.00  0.00    +0.160 HD
BRANCH  25  30
ATOM     29  N   UNL     1      32.030 -25.301 -12.798  0.00  0.00    -0.242 NA
ATOM     30  C   UNL     1      33.362 -23.955 -14.300  0.00  0.00    +0.050 C 
ATOM     31  C   UNL     1      32.208 -23.518 -14.942  0.00  0.00    +0.006 C 
ATOM     32  C   UNL     1      33.219 -24.839 -13.242  0.00  0.00    +0.101 C 
ATOM     33  C   UNL     1      30.966 -23.971 -14.513  0.00  0.00    +0.021 C 
ATOM     34  C   UNL     1      30.931 -24.854 -13.446  0.00  0.00    +0.099 C 
ENDBRANCH  25  30
ENDBRANCH  20  21
ENDBRANCH   1  20
TORSDOF 6
ENDMDL
MODEL 9
REMARK VINA RESULT:     -10.8      5.250      9.632
REMARK  Name = 9865515
REMARK  6 active torsions:
REMARK  status: ('A' for Active; 'I' for Inactive)
REMARK    1  A    between atoms: C_1  and  C_20
REMARK    2  A    between atoms: C_2  and  C_9
REMARK    3  A    between atoms: N_8  and  C_11
REMARK    4  A    between atoms: C_12  and  N_17
REMARK    5  A    between atoms: C_20  and  N_21
REMARK    6  A    between atoms: C_25  and  C_30
REMARK                            x       y       z     vdW  Elec       q    Type
REMARK                         _______ _______ _______ _____ _____    ______ ____
ROOT
ATOM      1  C   UNL     1      33.849 -13.995 -22.078  0.00  0.00    -0.002 C 
ATOM      2  C   UNL     1      32.515 -11.550 -22.218  0.00  0.00    +0.054 C 
ATOM      3  C   UNL     1      34.102 -13.122 -23.136  0.00  0.00    -0.002 C 
ATOM      4  C   UNL     1      32.929 -13.646 -21.090  0.00  0.00    -0.002 C 
ATOM      5  C   UNL     1      33.434 -11.900 -23.206  0.00  0.00    +0.004 C 
ATOM      6  C   UNL     1      32.262 -12.424 -21.160  0.00  0.00    +0.004 C 
ENDROOT
BRANCH   2   9
ATOM      7  O   UNL     1      30.576 -10.264 -22.230  0.00  0.00    -0.270 OA
ATOM      8  N   UNL     1      32.628  -9.140 -22.406  0.00  0.00    -0.279 N 
ATOM      9  C   UNL     1      31.816 -10.276 -22.292  0.00  0.00    +0.250 C 
ATOM     10  H   UNL     1      33.597  -9.308 -22.445  0.00  0.00    +0.155 HD
BRANCH   8  11
ATOM     11  C   UNL     1      32.235  -7.780 -22.474  0.00  0.00    +0.064 C 
ATOM     12  C   UNL     1      32.324  -6.970 -21.353  0.00  0.00    +0.055 C 
ATOM     13  C   UNL     1      31.764  -7.291 -23.681  0.00  0.00    +0.016 C 
ATOM     14  C   UNL     1      31.931  -5.634 -21.444  0.00  0.00    +0.015 C 
ATOM     15  C   UNL     1      31.371  -5.956 -23.772  0.00  0.00    +0.001 C 
ATOM     16  C   UNL     1      31.454  -5.127 -22.652  0.00  0.00    +0.001 C 
BRANCH  12  17
ATOM     17  N   UNL     1      32.805  -7.462 -20.120  0.00  0.00    -0.356 N 
ATOM     18  H   UNL     1      32.433  -8.291 -19.742  0.00  0.00    +0.142 HD
ATOM     19  H   UNL     1      33.512  -6.975 -19.637  0.00  0.00    +0.142 HD
ENDBRANCH  12  17
ENDBRANCH   8  11
ENDBRANCH   2   9
BRANCH   1  20
ATOM     20  C   UNL     1      34.565 -15.303 -22.001  0.00  0.00    +0.124 C 
BRANCH  20  21
ATOM     21  N   UNL     1      34.502 -16.001 -23.267  0.00  0.00    -0.264 N 
ATOM     22  N   UNL     1      34.686 -18.104 -22.241  0.00  0.00    -0.338 NA
ATOM     23  N   UNL     1      34.491 -17.907 -24.635  0.00  0.00    -0.170 NA
ATOM     24  C   UNL     1      34.562 -17.379 -23.384  0.00  0.00    +0.145 C 
ATOM     25  C   UNL     1      34.741 -19.443 -22.393  0.00  0.00    +0.147 C 
ATOM     26  C   UNL     1      34.679 -20.080 -23.615  0.00  0.00    +0.055 C 
ATOM     27  C   UNL     1      34.552 -19.254 -24.713  0.00  0.00    +0.114 C 
ATOM     28  H   UNL     1      34.412 -15.467 -24.089  0.00  0.00    +0.160 HD
BRANCH  25  30
ATOM     29  N   UNL     1      33.812 -21.362 -19.336  0.00  0.00    -0.242 NA
ATOM     30  C   UNL     1      34.874 -20.194 -21.167  0.00  0.00    +0.050 C 
ATOM     31  C   UNL     1      36.126 -20.479 -20.631  0.00  0.00    +0.006 C 
ATOM     32  C   UNL     1      33.758 -20.655 -20.486  0.00  0.00    +0.101 C 
ATOM     33  C   UNL     1      36.221 -21.204 -19.449  0.00  0.00    +0.021 C 
ATOM     34  C   UNL     1      35.045 -21.619 -18.845  0.00  0.00    +0.099 C 
ENDBRANCH  25  30
ENDBRANCH  20  21
ENDBRANCH   1  20
TORSDOF 6
ENDMDL
