MODEL 1
REMARK VINA RESULT:     -11.9      0.000      0.000
REMARK  Name = 5288712
REMARK  5 active torsions:
REMARK  status: ('A' for Active; 'I' for Inactive)
REMARK    1  A    between atoms: C_1  and  N_18
REMARK    2  A    between atoms: C_2  and  S_7
REMARK    3  A    between atoms: S_7  and  N_10
REMARK    4  A    between atoms: N_10  and  C_13
REMARK    5  A    between atoms: N_18  and  C_26
REMARK                            x       y       z     vdW  Elec       q    Type
REMARK                         _______ _______ _______ _____ _____    ______ ____
ROOT
ATOM      1  C   UNL     1      35.424 -19.928 -20.745  0.00  0.00    +0.048 C 
ATOM      2  C   UNL     1      34.285 -21.905 -19.131  0.00  0.00    +0.129 C 
ATOM      3  C   UNL     1      34.037 -20.081 -20.696  0.00  0.00    +0.016 C 
ATOM      4  C   UNL     1      36.240 -20.769 -19.982  0.00  0.00    +0.016 C 
ATOM      5  C   UNL     1      33.468 -21.068 -19.890  0.00  0.00    +0.022 C 
ATOM      6  C   UNL     1      35.671 -21.756 -19.177  0.00  0.00    +0.022 C 
ENDROOT
BRANCH   2   7
ATOM      7  S   UNL     1      33.574 -23.141 -18.123  0.00  0.00    +0.103 S 
ATOM      8  O   UNL     1      33.688 -24.412 -18.829  0.00  0.00    -0.146 OA
ATOM      9  O   UNL     1      32.255 -22.647 -17.745  0.00  0.00    -0.146 OA
BRANCH   7  10
ATOM     10  N   UNL     1      34.549 -23.188 -16.809  0.00  0.00    -0.093 NA
BRANCH  10  13
ATOM     11  N   UNL     1      32.893 -23.903 -15.220  0.00  0.00    -0.369 N 
ATOM     12  N   UNL     1      34.771 -22.811 -14.521  0.00  0.00    -0.369 N 
ATOM     13  C   UNL     1      34.076 -23.307 -15.596  0.00  0.00    +0.212 C 
ATOM     14  H   UNL     1      32.302 -24.298 -15.900  0.00  0.00    +0.159 HD
ATOM     15  H   UNL     1      32.639 -23.932 -14.269  0.00  0.00    +0.159 HD
ATOM     16  H   UNL     1      35.637 -22.361 -14.659  0.00  0.00    +0.159 HD
ATOM     17  H   UNL     1      34.406 -22.906 -13.612  0.00  0.00    +0.159 HD
ENDBRANCH  10  13
ENDBRANCH   7  10
ENDBRANCH   2   7
BRANCH   1  18
ATOM     18  N   UNL     1      35.997 -18.934 -21.556  0.00  0.00    -0.311 N 
ATOM     19  H   UNL     1      36.792 -19.208 -22.069  0.00  0.00    +0.152 HD
BRANCH  18  26
ATOM     20  O   UNL     1      34.724 -19.108 -24.156  0.00  0.00    -0.270 OA
ATOM     21  N   UNL     1      33.892 -16.990 -24.791  0.00  0.00    -0.280 N 
ATOM     22  C   UNL     1      34.517 -15.742 -22.963  0.00  0.00    +0.019 C 
ATOM     23  C   UNL     1      34.949 -17.122 -22.766  0.00  0.00    +0.069 C 
ATOM     24  C   UNL     1      33.881 -15.718 -24.208  0.00  0.00    +0.051 C 
ATOM     25  C   UNL     1      34.533 -17.921 -23.967  0.00  0.00    +0.251 C 
ATOM     26  C   UNL     1      35.601 -17.648 -21.728  0.00  0.00    +0.066 C 
ATOM     27  C   UNL     1      34.626 -14.593 -22.204  0.00  0.00    +0.001 C 
ATOM     28  C   UNL     1      33.336 -14.565 -24.738  0.00  0.00    +0.015 C 
ATOM     29  C   UNL     1      34.081 -13.413 -22.722  0.00  0.00    +0.000 C 
ATOM     30  C   UNL     1      33.442 -13.399 -23.976  0.00  0.00    +0.001 C 
ATOM     31  H   UNL     1      33.499 -17.203 -25.669  0.00  0.00    +0.155 HD
ENDBRANCH  18  26
ENDBRANCH   1  18
TORSDOF 5
ENDMDL
MODEL 2
REMARK VINA RESULT:     -11.9      1.114      1.443
REMARK  Name = 5288712
REMARK  5 active torsions:
REMARK  status: ('A' for Active; 'I' for Inactive)
REMARK    1  A    between atoms: C_1  and  N_18
REMARK    2  A    between atoms: C_2  and  S_7
REMARK    3  A    between atoms: S_7  and  N_10
REMARK    4  A    between atoms: N_10  and  C_13
REMARK    5  A    between atoms: N_18  and  C_26
REMARK                            x       y       z     vdW  Elec       q    Type
REMARK                         _______ _______ _______ _____ _____    ______ ____
ROOT
ATOM      1  C   UNL     1      35.465 -19.959 -20.706  0.00  0.00    +0.048 C 
ATOM      2  C   UNL     1      34.411 -21.935 -19.034  0.00  0.00    +0.129 C 
ATOM      3  C   UNL     1      34.086 -20.169 -20.650  0.00  0.00    +0.016 C 
ATOM      4  C   UNL     1      36.316 -20.743 -19.920  0.00  0.00    +0.016 C 
ATOM      5  C   UNL     1      33.559 -21.155 -19.816  0.00  0.00    +0.022 C 
ATOM      6  C   UNL     1      35.790 -21.730 -19.086  0.00  0.00    +0.022 C 
ENDROOT
BRANCH   2   7
ATOM      7  S   UNL     1      33.753 -23.171 -17.990  0.00  0.00    +0.103 S 
ATOM      8  O   UNL     1      34.544 -23.187 -16.765  0.00  0.00    -0.146 OA
ATOM      9  O   UNL     1      33.662 -24.380 -18.800  0.00  0.00    -0.146 OA
BRANCH   7  10
ATOM     10  N   UNL     1      32.251 -22.626 -17.631  0.00  0.00    -0.093 NA
BRANCH  10  13
ATOM     11  N   UNL     1      32.063 -23.772 -15.527  0.00  0.00    -0.369 N 
ATOM     12  N   UNL     1      30.212 -22.900 -16.538  0.00  0.00    -0.369 N 
ATOM     13  C   UNL     1      31.572 -23.083 -16.613  0.00  0.00    +0.212 C 
ATOM     14  H   UNL     1      33.025 -23.968 -15.461  0.00  0.00    +0.159 HD
ATOM     15  H   UNL     1      31.450 -24.069 -14.816  0.00  0.00    +0.159 HD
ATOM     16  H   UNL     1      29.740 -22.419 -17.257  0.00  0.00    +0.159 HD
ATOM     17  H   UNL     1      29.710 -23.248 -15.767  0.00  0.00    +0.159 HD
ENDBRANCH  10  13
ENDBRANCH   7  10
ENDBRANCH   2   7
BRANCH   1  18
ATOM     18  N   UNL     1      35.996 -18.965 -21.545  0.00  0.00    -0.311 N 
ATOM     19  H   UNL     1      36.762 -19.240 -22.100  0.00  0.00    +0.152 HD
BRANCH  18  26
ATOM     20  O   UNL     1      34.745 -19.094 -24.158  0.00  0.00    -0.270 OA
ATOM     21  N   UNL     1      33.905 -16.969 -24.758  0.00  0.00    -0.280 N 
ATOM     22  C   UNL     1      34.508 -15.754 -22.900  0.00  0.00    +0.019 C 
ATOM     23  C   UNL     1      34.946 -17.135 -22.727  0.00  0.00    +0.069 C 
ATOM     24  C   UNL     1      33.882 -15.709 -24.150  0.00  0.00    +0.051 C 
ATOM     25  C   UNL     1      34.545 -17.912 -23.947  0.00  0.00    +0.251 C 
ATOM     26  C   UNL     1      35.594 -17.678 -21.694  0.00  0.00    +0.066 C 
ATOM     27  C   UNL     1      34.604 -14.620 -22.117  0.00  0.00    +0.001 C 
ATOM     28  C   UNL     1      33.335 -14.549 -24.660  0.00  0.00    +0.015 C 
ATOM     29  C   UNL     1      34.056 -13.433 -22.616  0.00  0.00    +0.000 C 
ATOM     30  C   UNL     1      33.427 -13.398 -23.874  0.00  0.00    +0.001 C 
ATOM     31  H   UNL     1      33.520 -17.166 -25.643  0.00  0.00    +0.155 HD
ENDBRANCH  18  26
ENDBRANCH   1  18
TORSDOF 5
ENDMDL
MODEL 3
REMARK VINA RESULT:     -11.6      1.413      1.799
REMARK  Name = 5288712
REMARK  5 active torsions:
REMARK  status: ('A' for Active; 'I' for Inactive)
REMARK    1  A    between atoms: C_1  and  N_18
REMARK    2  A    between atoms: C_2  and  S_7
REMARK    3  A    between atoms: S_7  and  N_10
REMARK    4  A    between atoms: N_10  and  C_13
REMARK    5  A    between atoms: N_18  and  C_26
REMARK                            x       y       z     vdW  Elec       q    Type
REMARK                         _______ _______ _______ _____ _____    ______ ____
ROOT
ATOM      1  C   UNL     1      35.544 -19.719 -20.792  0.00  0.00    +0.048 C 
ATOM      2  C   UNL     1      34.374 -21.767 -19.292  0.00  0.00    +0.129 C 
ATOM      3  C   UNL     1      34.157 -19.880 -20.785  0.00  0.00    +0.016 C 
ATOM      4  C   UNL     1      36.344 -20.588 -20.043  0.00  0.00    +0.016 C 
ATOM      5  C   UNL     1      33.573 -20.902 -20.036  0.00  0.00    +0.022 C 
ATOM      6  C   UNL     1      35.761 -21.611 -19.295  0.00  0.00    +0.022 C 
ENDROOT
BRANCH   2   7
ATOM      7  S   UNL     1      33.644 -23.047 -18.355  0.00  0.00    +0.103 S 
ATOM      8  O   UNL     1      33.771 -24.285 -19.116  0.00  0.00    -0.146 OA
ATOM      9  O   UNL     1      32.317 -22.570 -17.981  0.00  0.00    -0.146 OA
BRANCH   7  10
ATOM     10  N   UNL     1      34.593 -23.156 -17.026  0.00  0.00    -0.093 NA
BRANCH  10  13
ATOM     11  N   UNL     1      32.902 -23.884 -15.482  0.00  0.00    -0.369 N 
ATOM     12  N   UNL     1      34.772 -22.815 -14.728  0.00  0.00    -0.369 N 
ATOM     13  C   UNL     1      34.095 -23.290 -15.825  0.00  0.00    +0.212 C 
ATOM     14  H   UNL     1      32.321 -24.265 -16.179  0.00  0.00    +0.159 HD
ATOM     15  H   UNL     1      32.628 -23.927 -14.537  0.00  0.00    +0.159 HD
ATOM     16  H   UNL     1      35.642 -22.368 -14.842  0.00  0.00    +0.159 HD
ATOM     17  H   UNL     1      34.388 -22.922 -13.829  0.00  0.00    +0.159 HD
ENDBRANCH  10  13
ENDBRANCH   7  10
ENDBRANCH   2   7
BRANCH   1  18
ATOM     18  N   UNL     1      36.133 -18.690 -21.545  0.00  0.00    -0.311 N 
ATOM     19  H   UNL     1      37.075 -18.494 -21.335  0.00  0.00    +0.152 HD
BRANCH  18  26
ATOM     20  O   UNL     1      35.198 -16.423 -19.997  0.00  0.00    -0.270 OA
ATOM     21  N   UNL     1      34.148 -14.853 -21.416  0.00  0.00    -0.280 N 
ATOM     22  C   UNL     1      34.377 -15.919 -23.442  0.00  0.00    +0.019 C 
ATOM     23  C   UNL     1      34.979 -16.745 -22.400  0.00  0.00    +0.069 C 
ATOM     24  C   UNL     1      33.889 -14.782 -22.790  0.00  0.00    +0.051 C 
ATOM     25  C   UNL     1      34.820 -16.035 -21.087  0.00  0.00    +0.251 C 
ATOM     26  C   UNL     1      35.578 -17.931 -22.523  0.00  0.00    +0.066 C 
ATOM     27  C   UNL     1      34.231 -16.066 -24.808  0.00  0.00    +0.001 C 
ATOM     28  C   UNL     1      33.246 -13.763 -23.464  0.00  0.00    +0.015 C 
ATOM     29  C   UNL     1      33.583 -15.045 -25.510  0.00  0.00    +0.000 C 
ATOM     30  C   UNL     1      33.095 -13.905 -24.845  0.00  0.00    +0.001 C 
ATOM     31  H   UNL     1      33.891 -14.160 -20.766  0.00  0.00    +0.155 HD
ENDBRANCH  18  26
ENDBRANCH   1  18
TORSDOF 5
ENDMDL
MODEL 4
REMARK VINA RESULT:     -11.4      2.562      9.365
REMARK  Name = 5288712
REMARK  5 active torsions:
REMARK  status: ('A' for Active; 'I' for Inactive)
REMARK    1  A    between atoms: C_1  and  N_18
REMARK    2  A    between atoms: C_2  and  S_7
REMARK    3  A    between atoms: S_7  and  N_10
REMARK    4  A    between atoms: N_10  and  C_13
REMARK    5  A    between atoms: N_18  and  C_26
REMARK                            x       y       z     vdW  Elec       q    Type
REMARK                         _______ _______ _______ _____ _____    ______ ____
ROOT
ATOM      1  C   UNL     1      34.518 -22.125 -19.296  0.00  0.00    +0.048 C 
ATOM      2  C   UNL     1      35.278 -19.812 -20.668  0.00  0.00    +0.129 C 
ATOM      3  C   UNL     1      33.550 -21.305 -19.879  0.00  0.00    +0.016 C 
ATOM      4  C   UNL     1      35.869 -21.783 -19.402  0.00  0.00    +0.016 C 
ATOM      5  C   UNL     1      33.929 -20.150 -20.564  0.00  0.00    +0.022 C 
ATOM      6  C   UNL     1      36.249 -20.628 -20.087  0.00  0.00    +0.022 C 
ENDROOT
BRANCH   2   7
ATOM      7  S   UNL     1      35.753 -18.366 -21.524  0.00  0.00    +0.103 S 
ATOM      8  O   UNL     1      37.169 -18.488 -21.853  0.00  0.00    -0.146 OA
ATOM      9  O   UNL     1      35.301 -17.245 -20.710  0.00  0.00    -0.146 OA
BRANCH   7  10
ATOM     10  N   UNL     1      34.891 -18.429 -22.915  0.00  0.00    -0.093 NA
BRANCH  10  13
ATOM     11  N   UNL     1      33.913 -17.268 -24.778  0.00  0.00    -0.369 N 
ATOM     12  N   UNL     1      35.483 -16.247 -23.474  0.00  0.00    -0.369 N 
ATOM     13  C   UNL     1      34.751 -17.389 -23.693  0.00  0.00    +0.212 C 
ATOM     14  H   UNL     1      33.334 -18.020 -25.039  0.00  0.00    +0.159 HD
ATOM     15  H   UNL     1      33.894 -16.429 -25.293  0.00  0.00    +0.159 HD
ATOM     16  H   UNL     1      36.121 -16.206 -22.724  0.00  0.00    +0.159 HD
ATOM     17  H   UNL     1      35.370 -15.469 -24.066  0.00  0.00    +0.159 HD
ENDBRANCH  10  13
ENDBRANCH   7  10
ENDBRANCH   2   7
BRANCH   1  18
ATOM     18  N   UNL     1      34.137 -23.289 -18.606  0.00  0.00    -0.311 N 
ATOM     19  H   UNL     1      34.658 -24.098 -18.815  0.00  0.00    +0.152 HD
BRANCH  18  26
ATOM     20  O   UNL     1      35.670 -23.237 -16.146  0.00  0.00    -0.270 OA
ATOM     21  N   UNL     1      34.229 -23.491 -14.290  0.00  0.00    -0.280 N 
ATOM     22  C   UNL     1      32.205 -23.667 -15.369  0.00  0.00    +0.019 C 
ATOM     23  C   UNL     1      33.259 -23.498 -16.363  0.00  0.00    +0.069 C 
ATOM     24  C   UNL     1      32.849 -23.655 -14.127  0.00  0.00    +0.051 C 
ATOM     25  C   UNL     1      34.571 -23.386 -15.642  0.00  0.00    +0.251 C 
ATOM     26  C   UNL     1      33.147 -23.446 -17.691  0.00  0.00    +0.066 C 
ATOM     27  C   UNL     1      30.834 -23.819 -15.451  0.00  0.00    +0.001 C 
ATOM     28  C   UNL     1      32.162 -23.792 -12.937  0.00  0.00    +0.015 C 
ATOM     29  C   UNL     1      30.119 -23.959 -14.256  0.00  0.00    +0.000 C 
ATOM     30  C   UNL     1      30.776 -23.946 -13.012  0.00  0.00    +0.001 C 
ATOM     31  H   UNL     1      34.876 -23.454 -13.548  0.00  0.00    +0.155 HD
ENDBRANCH  18  26
ENDBRANCH   1  18
TORSDOF 5
ENDMDL
MODEL 5
REMARK VINA RESULT:     -11.1      3.743      6.164
REMARK  Name = 5288712
REMARK  5 active torsions:
REMARK  status: ('A' for Active; 'I' for Inactive)
REMARK    1  A    between atoms: C_1  and  N_18
REMARK    2  A    between atoms: C_2  and  S_7
REMARK    3  A    between atoms: S_7  and  N_10
REMARK    4  A    between atoms: N_10  and  C_13
REMARK    5  A    between atoms: N_18  and  C_26
REMARK                            x       y       z     vdW  Elec       q    Type
REMARK                         _______ _______ _______ _____ _____    ______ ____
ROOT
ATOM      1  C   UNL     1      35.483 -23.112 -16.045  0.00  0.00    +0.048 C 
ATOM      2  C   UNL     1      36.264 -23.622 -13.410  0.00  0.00    +0.129 C 
ATOM      3  C   UNL     1      36.789 -22.836 -15.634  0.00  0.00    +0.016 C 
ATOM      4  C   UNL     1      34.569 -23.645 -15.132  0.00  0.00    +0.016 C 
ATOM      5  C   UNL     1      37.179 -23.091 -14.319  0.00  0.00    +0.022 C 
ATOM      6  C   UNL     1      34.959 -23.899 -13.816  0.00  0.00    +0.022 C 
ENDROOT
BRANCH   2   7
ATOM      7  S   UNL     1      36.751 -23.940 -11.764  0.00  0.00    +0.103 S 
ATOM      8  O   UNL     1      35.670 -24.672 -11.113  0.00  0.00    -0.146 OA
ATOM      9  O   UNL     1      37.183 -22.661 -11.214  0.00  0.00    -0.146 OA
BRANCH   7  10
ATOM     10  N   UNL     1      38.036 -24.943 -11.919  0.00  0.00    -0.093 NA
BRANCH  10  13
ATOM     11  N   UNL     1      36.958 -26.962 -12.652  0.00  0.00    -0.369 N 
ATOM     12  N   UNL     1      39.012 -26.388 -13.464  0.00  0.00    -0.369 N 
ATOM     13  C   UNL     1      37.980 -26.040 -12.626  0.00  0.00    +0.212 C 
ATOM     14  H   UNL     1      36.158 -26.828 -12.094  0.00  0.00    +0.159 HD
ATOM     15  H   UNL     1      37.028 -27.757 -13.229  0.00  0.00    +0.159 HD
ATOM     16  H   UNL     1      39.804 -25.807 -13.536  0.00  0.00    +0.159 HD
ATOM     17  H   UNL     1      38.959 -27.216 -13.993  0.00  0.00    +0.159 HD
ENDBRANCH  10  13
ENDBRANCH   7  10
ENDBRANCH   2   7
BRANCH   1  18
ATOM     18  N   UNL     1      35.090 -22.856 -17.370  0.00  0.00    -0.311 N 
ATOM     19  H   UNL     1      34.314 -23.369 -17.690  0.00  0.00    +0.152 HD
BRANCH  18  26
ATOM     20  O   UNL     1      32.747 -22.130 -18.915  0.00  0.00    -0.270 OA
ATOM     21  N   UNL     1      33.341 -20.599 -20.614  0.00  0.00    -0.280 N 
ATOM     22  C   UNL     1      35.598 -20.406 -20.215  0.00  0.00    +0.019 C 
ATOM     23  C   UNL     1      35.023 -21.333 -19.246  0.00  0.00    +0.069 C 
ATOM     24  C   UNL     1      34.534 -19.990 -21.021  0.00  0.00    +0.051 C 
ATOM     25  C   UNL     1      33.552 -21.447 -19.521  0.00  0.00    +0.251 C 
ATOM     26  C   UNL     1      35.637 -21.996 -18.265  0.00  0.00    +0.066 C 
ATOM     27  C   UNL     1      36.877 -19.932 -20.436  0.00  0.00    +0.001 C 
ATOM     28  C   UNL     1      34.699 -19.099 -22.062  0.00  0.00    +0.015 C 
ATOM     29  C   UNL     1      37.067 -19.027 -21.486  0.00  0.00    +0.000 C 
ATOM     30  C   UNL     1      35.989 -18.615 -22.291  0.00  0.00    +0.001 C 
ATOM     31  H   UNL     1      32.467 -20.450 -21.042  0.00  0.00    +0.155 HD
ENDBRANCH  18  26
ENDBRANCH   1  18
TORSDOF 5
ENDMDL
MODEL 6
REMARK VINA RESULT:     -10.6      3.861      8.879
REMARK  Name = 5288712
REMARK  5 active torsions:
REMARK  status: ('A' for Active; 'I' for Inactive)
REMARK    1  A    between atoms: C_1  and  N_18
REMARK    2  A    between atoms: C_2  and  S_7
REMARK    3  A    between atoms: S_7  and  N_10
REMARK    4  A    between atoms: N_10  and  C_13
REMARK    5  A    between atoms: N_18  and  C_26
REMARK                            x       y       z     vdW  Elec       q    Type
REMARK                         _______ _______ _______ _____ _____    ______ ____
ROOT
ATOM      1  C   UNL     1      34.989 -17.570 -22.969  0.00  0.00    +0.048 C 
ATOM      2  C   UNL     1      34.073 -15.013 -23.628  0.00  0.00    +0.129 C 
ATOM      3  C   UNL     1      34.479 -17.314 -24.244  0.00  0.00    +0.016 C 
ATOM      4  C   UNL     1      35.040 -16.540 -22.025  0.00  0.00    +0.016 C 
ATOM      5  C   UNL     1      34.021 -16.038 -24.573  0.00  0.00    +0.022 C 
ATOM      6  C   UNL     1      34.582 -15.264 -22.354  0.00  0.00    +0.022 C 
ENDROOT
BRANCH   2   7
ATOM      7  S   UNL     1      33.500 -13.416 -24.039  0.00  0.00    +0.103 S 
ATOM      8  O   UNL     1      33.182 -13.409 -25.463  0.00  0.00    -0.146 OA
ATOM      9  O   UNL     1      34.494 -12.482 -23.523  0.00  0.00    -0.146 OA
BRANCH   7  10
ATOM     10  N   UNL     1      32.104 -13.267 -23.197  0.00  0.00    -0.093 NA
BRANCH  10  13
ATOM     11  N   UNL     1      32.180 -11.099 -22.162  0.00  0.00    -0.369 N 
ATOM     12  N   UNL     1      31.657 -12.948 -20.933  0.00  0.00    -0.369 N 
ATOM     13  C   UNL     1      31.994 -12.462 -22.173  0.00  0.00    +0.212 C 
ATOM     14  H   UNL     1      32.425 -10.628 -22.991  0.00  0.00    +0.159 HD
ATOM     15  H   UNL     1      32.068 -10.594 -21.325  0.00  0.00    +0.159 HD
ATOM     16  H   UNL     1      31.496 -13.913 -20.809  0.00  0.00    +0.159 HD
ATOM     17  H   UNL     1      31.576 -12.334 -20.169  0.00  0.00    +0.159 HD
ENDBRANCH  10  13
ENDBRANCH   7  10
ENDBRANCH   2   7
BRANCH   1  18
ATOM     18  N   UNL     1      35.451 -18.855 -22.637  0.00  0.00    -0.311 N 
ATOM     19  H   UNL     1      36.263 -19.151 -23.107  0.00  0.00    +0.152 HD
BRANCH  18  26
ATOM     20  O   UNL     1      37.642 -19.094 -20.753  0.00  0.00    -0.270 OA
ATOM     21  N   UNL     1      37.064 -20.602 -19.028  0.00  0.00    -0.280 N 
ATOM     22  C   UNL     1      34.943 -21.190 -19.696  0.00  0.00    +0.019 C 
ATOM     23  C   UNL     1      35.494 -20.236 -20.653  0.00  0.00    +0.069 C 
ATOM     24  C   UNL     1      35.937 -21.376 -18.730  0.00  0.00    +0.051 C 
ATOM     25  C   UNL     1      36.877 -19.864 -20.202  0.00  0.00    +0.251 C 
ATOM     26  C   UNL     1      34.927 -19.742 -21.754  0.00  0.00    +0.066 C 
ATOM     27  C   UNL     1      33.737 -21.858 -19.605  0.00  0.00    +0.001 C 
ATOM     28  C   UNL     1      35.770 -22.222 -17.652  0.00  0.00    +0.015 C 
ATOM     29  C   UNL     1      33.547 -22.721 -18.520  0.00  0.00    +0.000 C 
ATOM     30  C   UNL     1      34.554 -22.902 -17.553  0.00  0.00    +0.001 C 
ATOM     31  H   UNL     1      37.883 -20.579 -18.481  0.00  0.00    +0.155 HD
ENDBRANCH  18  26
ENDBRANCH   1  18
TORSDOF 5
ENDMDL
MODEL 7
REMARK VINA RESULT:     -10.4      2.361      9.663
REMARK  Name = 5288712
REMARK  5 active torsions:
REMARK  status: ('A' for Active; 'I' for Inactive)
REMARK    1  A    between atoms: C_1  and  N_18
REMARK    2  A    between atoms: C_2  and  S_7
REMARK    3  A    between atoms: S_7  and  N_10
REMARK    4  A    between atoms: N_10  and  C_13
REMARK    5  A    between atoms: N_18  and  C_26
REMARK                            x       y       z     vdW  Elec       q    Type
REMARK                         _______ _______ _______ _____ _____    ______ ____
ROOT
ATOM      1  C   UNL     1      34.215 -21.818 -19.087  0.00  0.00    +0.048 C 
ATOM      2  C   UNL     1      34.894 -19.897 -21.000  0.00  0.00    +0.129 C 
ATOM      3  C   UNL     1      33.215 -21.119 -19.766  0.00  0.00    +0.016 C 
ATOM      4  C   UNL     1      35.558 -21.552 -19.370  0.00  0.00    +0.016 C 
ATOM      5  C   UNL     1      33.553 -20.160 -20.721  0.00  0.00    +0.022 C 
ATOM      6  C   UNL     1      35.897 -20.593 -20.325  0.00  0.00    +0.022 C 
ENDROOT
BRANCH   2   7
ATOM      7  S   UNL     1      35.319 -18.697 -22.195  0.00  0.00    +0.103 S 
ATOM      8  O   UNL     1      34.419 -18.862 -23.332  0.00  0.00    -0.146 OA
ATOM      9  O   UNL     1      36.758 -18.818 -22.398  0.00  0.00    -0.146 OA
BRANCH   7  10
ATOM     10  N   UNL     1      34.976 -17.273 -21.465  0.00  0.00    -0.093 NA
BRANCH  10  13
ATOM     11  N   UNL     1      34.560 -14.913 -21.644  0.00  0.00    -0.369 N 
ATOM     12  N   UNL     1      35.319 -16.093 -23.444  0.00  0.00    -0.369 N 
ATOM     13  C   UNL     1      34.944 -16.145 -22.123  0.00  0.00    +0.212 C 
ATOM     14  H   UNL     1      34.268 -14.816 -20.709  0.00  0.00    +0.159 HD
ATOM     15  H   UNL     1      34.577 -14.128 -22.238  0.00  0.00    +0.159 HD
ATOM     16  H   UNL     1      35.617 -16.912 -23.904  0.00  0.00    +0.159 HD
ATOM     17  H   UNL     1      35.292 -15.238 -23.930  0.00  0.00    +0.159 HD
ENDBRANCH  10  13
ENDBRANCH   7  10
ENDBRANCH   2   7
BRANCH   1  18
ATOM     18  N   UNL     1      33.875 -22.785 -18.125  0.00  0.00    -0.311 N 
ATOM     19  H   UNL     1      33.010 -23.235 -18.261  0.00  0.00    +0.152 HD
BRANCH  18  26
ATOM     20  O   UNL     1      31.723 -23.259 -16.240  0.00  0.00    -0.270 OA
ATOM     21  N   UNL     1      32.605 -23.983 -14.172  0.00  0.00    -0.280 N 
ATOM     22  C   UNL     1      34.853 -23.965 -14.660  0.00  0.00    +0.019 C 
ATOM     23  C   UNL     1      34.108 -23.538 -15.839  0.00  0.00    +0.069 C 
ATOM     24  C   UNL     1      33.892 -24.223 -13.677  0.00  0.00    +0.051 C 
ATOM     25  C   UNL     1      32.645 -23.556 -15.503  0.00  0.00    +0.251 C 
ATOM     26  C   UNL     1      34.579 -23.180 -17.035  0.00  0.00    +0.066 C 
ATOM     27  C   UNL     1      36.198 -24.134 -14.393  0.00  0.00    +0.001 C 
ATOM     28  C   UNL     1      34.229 -24.653 -12.409  0.00  0.00    +0.015 C 
ATOM     29  C   UNL     1      36.561 -24.569 -13.114  0.00  0.00    +0.000 C 
ATOM     30  C   UNL     1      35.587 -24.826 -12.132  0.00  0.00    +0.001 C 
ATOM     31  H   UNL     1      31.778 -24.101 -13.650  0.00  0.00    +0.155 HD
ENDBRANCH  18  26
ENDBRANCH   1  18
TORSDOF 5
ENDMDL
MODEL 8
REMARK VINA RESULT:     -10.4      2.493      9.545
REMARK  Name = 5288712
REMARK  5 active torsions:
REMARK  status: ('A' for Active; 'I' for Inactive)
REMARK    1  A    between atoms: C_1  and  N_18
REMARK    2  A    between atoms: C_2  and  S_7
REMARK    3  A    between atoms: S_7  and  N_10
REMARK    4  A    between atoms: N_10  and  C_13
REMARK    5  A    between atoms: N_18  and  C_26
REMARK                            x       y       z     vdW  Elec       q    Type
REMARK                         _______ _______ _______ _____ _____    ______ ____
ROOT
ATOM      1  C   UNL     1      34.041 -21.911 -19.377  0.00  0.00    +0.048 C 
ATOM      2  C   UNL     1      34.988 -19.708 -20.813  0.00  0.00    +0.129 C 
ATOM      3  C   UNL     1      33.145 -21.054 -20.019  0.00  0.00    +0.016 C 
ATOM      4  C   UNL     1      35.414 -21.661 -19.456  0.00  0.00    +0.016 C 
ATOM      5  C   UNL     1      33.617 -19.955 -20.736  0.00  0.00    +0.022 C 
ATOM      6  C   UNL     1      35.887 -20.561 -20.173  0.00  0.00    +0.022 C 
ENDROOT
BRANCH   2   7
ATOM      7  S   UNL     1      35.580 -18.332 -21.709  0.00  0.00    +0.103 S 
ATOM      8  O   UNL     1      36.971 -18.595 -22.064  0.00  0.00    -0.146 OA
ATOM      9  O   UNL     1      35.255 -17.156 -20.910  0.00  0.00    -0.146 OA
BRANCH   7  10
ATOM     10  N   UNL     1      34.686 -18.338 -23.081  0.00  0.00    -0.093 NA
BRANCH  10  13
ATOM     11  N   UNL     1      33.739 -17.102 -24.911  0.00  0.00    -0.369 N 
ATOM     12  N   UNL     1      35.483 -16.244 -23.716  0.00  0.00    -0.369 N 
ATOM     13  C   UNL     1      34.618 -17.300 -23.871  0.00  0.00    +0.212 C 
ATOM     14  H   UNL     1      33.066 -17.788 -25.125  0.00  0.00    +0.159 HD
ATOM     15  H   UNL     1      33.783 -16.274 -25.441  0.00  0.00    +0.159 HD
ATOM     16  H   UNL     1      36.163 -16.264 -23.003  0.00  0.00    +0.159 HD
ATOM     17  H   UNL     1      35.423 -15.466 -24.316  0.00  0.00    +0.159 HD
ENDBRANCH  10  13
ENDBRANCH   7  10
ENDBRANCH   2   7
BRANCH   1  18
ATOM     18  N   UNL     1      33.566 -23.019 -18.655  0.00  0.00    -0.311 N 
ATOM     19  H   UNL     1      32.845 -23.532 -19.087  0.00  0.00    +0.152 HD
BRANCH  18  26
ATOM     20  O   UNL     1      31.142 -22.647 -17.108  0.00  0.00    -0.270 OA
ATOM     21  N   UNL     1      31.486 -23.361 -14.883  0.00  0.00    -0.280 N 
ATOM     22  C   UNL     1      33.679 -24.041 -15.008  0.00  0.00    +0.019 C 
ATOM     23  C   UNL     1      33.259 -23.552 -16.317  0.00  0.00    +0.069 C 
ATOM     24  C   UNL     1      32.565 -23.904 -14.175  0.00  0.00    +0.051 C 
ATOM     25  C   UNL     1      31.827 -23.112 -16.216  0.00  0.00    +0.251 C 
ATOM     26  C   UNL     1      33.969 -23.478 -17.443  0.00  0.00    +0.066 C 
ATOM     27  C   UNL     1      34.865 -24.558 -14.521  0.00  0.00    +0.001 C 
ATOM     28  C   UNL     1      32.587 -24.270 -12.844  0.00  0.00    +0.015 C 
ATOM     29  C   UNL     1      34.909 -24.936 -13.174  0.00  0.00    +0.000 C 
ATOM     30  C   UNL     1      33.781 -24.793 -12.344  0.00  0.00    +0.001 C 
ATOM     31  H   UNL     1      30.600 -23.178 -14.492  0.00  0.00    +0.155 HD
ENDBRANCH  18  26
ENDBRANCH   1  18
TORSDOF 5
ENDMDL
MODEL 9
REMARK VINA RESULT:     -10.4      6.272     10.311
REMARK  Name = 5288712
REMARK  5 active torsions:
REMARK  status: ('A' for Active; 'I' for Inactive)
REMARK    1  A    between atoms: C_1  and  N_18
REMARK    2  A    between atoms: C_2  and  S_7
REMARK    3  A    between atoms: S_7  and  N_10
REMARK    4  A    between atoms: N_10  and  C_13
REMARK    5  A    between atoms: N_18  and  C_26
REMARK                            x       y       z     vdW  Elec       q    Type
REMARK                         _______ _______ _______ _____ _____    ______ ____
ROOT
ATOM      1  C   UNL     1      33.600 -12.150 -23.422  0.00  0.00    +0.048 C 
ATOM      2  C   UNL     1      32.613  -9.674 -22.581  0.00  0.00    +0.129 C 
ATOM      3  C   UNL     1      32.402 -12.078 -22.708  0.00  0.00    +0.016 C 
ATOM      4  C   UNL     1      34.302 -10.977 -23.715  0.00  0.00    +0.016 C 
ATOM      5  C   UNL     1      31.909 -10.842 -22.288  0.00  0.00    +0.022 C 
ATOM      6  C   UNL     1      33.810  -9.741 -23.294  0.00  0.00    +0.022 C 
ENDROOT
BRANCH   2   7
ATOM      7  S   UNL     1      31.997  -8.127 -22.055  0.00  0.00    +0.103 S 
ATOM      8  O   UNL     1      30.786  -7.847 -22.818  0.00  0.00    -0.146 OA
ATOM      9  O   UNL     1      33.119  -7.198 -22.126  0.00  0.00    -0.146 OA
BRANCH   7  10
ATOM     10  N   UNL     1      31.578  -8.379 -20.493  0.00  0.00    -0.093 NA
BRANCH  10  13
ATOM     11  N   UNL     1      32.731  -9.485 -18.697  0.00  0.00    -0.369 N 
ATOM     12  N   UNL     1      33.265  -7.340 -19.266  0.00  0.00    -0.369 N 
ATOM     13  C   UNL     1      32.466  -8.425 -19.535  0.00  0.00    +0.212 C 
ATOM     14  H   UNL     1      32.225 -10.324 -18.788  0.00  0.00    +0.159 HD
ATOM     15  H   UNL     1      33.428  -9.403 -18.007  0.00  0.00    +0.159 HD
ATOM     16  H   UNL     1      33.172  -6.516 -19.799  0.00  0.00    +0.159 HD
ATOM     17  H   UNL     1      33.930  -7.386 -18.543  0.00  0.00    +0.159 HD
ENDBRANCH  10  13
ENDBRANCH   7  10
ENDBRANCH   2   7
BRANCH   1  18
ATOM     18  N   UNL     1      34.097 -13.394 -23.846  0.00  0.00    -0.311 N 
ATOM     19  H   UNL     1      34.193 -13.505 -24.820  0.00  0.00    +0.152 HD
BRANCH  18  26
ATOM     20  O   UNL     1      33.626 -15.556 -25.720  0.00  0.00    -0.270 OA
ATOM     21  N   UNL     1      34.171 -17.626 -24.720  0.00  0.00    -0.280 N 
ATOM     22  C   UNL     1      34.845 -16.908 -22.641  0.00  0.00    +0.019 C 
ATOM     23  C   UNL     1      34.456 -15.750 -23.440  0.00  0.00    +0.069 C 
ATOM     24  C   UNL     1      34.653 -18.021 -23.466  0.00  0.00    +0.051 C 
ATOM     25  C   UNL     1      34.020 -16.238 -24.791  0.00  0.00    +0.251 C 
ATOM     26  C   UNL     1      34.462 -14.462 -23.093  0.00  0.00    +0.066 C 
ATOM     27  C   UNL     1      35.317 -17.059 -21.351  0.00  0.00    +0.001 C 
ATOM     28  C   UNL     1      34.919 -19.308 -23.045  0.00  0.00    +0.015 C 
ATOM     29  C   UNL     1      35.594 -18.356 -20.904  0.00  0.00    +0.000 C 
ATOM     30  C   UNL     1      35.397 -19.469 -21.742  0.00  0.00    +0.001 C 
ATOM     31  H   UNL     1      33.966 -18.247 -25.456  0.00  0.00    +0.155 HD
ENDBRANCH  18  26
ENDBRANCH   1  18
TORSDOF 5
ENDMDL
