MODEL 1
REMARK VINA RESULT:     -10.6      0.000      0.000
REMARK  Name = 11223423
REMARK  3 active torsions:
REMARK  status: ('A' for Active; 'I' for Inactive)
REMARK    1  A    between atoms: N_1  and  C_23
REMARK    2  A    between atoms: C_7  and  N_12
REMARK    3  A    between atoms: C_29  and  O_30
REMARK                            x       y       z     vdW  Elec       q    Type
REMARK                         _______ _______ _______ _____ _____    ______ ____
ROOT
ATOM      1  N   UNL     1      32.195  -8.305 -22.552  0.00  0.00    -0.263 N 
ATOM      2  N   UNL     1      31.743  -9.454 -20.388  0.00  0.00    -0.395 NA
ATOM      3  C   UNL     1      32.981 -10.289 -23.726  0.00  0.00    +0.053 C 
ATOM      4  C   UNL     1      32.560 -10.593 -22.334  0.00  0.00    +0.035 C 
ATOM      5  C   UNL     1      32.461  -8.853 -23.895  0.00  0.00    +0.103 C 
ATOM      6  C   UNL     1      32.146  -9.438 -21.674  0.00  0.00    +0.183 C 
ATOM      7  C   UNL     1      32.588 -11.811 -21.677  0.00  0.00    +0.058 C 
ATOM      8  C   UNL     1      32.175 -11.845 -20.352  0.00  0.00    +0.097 C 
ATOM      9  C   UNL     1      31.768 -10.656 -19.760  0.00  0.00    +0.094 C 
ATOM     10  C   UNL     1      31.322 -10.668 -18.335  0.00  0.00    +0.062 C 
ENDROOT
BRANCH   7  12
ATOM     11  O   UNL     1      34.889 -15.931 -19.884  0.00  0.00    -0.252 OA
ATOM     12  N   UNL     1      33.013 -12.964 -22.307  0.00  0.00    -0.191 N 
ATOM     13  N   UNL     1      34.505 -16.104 -22.245  0.00  0.00    -0.225 N 
ATOM     14  N   UNL     1      33.610 -13.954 -21.609  0.00  0.00    -0.159 NA
ATOM     15  N   UNL     1      35.497 -17.806 -21.105  0.00  0.00    -0.287 N 
ATOM     16  C   UNL     1      33.872 -14.877 -22.538  0.00  0.00    +0.158 C 
ATOM     17  C   UNL     1      34.881 -17.104 -23.237  0.00  0.00    +0.122 C 
ATOM     18  C   UNL     1      32.897 -13.246 -23.643  0.00  0.00    +0.092 C 
ATOM     19  C   UNL     1      35.357 -18.303 -22.442  0.00  0.00    +0.113 C 
ATOM     20  C   UNL     1      33.450 -14.489 -23.824  0.00  0.00    +0.054 C 
ATOM     21  C   UNL     1      34.942 -16.522 -20.955  0.00  0.00    +0.309 C 
ATOM     22  H   UNL     1      35.932 -18.305 -20.377  0.00  0.00    +0.151 HD
ENDBRANCH   7  12
BRANCH   1  23
ATOM     23  C   UNL     1      31.908  -6.954 -22.335  0.00  0.00    +0.050 C 
ATOM     24  C   UNL     1      32.776  -5.921 -22.765  0.00  0.00    -0.005 C 
ATOM     25  C   UNL     1      30.722  -6.567 -21.668  0.00  0.00    +0.018 C 
ATOM     26  C   UNL     1      32.473  -4.578 -22.539  0.00  0.00    +0.034 C 
ATOM     27  C   UNL     1      34.044  -6.266 -23.475  0.00  0.00    +0.032 C 
ATOM     28  C   UNL     1      30.419  -5.224 -21.443  0.00  0.00    +0.038 C 
ATOM     29  C   UNL     1      31.296  -4.230 -21.879  0.00  0.00    +0.139 C 
BRANCH  29  30
ATOM     30  O   UNL     1      31.000  -2.919 -21.659  0.00  0.00    -0.471 OA
ATOM     31  C   UNL     1      31.952  -1.955 -22.105  0.00  0.00    +0.252 C 
ENDBRANCH  29  30
ENDBRANCH   1  23
TORSDOF 3
ENDMDL
MODEL 2
REMARK VINA RESULT:     -10.0      2.717      5.858
REMARK  Name = 11223423
REMARK  3 active torsions:
REMARK  status: ('A' for Active; 'I' for Inactive)
REMARK    1  A    between atoms: N_1  and  C_23
REMARK    2  A    between atoms: C_7  and  N_12
REMARK    3  A    between atoms: C_29  and  O_30
REMARK                            x       y       z     vdW  Elec       q    Type
REMARK                         _______ _______ _______ _____ _____    ______ ____
ROOT
ATOM      1  N   UNL     1      33.324 -13.478 -21.664  0.00  0.00    -0.263 N 
ATOM      2  N   UNL     1      33.533 -14.560 -23.899  0.00  0.00    -0.395 NA
ATOM      3  C   UNL     1      34.263 -15.337 -20.400  0.00  0.00    +0.053 C 
ATOM      4  C   UNL     1      34.252 -15.604 -21.862  0.00  0.00    +0.035 C 
ATOM      5  C   UNL     1      33.910 -13.843 -20.360  0.00  0.00    +0.103 C 
ATOM      6  C   UNL     1      33.681 -14.540 -22.559  0.00  0.00    +0.183 C 
ATOM      7  C   UNL     1      34.678 -16.738 -22.529  0.00  0.00    +0.058 C 
ATOM      8  C   UNL     1      34.533 -16.774 -23.910  0.00  0.00    +0.097 C 
ATOM      9  C   UNL     1      33.963 -15.675 -24.540  0.00  0.00    +0.094 C 
ATOM     10  C   UNL     1      33.795 -15.693 -26.023  0.00  0.00    +0.062 C 
ENDROOT
BRANCH   7  12
ATOM     11  O   UNL     1      32.528 -20.579 -20.056  0.00  0.00    -0.252 OA
ATOM     12  N   UNL     1      35.229 -17.811 -21.856  0.00  0.00    -0.191 N 
ATOM     13  N   UNL     1      34.921 -20.737 -20.002  0.00  0.00    -0.225 N 
ATOM     14  N   UNL     1      34.442 -18.735 -21.264  0.00  0.00    -0.159 NA
ATOM     15  N   UNL     1      33.633 -22.328 -19.008  0.00  0.00    -0.287 N 
ATOM     16  C   UNL     1      35.315 -19.593 -20.729  0.00  0.00    +0.158 C 
ATOM     17  C   UNL     1      35.836 -21.654 -19.336  0.00  0.00    +0.122 C 
ATOM     18  C   UNL     1      36.566 -18.070 -21.704  0.00  0.00    +0.092 C 
ATOM     19  C   UNL     1      34.976 -22.804 -18.851  0.00  0.00    +0.113 C 
ATOM     20  C   UNL     1      36.653 -19.228 -20.971  0.00  0.00    +0.054 C 
ATOM     21  C   UNL     1      33.576 -21.129 -19.743  0.00  0.00    +0.309 C 
ATOM     22  H   UNL     1      32.842 -22.787 -18.645  0.00  0.00    +0.151 HD
ENDBRANCH   7  12
BRANCH   1  23
ATOM     23  C   UNL     1      32.706 -12.245 -21.892  0.00  0.00    +0.050 C 
ATOM     24  C   UNL     1      33.173 -11.339 -22.875  0.00  0.00    -0.005 C 
ATOM     25  C   UNL     1      31.575 -11.854 -21.137  0.00  0.00    +0.018 C 
ATOM     26  C   UNL     1      32.544 -10.112 -23.089  0.00  0.00    +0.034 C 
ATOM     27  C   UNL     1      34.363 -11.695 -23.705  0.00  0.00    +0.032 C 
ATOM     28  C   UNL     1      30.946 -10.628 -21.351  0.00  0.00    +0.038 C 
ATOM     29  C   UNL     1      31.431  -9.757 -22.328  0.00  0.00    +0.139 C 
BRANCH  29  30
ATOM     30  O   UNL     1      30.817  -8.560 -22.536  0.00  0.00    -0.471 OA
ATOM     31  C   UNL     1      31.440  -7.405 -21.978  0.00  0.00    +0.252 C 
ENDBRANCH  29  30
ENDBRANCH   1  23
TORSDOF 3
ENDMDL
MODEL 3
REMARK VINA RESULT:      -9.2      1.764      9.434
REMARK  Name = 11223423
REMARK  3 active torsions:
REMARK  status: ('A' for Active; 'I' for Inactive)
REMARK    1  A    between atoms: N_1  and  C_23
REMARK    2  A    between atoms: C_7  and  N_12
REMARK    3  A    between atoms: C_29  and  O_30
REMARK                            x       y       z     vdW  Elec       q    Type
REMARK                         _______ _______ _______ _____ _____    ______ ____
ROOT
ATOM      1  N   UNL     1      33.566 -12.836 -22.401  0.00  0.00    -0.263 N 
ATOM      2  N   UNL     1      32.460 -11.835 -20.405  0.00  0.00    -0.395 NA
ATOM      3  C   UNL     1      33.125 -10.962 -23.894  0.00  0.00    +0.053 C 
ATOM      4  C   UNL     1      32.620 -10.713 -22.519  0.00  0.00    +0.035 C 
ATOM      5  C   UNL     1      33.969 -12.229 -23.684  0.00  0.00    +0.103 C 
ATOM      6  C   UNL     1      32.855 -11.811 -21.694  0.00  0.00    +0.183 C 
ATOM      7  C   UNL     1      31.950  -9.601 -22.042  0.00  0.00    +0.058 C 
ATOM      8  C   UNL     1      31.537  -9.609 -20.716  0.00  0.00    +0.097 C 
ATOM      9  C   UNL     1      31.813 -10.734 -19.949  0.00  0.00    +0.094 C 
ATOM     10  C   UNL     1      31.377 -10.766 -18.522  0.00  0.00    +0.062 C 
ENDROOT
BRANCH   7  12
ATOM     11  O   UNL     1      32.225  -4.642 -21.133  0.00  0.00    -0.252 OA
ATOM     12  N   UNL     1      31.689  -8.510 -22.848  0.00  0.00    -0.191 N 
ATOM     13  N   UNL     1      31.517  -5.079 -23.382  0.00  0.00    -0.225 N 
ATOM     14  N   UNL     1      31.841  -7.252 -22.382  0.00  0.00    -0.159 NA
ATOM     15  N   UNL     1      31.779  -2.942 -22.645  0.00  0.00    -0.287 N 
ATOM     16  C   UNL     1      31.502  -6.489 -23.425  0.00  0.00    +0.158 C 
ATOM     17  C   UNL     1      31.082  -4.209 -24.468  0.00  0.00    +0.122 C 
ATOM     18  C   UNL     1      31.266  -8.551 -24.151  0.00  0.00    +0.092 C 
ATOM     19  C   UNL     1      31.447  -2.804 -24.032  0.00  0.00    +0.113 C 
ATOM     20  C   UNL     1      31.135  -7.245 -24.554  0.00  0.00    +0.054 C 
ATOM     21  C   UNL     1      31.885  -4.289 -22.254  0.00  0.00    +0.309 C 
ATOM     22  H   UNL     1      31.918  -2.181 -22.036  0.00  0.00    +0.151 HD
ENDBRANCH   7  12
BRANCH   1  23
ATOM     23  C   UNL     1      33.991 -14.108 -22.005  0.00  0.00    +0.050 C 
ATOM     24  C   UNL     1      34.193 -15.158 -22.934  0.00  0.00    -0.005 C 
ATOM     25  C   UNL     1      34.237 -14.395 -20.642  0.00  0.00    +0.018 C 
ATOM     26  C   UNL     1      34.617 -16.421 -22.521  0.00  0.00    +0.034 C 
ATOM     27  C   UNL     1      33.950 -14.917 -24.389  0.00  0.00    +0.032 C 
ATOM     28  C   UNL     1      34.661 -15.658 -20.229  0.00  0.00    +0.038 C 
ATOM     29  C   UNL     1      34.851 -16.671 -21.170  0.00  0.00    +0.139 C 
BRANCH  29  30
ATOM     30  O   UNL     1      35.264 -17.903 -20.766  0.00  0.00    -0.471 OA
ATOM     31  C   UNL     1      36.157 -18.604 -21.631  0.00  0.00    +0.252 C 
ENDBRANCH  29  30
ENDBRANCH   1  23
TORSDOF 3
ENDMDL
MODEL 4
REMARK VINA RESULT:      -9.2      2.484      9.202
REMARK  Name = 11223423
REMARK  3 active torsions:
REMARK  status: ('A' for Active; 'I' for Inactive)
REMARK    1  A    between atoms: N_1  and  C_23
REMARK    2  A    between atoms: C_7  and  N_12
REMARK    3  A    between atoms: C_29  and  O_30
REMARK                            x       y       z     vdW  Elec       q    Type
REMARK                         _______ _______ _______ _____ _____    ______ ____
ROOT
ATOM      1  N   UNL     1      33.744 -13.154 -22.547  0.00  0.00    -0.263 N 
ATOM      2  N   UNL     1      32.592 -12.087 -20.612  0.00  0.00    -0.395 NA
ATOM      3  C   UNL     1      33.392 -11.307 -24.095  0.00  0.00    +0.053 C 
ATOM      4  C   UNL     1      32.846 -11.017 -22.744  0.00  0.00    +0.035 C 
ATOM      5  C   UNL     1      34.203 -12.584 -23.828  0.00  0.00    +0.103 C 
ATOM      6  C   UNL     1      33.031 -12.100 -21.887  0.00  0.00    +0.183 C 
ATOM      7  C   UNL     1      32.183  -9.881 -22.314  0.00  0.00    +0.058 C 
ATOM      8  C   UNL     1      31.725  -9.851 -21.003  0.00  0.00    +0.097 C 
ATOM      9  C   UNL     1      31.951 -10.964 -20.203  0.00  0.00    +0.094 C 
ATOM     10  C   UNL     1      31.466 -10.956 -18.791  0.00  0.00    +0.062 C 
ENDROOT
BRANCH   7  12
ATOM     11  O   UNL     1      35.375  -6.462 -24.215  0.00  0.00    -0.252 OA
ATOM     12  N   UNL     1      31.972  -8.804 -23.152  0.00  0.00    -0.191 N 
ATOM     13  N   UNL     1      33.129  -6.068 -24.960  0.00  0.00    -0.225 N 
ATOM     14  N   UNL     1      32.998  -8.017 -23.541  0.00  0.00    -0.159 NA
ATOM     15  N   UNL     1      34.832  -4.728 -25.655  0.00  0.00    -0.287 N 
ATOM     16  C   UNL     1      32.415  -7.107 -24.325  0.00  0.00    +0.158 C 
ATOM     17  C   UNL     1      32.524  -5.010 -25.758  0.00  0.00    +0.122 C 
ATOM     18  C   UNL     1      30.767  -8.409 -23.673  0.00  0.00    +0.092 C 
ATOM     19  C   UNL     1      33.684  -4.250 -26.369  0.00  0.00    +0.113 C 
ATOM     20  C   UNL     1      31.025  -7.302 -24.443  0.00  0.00    +0.054 C 
ATOM     21  C   UNL     1      34.533  -5.848 -24.858  0.00  0.00    +0.309 C 
ATOM     22  H   UNL     1      35.725  -4.321 -25.718  0.00  0.00    +0.151 HD
ENDBRANCH   7  12
BRANCH   1  23
ATOM     23  C   UNL     1      34.129 -14.425 -22.109  0.00  0.00    +0.050 C 
ATOM     24  C   UNL     1      34.319 -15.506 -23.005  0.00  0.00    -0.005 C 
ATOM     25  C   UNL     1      34.346 -14.680 -20.734  0.00  0.00    +0.018 C 
ATOM     26  C   UNL     1      34.702 -16.767 -22.550  0.00  0.00    +0.034 C 
ATOM     27  C   UNL     1      34.104 -15.300 -24.469  0.00  0.00    +0.032 C 
ATOM     28  C   UNL     1      34.731 -15.941 -20.280  0.00  0.00    +0.038 C 
ATOM     29  C   UNL     1      34.909 -16.985 -21.189  0.00  0.00    +0.139 C 
BRANCH  29  30
ATOM     30  O   UNL     1      35.284 -18.216 -20.744  0.00  0.00    -0.471 OA
ATOM     31  C   UNL     1      34.936 -19.334 -21.559  0.00  0.00    +0.252 C 
ENDBRANCH  29  30
ENDBRANCH   1  23
TORSDOF 3
ENDMDL
MODEL 5
REMARK VINA RESULT:      -9.2      7.518     11.814
REMARK  Name = 11223423
REMARK  3 active torsions:
REMARK  status: ('A' for Active; 'I' for Inactive)
REMARK    1  A    between atoms: N_1  and  C_23
REMARK    2  A    between atoms: C_7  and  N_12
REMARK    3  A    between atoms: C_29  and  O_30
REMARK                            x       y       z     vdW  Elec       q    Type
REMARK                         _______ _______ _______ _____ _____    ______ ____
ROOT
ATOM      1  N   UNL     1      35.783 -19.192 -21.131  0.00  0.00    -0.263 N 
ATOM      2  N   UNL     1      33.774 -20.513 -20.477  0.00  0.00    -0.395 NA
ATOM      3  C   UNL     1      37.241 -20.082 -19.394  0.00  0.00    +0.053 C 
ATOM      4  C   UNL     1      35.885 -20.690 -19.353  0.00  0.00    +0.035 C 
ATOM      5  C   UNL     1      37.197 -19.330 -20.733  0.00  0.00    +0.103 C 
ATOM      6  C   UNL     1      35.062 -20.142 -20.334  0.00  0.00    +0.183 C 
ATOM      7  C   UNL     1      35.398 -21.636 -18.469  0.00  0.00    +0.058 C 
ATOM      8  C   UNL     1      34.073 -22.031 -18.603  0.00  0.00    +0.097 C 
ATOM      9  C   UNL     1      33.313 -21.448 -19.609  0.00  0.00    +0.094 C 
ATOM     10  C   UNL     1      31.886 -21.855 -19.770  0.00  0.00    +0.062 C 
ENDROOT
BRANCH   7  12
ATOM     11  O   UNL     1      34.346 -24.920 -14.781  0.00  0.00    -0.252 OA
ATOM     12  N   UNL     1      36.192 -22.178 -17.477  0.00  0.00    -0.191 N 
ATOM     13  N   UNL     1      36.648 -24.249 -14.721  0.00  0.00    -0.225 N 
ATOM     14  N   UNL     1      35.685 -23.059 -16.588  0.00  0.00    -0.159 NA
ATOM     15  N   UNL     1      35.840 -25.751 -13.215  0.00  0.00    -0.287 N 
ATOM     16  C   UNL     1      36.728 -23.349 -15.805  0.00  0.00    +0.158 C 
ATOM     17  C   UNL     1      37.737 -24.534 -13.796  0.00  0.00    +0.122 C 
ATOM     18  C   UNL     1      37.520 -21.913 -17.270  0.00  0.00    +0.092 C 
ATOM     19  C   UNL     1      37.242 -25.674 -12.928  0.00  0.00    +0.113 C 
ATOM     20  C   UNL     1      37.898 -22.663 -16.184  0.00  0.00    +0.054 C 
ATOM     21  C   UNL     1      35.478 -24.955 -14.317  0.00  0.00    +0.309 C 
ATOM     22  H   UNL     1      35.205 -26.299 -12.700  0.00  0.00    +0.151 HD
ENDBRANCH   7  12
BRANCH   1  23
ATOM     23  C   UNL     1      35.377 -18.381 -22.195  0.00  0.00    +0.050 C 
ATOM     24  C   UNL     1      34.999 -18.916 -23.450  0.00  0.00    -0.005 C 
ATOM     25  C   UNL     1      35.330 -16.974 -22.052  0.00  0.00    +0.018 C 
ATOM     26  C   UNL     1      34.597 -18.091 -24.500  0.00  0.00    +0.034 C 
ATOM     27  C   UNL     1      35.028 -20.395 -23.664  0.00  0.00    +0.032 C 
ATOM     28  C   UNL     1      34.927 -16.149 -23.102  0.00  0.00    +0.038 C 
ATOM     29  C   UNL     1      34.561 -16.708 -24.326  0.00  0.00    +0.139 C 
BRANCH  29  30
ATOM     30  O   UNL     1      34.168 -15.902 -25.351  0.00  0.00    -0.471 OA
ATOM     31  C   UNL     1      33.431 -14.730 -25.009  0.00  0.00    +0.252 C 
ENDBRANCH  29  30
ENDBRANCH   1  23
TORSDOF 3
ENDMDL
MODEL 6
REMARK VINA RESULT:      -9.1      2.108      9.596
REMARK  Name = 11223423
REMARK  3 active torsions:
REMARK  status: ('A' for Active; 'I' for Inactive)
REMARK    1  A    between atoms: N_1  and  C_23
REMARK    2  A    between atoms: C_7  and  N_12
REMARK    3  A    between atoms: C_29  and  O_30
REMARK                            x       y       z     vdW  Elec       q    Type
REMARK                         _______ _______ _______ _____ _____    ______ ____
ROOT
ATOM      1  N   UNL     1      33.920 -12.228 -23.540  0.00  0.00    -0.263 N 
ATOM      2  N   UNL     1      32.054 -11.789 -21.949  0.00  0.00    -0.395 NA
ATOM      3  C   UNL     1      34.297  -9.895 -24.131  0.00  0.00    +0.053 C 
ATOM      4  C   UNL     1      33.221 -10.049 -23.118  0.00  0.00    +0.035 C 
ATOM      5  C   UNL     1      34.896 -11.310 -24.156  0.00  0.00    +0.103 C 
ATOM      6  C   UNL     1      33.003 -11.393 -22.821  0.00  0.00    +0.183 C 
ATOM      7  C   UNL     1      32.450  -9.062 -22.530  0.00  0.00    +0.058 C 
ATOM      8  C   UNL     1      31.469  -9.453 -21.629  0.00  0.00    +0.097 C 
ATOM      9  C   UNL     1      31.312 -10.809 -21.375  0.00  0.00    +0.094 C 
ATOM     10  C   UNL     1      30.262 -11.253 -20.411  0.00  0.00    +0.062 C 
ENDROOT
BRANCH   7  12
ATOM     11  O   UNL     1      29.907  -4.945 -21.089  0.00  0.00    -0.252 OA
ATOM     12  N   UNL     1      32.636  -7.726 -22.825  0.00  0.00    -0.191 N 
ATOM     13  N   UNL     1      31.742  -4.379 -22.526  0.00  0.00    -0.225 N 
ATOM     14  N   UNL     1      31.819  -6.782 -22.310  0.00  0.00    -0.159 NA
ATOM     15  N   UNL     1      30.402  -2.754 -21.665  0.00  0.00    -0.287 N 
ATOM     16  C   UNL     1      32.303  -5.642 -22.810  0.00  0.00    +0.158 C 
ATOM     17  C   UNL     1      32.188  -3.120 -23.111  0.00  0.00    +0.122 C 
ATOM     18  C   UNL     1      33.615  -7.205 -23.631  0.00  0.00    +0.092 C 
ATOM     19  C   UNL     1      31.417  -2.039 -22.380  0.00  0.00    +0.113 C 
ATOM     20  C   UNL     1      33.422  -5.845 -23.641  0.00  0.00    +0.054 C 
ATOM     21  C   UNL     1      30.612  -4.145 -21.691  0.00  0.00    +0.309 C 
ATOM     22  H   UNL     1      29.645  -2.321 -21.208  0.00  0.00    +0.151 HD
ENDBRANCH   7  12
BRANCH   1  23
ATOM     23  C   UNL     1      34.063 -13.619 -23.588  0.00  0.00    +0.050 C 
ATOM     24  C   UNL     1      33.701 -14.374 -24.730  0.00  0.00    -0.005 C 
ATOM     25  C   UNL     1      34.581 -14.330 -22.480  0.00  0.00    +0.018 C 
ATOM     26  C   UNL     1      33.849 -15.761 -24.761  0.00  0.00    +0.034 C 
ATOM     27  C   UNL     1      33.147 -13.680 -25.932  0.00  0.00    +0.032 C 
ATOM     28  C   UNL     1      34.730 -15.716 -22.511  0.00  0.00    +0.038 C 
ATOM     29  C   UNL     1      34.363 -16.431 -23.652  0.00  0.00    +0.139 C 
BRANCH  29  30
ATOM     30  O   UNL     1      34.509 -17.784 -23.681  0.00  0.00    -0.471 OA
ATOM     31  C   UNL     1      35.311 -18.374 -22.660  0.00  0.00    +0.252 C 
ENDBRANCH  29  30
ENDBRANCH   1  23
TORSDOF 3
ENDMDL
MODEL 7
REMARK VINA RESULT:      -8.8      2.587      9.331
REMARK  Name = 11223423
REMARK  3 active torsions:
REMARK  status: ('A' for Active; 'I' for Inactive)
REMARK    1  A    between atoms: N_1  and  C_23
REMARK    2  A    between atoms: C_7  and  N_12
REMARK    3  A    between atoms: C_29  and  O_30
REMARK                            x       y       z     vdW  Elec       q    Type
REMARK                         _______ _______ _______ _____ _____    ______ ____
ROOT
ATOM      1  N   UNL     1      33.915 -12.180 -23.462  0.00  0.00    -0.263 N 
ATOM      2  N   UNL     1      32.024 -11.724 -21.905  0.00  0.00    -0.395 NA
ATOM      3  C   UNL     1      34.247  -9.861 -24.133  0.00  0.00    +0.053 C 
ATOM      4  C   UNL     1      33.165 -10.002 -23.124  0.00  0.00    +0.035 C 
ATOM      5  C   UNL     1      34.877 -11.263 -24.102  0.00  0.00    +0.103 C 
ATOM      6  C   UNL     1      32.973 -11.339 -22.782  0.00  0.00    +0.183 C 
ATOM      7  C   UNL     1      32.368  -9.012 -22.580  0.00  0.00    +0.058 C 
ATOM      8  C   UNL     1      31.386  -9.391 -21.673  0.00  0.00    +0.097 C 
ATOM      9  C   UNL     1      31.256 -10.741 -21.373  0.00  0.00    +0.094 C 
ATOM     10  C   UNL     1      30.206 -11.172 -20.403  0.00  0.00    +0.062 C 
ENDROOT
BRANCH   7  12
ATOM     11  O   UNL     1      33.887  -6.833 -26.874  0.00  0.00    -0.252 OA
ATOM     12  N   UNL     1      32.529  -7.683 -22.920  0.00  0.00    -0.191 N 
ATOM     13  N   UNL     1      33.372  -5.195 -25.198  0.00  0.00    -0.225 N 
ATOM     14  N   UNL     1      32.949  -7.330 -24.154  0.00  0.00    -0.159 NA
ATOM     15  N   UNL     1      34.058  -4.555 -27.272  0.00  0.00    -0.287 N 
ATOM     16  C   UNL     1      32.982  -5.996 -24.104  0.00  0.00    +0.158 C 
ATOM     17  C   UNL     1      33.498  -3.743 -25.164  0.00  0.00    +0.122 C 
ATOM     18  C   UNL     1      32.300  -6.606 -22.104  0.00  0.00    +0.092 C 
ATOM     19  C   UNL     1      33.763  -3.326 -26.596  0.00  0.00    +0.113 C 
ATOM     20  C   UNL     1      32.588  -5.490 -22.851  0.00  0.00    +0.054 C 
ATOM     21  C   UNL     1      33.775  -5.680 -26.476  0.00  0.00    +0.309 C 
ATOM     22  H   UNL     1      34.417  -4.605 -28.187  0.00  0.00    +0.151 HD
ENDBRANCH   7  12
BRANCH   1  23
ATOM     23  C   UNL     1      34.087 -13.567 -23.460  0.00  0.00    +0.050 C 
ATOM     24  C   UNL     1      33.767 -14.369 -24.583  0.00  0.00    -0.005 C 
ATOM     25  C   UNL     1      34.594 -14.229 -22.317  0.00  0.00    +0.018 C 
ATOM     26  C   UNL     1      33.945 -15.752 -24.562  0.00  0.00    +0.034 C 
ATOM     27  C   UNL     1      33.227 -13.728 -25.820  0.00  0.00    +0.032 C 
ATOM     28  C   UNL     1      34.773 -15.612 -22.296  0.00  0.00    +0.038 C 
ATOM     29  C   UNL     1      34.448 -16.373 -23.419  0.00  0.00    +0.139 C 
BRANCH  29  30
ATOM     30  O   UNL     1      34.622 -17.723 -23.399  0.00  0.00    -0.471 OA
ATOM     31  C   UNL     1      35.538 -18.245 -22.439  0.00  0.00    +0.252 C 
ENDBRANCH  29  30
ENDBRANCH   1  23
TORSDOF 3
ENDMDL
MODEL 8
REMARK VINA RESULT:      -8.7      5.233      9.302
REMARK  Name = 11223423
REMARK  3 active torsions:
REMARK  status: ('A' for Active; 'I' for Inactive)
REMARK    1  A    between atoms: N_1  and  C_23
REMARK    2  A    between atoms: C_7  and  N_12
REMARK    3  A    between atoms: C_29  and  O_30
REMARK                            x       y       z     vdW  Elec       q    Type
REMARK                         _______ _______ _______ _____ _____    ______ ____
ROOT
ATOM      1  N   UNL     1      33.873  -7.301 -23.135  0.00  0.00    -0.263 N 
ATOM      2  N   UNL     1      32.791  -5.124 -23.681  0.00  0.00    -0.395 NA
ATOM      3  C   UNL     1      35.362  -7.328 -25.063  0.00  0.00    +0.053 C 
ATOM      4  C   UNL     1      34.531  -6.096 -25.015  0.00  0.00    +0.035 C 
ATOM      5  C   UNL     1      35.091  -7.933 -23.677  0.00  0.00    +0.103 C 
ATOM      6  C   UNL     1      33.667  -6.120 -23.922  0.00  0.00    +0.183 C 
ATOM      7  C   UNL     1      34.510  -5.042 -25.910  0.00  0.00    +0.058 C 
ATOM      8  C   UNL     1      33.614  -4.007 -25.675  0.00  0.00    +0.097 C 
ATOM      9  C   UNL     1      32.787  -4.093 -24.563  0.00  0.00    +0.094 C 
ATOM     10  C   UNL     1      31.815  -2.993 -24.292  0.00  0.00    +0.062 C 
ENDROOT
BRANCH   7  12
ATOM     11  O   UNL     1      39.455  -4.104 -26.314  0.00  0.00    -0.252 OA
ATOM     12  N   UNL     1      35.344  -5.008 -27.010  0.00  0.00    -0.191 N 
ATOM     13  N   UNL     1      38.476  -4.567 -28.455  0.00  0.00    -0.225 N 
ATOM     14  N   UNL     1      36.660  -4.736 -26.873  0.00  0.00    -0.159 NA
ATOM     15  N   UNL     1      40.702  -4.132 -28.268  0.00  0.00    -0.287 N 
ATOM     16  C   UNL     1      37.123  -4.792 -28.125  0.00  0.00    +0.158 C 
ATOM     17  C   UNL     1      39.009  -4.540 -29.811  0.00  0.00    +0.122 C 
ATOM     18  C   UNL     1      34.976  -5.231 -28.311  0.00  0.00    +0.092 C 
ATOM     19  C   UNL     1      40.513  -4.446 -29.653  0.00  0.00    +0.113 C 
ATOM     20  C   UNL     1      36.118  -5.096 -29.062  0.00  0.00    +0.054 C 
ATOM     21  C   UNL     1      39.513  -4.257 -27.527  0.00  0.00    +0.309 C 
ATOM     22  H   UNL     1      41.565  -3.862 -27.880  0.00  0.00    +0.151 HD
ENDBRANCH   7  12
BRANCH   1  23
ATOM     23  C   UNL     1      33.233  -7.768 -21.983  0.00  0.00    +0.050 C 
ATOM     24  C   UNL     1      32.378  -8.897 -22.002  0.00  0.00    -0.005 C 
ATOM     25  C   UNL     1      33.420  -7.119 -20.740  0.00  0.00    +0.018 C 
ATOM     26  C   UNL     1      31.747  -9.349 -20.843  0.00  0.00    +0.034 C 
ATOM     27  C   UNL     1      32.141  -9.625 -23.285  0.00  0.00    +0.032 C 
ATOM     28  C   UNL     1      32.789  -7.572 -19.581  0.00  0.00    +0.038 C 
ATOM     29  C   UNL     1      31.953  -8.687 -19.633  0.00  0.00    +0.139 C 
BRANCH  29  30
ATOM     30  O   UNL     1      31.338  -9.128 -18.502  0.00  0.00    -0.471 OA
ATOM     31  C   UNL     1      31.648 -10.450 -18.067  0.00  0.00    +0.252 C 
ENDBRANCH  29  30
ENDBRANCH   1  23
TORSDOF 3
ENDMDL
MODEL 9
REMARK VINA RESULT:      -8.6      1.883      2.324
REMARK  Name = 11223423
REMARK  3 active torsions:
REMARK  status: ('A' for Active; 'I' for Inactive)
REMARK    1  A    between atoms: N_1  and  C_23
REMARK    2  A    between atoms: C_7  and  N_12
REMARK    3  A    between atoms: C_29  and  O_30
REMARK                            x       y       z     vdW  Elec       q    Type
REMARK                         _______ _______ _______ _____ _____    ______ ____
ROOT
ATOM      1  N   UNL     1      33.031  -9.434 -23.307  0.00  0.00    -0.263 N 
ATOM      2  N   UNL     1      31.846  -9.878 -21.161  0.00  0.00    -0.395 NA
ATOM      3  C   UNL     1      34.081 -11.626 -23.469  0.00  0.00    +0.053 C 
ATOM      4  C   UNL     1      33.212 -11.509 -22.269  0.00  0.00    +0.035 C 
ATOM      5  C   UNL     1      33.704 -10.354 -24.244  0.00  0.00    +0.103 C 
ATOM      6  C   UNL     1      32.650 -10.237 -22.182  0.00  0.00    +0.183 C 
ATOM      7  C   UNL     1      32.973 -12.456 -21.289  0.00  0.00    +0.058 C 
ATOM      8  C   UNL     1      32.145 -12.103 -20.231  0.00  0.00    +0.097 C 
ATOM      9  C   UNL     1      31.613 -10.819 -20.213  0.00  0.00    +0.094 C 
ATOM     10  C   UNL     1      30.723 -10.417 -19.084  0.00  0.00    +0.062 C 
ENDROOT
BRANCH   7  12
ATOM     11  O   UNL     1      33.294 -15.795 -25.063  0.00  0.00    -0.252 OA
ATOM     12  N   UNL     1      33.535 -13.716 -21.346  0.00  0.00    -0.191 N 
ATOM     13  N   UNL     1      34.333 -16.629 -23.068  0.00  0.00    -0.225 N 
ATOM     14  N   UNL     1      33.507 -14.436 -22.488  0.00  0.00    -0.159 NA
ATOM     15  N   UNL     1      34.325 -17.869 -24.976  0.00  0.00    -0.287 N 
ATOM     16  C   UNL     1      34.132 -15.570 -22.158  0.00  0.00    +0.158 C 
ATOM     17  C   UNL     1      34.939 -17.911 -22.732  0.00  0.00    +0.122 C 
ATOM     18  C   UNL     1      34.161 -14.369 -20.316  0.00  0.00    +0.092 C 
ATOM     19  C   UNL     1      35.101 -18.641 -24.050  0.00  0.00    +0.113 C 
ATOM     20  C   UNL     1      34.561 -15.583 -20.817  0.00  0.00    +0.054 C 
ATOM     21  C   UNL     1      33.910 -16.642 -24.429  0.00  0.00    +0.309 C 
ATOM     22  H   UNL     1      34.109 -18.165 -25.890  0.00  0.00    +0.151 HD
ENDBRANCH   7  12
BRANCH   1  23
ATOM     23  C   UNL     1      32.743  -8.105 -23.636  0.00  0.00    +0.050 C 
ATOM     24  C   UNL     1      33.692  -7.067 -23.475  0.00  0.00    -0.005 C 
ATOM     25  C   UNL     1      31.474  -7.748 -24.148  0.00  0.00    +0.018 C 
ATOM     26  C   UNL     1      33.387  -5.747 -23.807  0.00  0.00    +0.034 C 
ATOM     27  C   UNL     1      35.051  -7.381 -22.938  0.00  0.00    +0.032 C 
ATOM     28  C   UNL     1      31.169  -6.428 -24.481  0.00  0.00    +0.038 C 
ATOM     29  C   UNL     1      32.127  -5.428 -24.310  0.00  0.00    +0.139 C 
BRANCH  29  30
ATOM     30  O   UNL     1      31.829  -4.140 -24.635  0.00  0.00    -0.471 OA
ATOM     31  C   UNL     1      31.931  -3.168 -23.596  0.00  0.00    +0.252 C 
ENDBRANCH  29  30
ENDBRANCH   1  23
TORSDOF 3
ENDMDL
