MODEL 1
REMARK VINA RESULT:     -12.1      0.000      0.000
REMARK  Name = 44472635
REMARK  7 active torsions:
REMARK  status: ('A' for Active; 'I' for Inactive)
REMARK    1  A    between atoms: C_1  and  C_21
REMARK    2  A    between atoms: C_4  and  N_8
REMARK    3  A    between atoms: C_9  and  C_14
REMARK    4  A    between atoms: C_21  and  C_24
REMARK    5  A    between atoms: C_23  and  C_29
REMARK    6  A    between atoms: C_29  and  C_30
REMARK    7  A    between atoms: C_29  and  O_36
REMARK                            x       y       z     vdW  Elec       q    Type
REMARK                         _______ _______ _______ _____ _____    ______ ____
ROOT
ATOM      1  C   UNL     1      35.472 -20.040 -20.756  0.00  0.00    -0.024 C 
ATOM      2  C   UNL     1      36.350 -20.801 -19.983  0.00  0.00    -0.003 C 
ATOM      3  C   UNL     1      34.095 -20.221 -20.628  0.00  0.00    -0.003 C 
ATOM      4  C   UNL     1      34.472 -21.920 -18.953  0.00  0.00    +0.050 C 
ATOM      5  C   UNL     1      35.850 -21.741 -19.082  0.00  0.00    +0.014 C 
ATOM      6  C   UNL     1      33.595 -21.159 -19.726  0.00  0.00    +0.014 C 
ENDROOT
BRANCH   4   8
ATOM      7  O   UNL     1      35.367 -22.624 -16.166  0.00  0.00    -0.273 OA
ATOM      8  N   UNL     1      33.965 -22.873 -18.038  0.00  0.00    -0.283 N 
ATOM      9  C   UNL     1      34.431 -23.149 -16.760  0.00  0.00    +0.245 C 
ATOM     10  H   UNL     1      33.192 -23.401 -18.345  0.00  0.00    +0.155 HD
BRANCH   9  14
ATOM     11  O   UNL     1      35.974 -25.893 -15.420  0.00  0.00    -0.269 OA
ATOM     12  N   UNL     1      34.216 -24.492 -14.818  0.00  0.00    -0.237 N 
ATOM     13  N   UNL     1      33.811 -23.922 -12.538  0.00  0.00    -0.233 NA
ATOM     14  C   UNL     1      33.620 -24.230 -16.111  0.00  0.00    +0.158 C 
ATOM     15  C   UNL     1      32.216 -23.752 -15.767  0.00  0.00    +0.037 C 
ATOM     16  C   UNL     1      32.353 -23.117 -14.381  0.00  0.00    +0.064 C 
ATOM     17  C   UNL     1      33.510 -23.868 -13.794  0.00  0.00    +0.115 C 
ATOM     18  C   UNL     1      35.320 -25.287 -14.580  0.00  0.00    +0.256 C 
ATOM     19  C   UNL     1      35.675 -25.350 -13.138  0.00  0.00    +0.079 C 
ATOM     20  C   UNL     1      34.920 -24.683 -12.252  0.00  0.00    +0.105 C 
ENDBRANCH   9  14
ENDBRANCH   4   8
BRANCH   1  21
ATOM     21  C   UNL     1      36.006 -19.037 -21.722  0.00  0.00    +0.005 C 
BRANCH  21  24
ATOM     22  N   UNL     1      35.038 -16.806 -21.239  0.00  0.00    +0.388 N 
ATOM     23  C   UNL     1      34.277 -15.778 -21.965  0.00  0.00    -0.030 C 
ATOM     24  C   UNL     1      34.969 -17.994 -22.103  0.00  0.00    -0.057 C 
ATOM     25  C   UNL     1      34.554 -16.037 -23.446  0.00  0.00    -0.021 C 
ATOM     26  C   UNL     1      35.182 -17.425 -23.499  0.00  0.00    -0.023 C 
ATOM     27  H   UNL     1      34.614 -16.996 -20.332  0.00  0.00    -0.084 HD
ATOM     28  H   UNL     1      35.998 -16.518 -21.053  0.00  0.00    -0.084 HD
BRANCH  23  29
ATOM     29  C   UNL     1      34.665 -14.373 -21.525  0.00  0.00    +0.113 C 
BRANCH  29  30
ATOM     30  C   UNL     1      33.554 -13.374 -21.758  0.00  0.00    +0.002 C 
ATOM     31  C   UNL     1      33.552 -12.589 -22.911  0.00  0.00    -0.002 C 
ATOM     32  C   UNL     1      32.532 -13.237 -20.819  0.00  0.00    -0.002 C 
ATOM     33  C   UNL     1      32.527 -11.668 -23.125  0.00  0.00    -0.000 C 
ATOM     34  C   UNL     1      31.507 -12.315 -21.032  0.00  0.00    -0.000 C 
ATOM     35  C   UNL     1      31.505 -11.531 -22.186  0.00  0.00    -0.000 C 
ENDBRANCH  29  30
BRANCH  29  36
ATOM     36  O   UNL     1      35.003 -14.378 -20.138  0.00  0.00    -0.382 OA
ATOM     37  H   UNL     1      34.694 -15.204 -19.734  0.00  0.00    +0.211 HD
ENDBRANCH  29  36
ENDBRANCH  23  29
ENDBRANCH  21  24
ENDBRANCH   1  21
TORSDOF 7
ENDMDL
MODEL 2
REMARK VINA RESULT:     -12.1      3.536     11.752
REMARK  Name = 44472635
REMARK  7 active torsions:
REMARK  status: ('A' for Active; 'I' for Inactive)
REMARK    1  A    between atoms: C_1  and  C_21
REMARK    2  A    between atoms: C_4  and  N_8
REMARK    3  A    between atoms: C_9  and  C_14
REMARK    4  A    between atoms: C_21  and  C_24
REMARK    5  A    between atoms: C_23  and  C_29
REMARK    6  A    between atoms: C_29  and  C_30
REMARK    7  A    between atoms: C_29  and  O_36
REMARK                            x       y       z     vdW  Elec       q    Type
REMARK                         _______ _______ _______ _____ _____    ______ ____
ROOT
ATOM      1  C   UNL     1      34.599 -16.133 -23.167  0.00  0.00    -0.024 C 
ATOM      2  C   UNL     1      34.594 -15.409 -21.975  0.00  0.00    -0.003 C 
ATOM      3  C   UNL     1      33.942 -15.630 -24.291  0.00  0.00    -0.003 C 
ATOM      4  C   UNL     1      33.278 -13.679 -23.030  0.00  0.00    +0.050 C 
ATOM      5  C   UNL     1      33.933 -14.182 -21.906  0.00  0.00    +0.014 C 
ATOM      6  C   UNL     1      33.282 -14.403 -24.223  0.00  0.00    +0.014 C 
ENDROOT
BRANCH   4   8
ATOM      7  O   UNL     1      34.291 -10.884 -23.506  0.00  0.00    -0.273 OA
ATOM      8  N   UNL     1      32.608 -12.435 -22.961  0.00  0.00    -0.283 N 
ATOM      9  C   UNL     1      33.140 -11.174 -23.193  0.00  0.00    +0.245 C 
ATOM     10  H   UNL     1      31.653 -12.468 -22.721  0.00  0.00    +0.155 HD
BRANCH   9  14
ATOM     11  O   UNL     1      30.535 -11.642 -21.023  0.00  0.00    -0.269 OA
ATOM     12  N   UNL     1      31.952  -9.886 -21.596  0.00  0.00    -0.237 N 
ATOM     13  N   UNL     1      32.695  -8.312 -19.966  0.00  0.00    -0.233 NA
ATOM     14  C   UNL     1      32.102 -10.108 -23.018  0.00  0.00    +0.158 C 
ATOM     15  C   UNL     1      32.583  -8.762 -23.541  0.00  0.00    +0.037 C 
ATOM     16  C   UNL     1      33.328  -8.133 -22.361  0.00  0.00    +0.064 C 
ATOM     17  C   UNL     1      32.644  -8.752 -21.180  0.00  0.00    +0.115 C 
ATOM     18  C   UNL     1      31.196 -10.652 -20.731  0.00  0.00    +0.256 C 
ATOM     19  C   UNL     1      31.253 -10.153 -19.332  0.00  0.00    +0.079 C 
ATOM     20  C   UNL     1      31.976  -9.056 -19.061  0.00  0.00    +0.105 C 
ENDBRANCH   9  14
ENDBRANCH   4   8
BRANCH   1  21
ATOM     21  C   UNL     1      35.303 -17.445 -23.241  0.00  0.00    +0.005 C 
BRANCH  21  24
ATOM     22  N   UNL     1      34.657 -19.081 -21.493  0.00  0.00    +0.388 N 
ATOM     23  C   UNL     1      35.302 -19.769 -20.365  0.00  0.00    -0.030 C 
ATOM     24  C   UNL     1      35.602 -18.018 -21.865  0.00  0.00    -0.057 C 
ATOM     25  C   UNL     1      36.799 -19.732 -20.670  0.00  0.00    -0.021 C 
ATOM     26  C   UNL     1      36.955 -18.710 -21.790  0.00  0.00    -0.023 C 
ATOM     27  H   UNL     1      33.762 -18.683 -21.208  0.00  0.00    -0.084 HD
ATOM     28  H   UNL     1      34.457 -19.712 -22.269  0.00  0.00    -0.084 HD
BRANCH  23  29
ATOM     29  C   UNL     1      34.767 -21.183 -20.186  0.00  0.00    +0.113 C 
BRANCH  29  30
ATOM     30  C   UNL     1      35.150 -21.773 -18.847  0.00  0.00    +0.002 C 
ATOM     31  C   UNL     1      36.434 -21.576 -18.339  0.00  0.00    -0.002 C 
ATOM     32  C   UNL     1      34.219 -22.517 -18.121  0.00  0.00    -0.002 C 
ATOM     33  C   UNL     1      36.786 -22.121 -17.105  0.00  0.00    -0.000 C 
ATOM     34  C   UNL     1      34.572 -23.063 -16.887  0.00  0.00    -0.000 C 
ATOM     35  C   UNL     1      35.855 -22.864 -16.379  0.00  0.00    -0.000 C 
ENDBRANCH  29  30
BRANCH  29  36
ATOM     36  O   UNL     1      33.344 -21.178 -20.302  0.00  0.00    -0.382 OA
ATOM     37  H   UNL     1      33.072 -20.473 -20.911  0.00  0.00    +0.211 HD
ENDBRANCH  29  36
ENDBRANCH  23  29
ENDBRANCH  21  24
ENDBRANCH   1  21
TORSDOF 7
ENDMDL
MODEL 3
REMARK VINA RESULT:     -12.0      1.464      2.104
REMARK  Name = 44472635
REMARK  7 active torsions:
REMARK  status: ('A' for Active; 'I' for Inactive)
REMARK    1  A    between atoms: C_1  and  C_21
REMARK    2  A    between atoms: C_4  and  N_8
REMARK    3  A    between atoms: C_9  and  C_14
REMARK    4  A    between atoms: C_21  and  C_24
REMARK    5  A    between atoms: C_23  and  C_29
REMARK    6  A    between atoms: C_29  and  C_30
REMARK    7  A    between atoms: C_29  and  O_36
REMARK                            x       y       z     vdW  Elec       q    Type
REMARK                         _______ _______ _______ _____ _____    ______ ____
ROOT
ATOM      1  C   UNL     1      35.340 -20.471 -20.357  0.00  0.00    -0.024 C 
ATOM      2  C   UNL     1      33.984 -20.735 -20.164  0.00  0.00    -0.003 C 
ATOM      3  C   UNL     1      36.295 -21.130 -19.582  0.00  0.00    -0.003 C 
ATOM      4  C   UNL     1      34.539 -22.317 -18.424  0.00  0.00    +0.050 C 
ATOM      5  C   UNL     1      33.583 -21.657 -19.197  0.00  0.00    +0.014 C 
ATOM      6  C   UNL     1      35.895 -22.053 -18.617  0.00  0.00    +0.014 C 
ENDROOT
BRANCH   4   8
ATOM      7  O   UNL     1      35.290 -22.555 -15.518  0.00  0.00    -0.273 OA
ATOM      8  N   UNL     1      34.132 -23.253 -17.444  0.00  0.00    -0.283 N 
ATOM      9  C   UNL     1      34.522 -23.306 -16.113  0.00  0.00    +0.245 C 
ATOM     10  H   UNL     1      33.500 -23.947 -17.741  0.00  0.00    +0.155 HD
BRANCH   9  14
ATOM     11  O   UNL     1      36.363 -26.033 -15.170  0.00  0.00    -0.269 OA
ATOM     12  N   UNL     1      34.667 -24.743 -14.233  0.00  0.00    -0.237 N 
ATOM     13  N   UNL     1      34.603 -24.295 -11.892  0.00  0.00    -0.233 NA
ATOM     14  C   UNL     1      33.866 -24.452 -15.402  0.00  0.00    +0.158 C 
ATOM     15  C   UNL     1      32.516 -24.056 -14.822  0.00  0.00    +0.037 C 
ATOM     16  C   UNL     1      32.844 -23.478 -13.443  0.00  0.00    +0.064 C 
ATOM     17  C   UNL     1      34.106 -24.199 -13.081  0.00  0.00    +0.115 C 
ATOM     18  C   UNL     1      35.825 -25.495 -14.209  0.00  0.00    +0.256 C 
ATOM     19  C   UNL     1      36.404 -25.606 -12.845  0.00  0.00    +0.079 C 
ATOM     20  C   UNL     1      35.772 -25.015 -11.820  0.00  0.00    +0.105 C 
ENDBRANCH   9  14
ENDBRANCH   4   8
BRANCH   1  21
ATOM     21  C   UNL     1      35.769 -19.483 -21.388  0.00  0.00    +0.005 C 
BRANCH  21  24
ATOM     22  N   UNL     1      34.727 -17.670 -22.718  0.00  0.00    +0.388 N 
ATOM     23  C   UNL     1      33.820 -17.558 -23.872  0.00  0.00    -0.030 C 
ATOM     24  C   UNL     1      34.630 -19.078 -22.309  0.00  0.00    -0.057 C 
ATOM     25  C   UNL     1      33.935 -18.894 -24.607  0.00  0.00    -0.021 C 
ATOM     26  C   UNL     1      34.639 -19.830 -23.632  0.00  0.00    -0.023 C 
ATOM     27  H   UNL     1      34.426 -17.054 -21.964  0.00  0.00    -0.084 HD
ATOM     28  H   UNL     1      35.682 -17.397 -22.949  0.00  0.00    -0.084 HD
BRANCH  23  29
ATOM     29  C   UNL     1      34.168 -16.365 -24.750  0.00  0.00    +0.113 C 
BRANCH  29  30
ATOM     30  C   UNL     1      33.906 -15.048 -24.054  0.00  0.00    +0.002 C 
ATOM     31  C   UNL     1      33.399 -13.967 -24.775  0.00  0.00    -0.002 C 
ATOM     32  C   UNL     1      34.173 -14.915 -22.692  0.00  0.00    -0.002 C 
ATOM     33  C   UNL     1      33.158 -12.753 -24.133  0.00  0.00    -0.000 C 
ATOM     34  C   UNL     1      33.933 -13.700 -22.049  0.00  0.00    -0.000 C 
ATOM     35  C   UNL     1      33.425 -12.619 -22.770  0.00  0.00    -0.000 C 
ENDBRANCH  29  30
BRANCH  29  36
ATOM     36  O   UNL     1      35.544 -16.428 -25.125  0.00  0.00    -0.382 OA
ATOM     37  H   UNL     1      35.621 -16.827 -26.006  0.00  0.00    +0.211 HD
ENDBRANCH  29  36
ENDBRANCH  23  29
ENDBRANCH  21  24
ENDBRANCH   1  21
TORSDOF 7
ENDMDL
MODEL 4
REMARK VINA RESULT:     -11.5      1.394      2.046
REMARK  Name = 44472635
REMARK  7 active torsions:
REMARK  status: ('A' for Active; 'I' for Inactive)
REMARK    1  A    between atoms: C_1  and  C_21
REMARK    2  A    between atoms: C_4  and  N_8
REMARK    3  A    between atoms: C_9  and  C_14
REMARK    4  A    between atoms: C_21  and  C_24
REMARK    5  A    between atoms: C_23  and  C_29
REMARK    6  A    between atoms: C_29  and  C_30
REMARK    7  A    between atoms: C_29  and  O_36
REMARK                            x       y       z     vdW  Elec       q    Type
REMARK                         _______ _______ _______ _____ _____    ______ ____
ROOT
ATOM      1  C   UNL     1      35.351 -20.805 -19.960  0.00  0.00    -0.024 C 
ATOM      2  C   UNL     1      33.982 -21.076 -19.971  0.00  0.00    -0.003 C 
ATOM      3  C   UNL     1      36.175 -21.424 -19.019  0.00  0.00    -0.003 C 
ATOM      4  C   UNL     1      34.264 -22.583 -18.103  0.00  0.00    +0.050 C 
ATOM      5  C   UNL     1      33.439 -21.964 -19.043  0.00  0.00    +0.014 C 
ATOM      6  C   UNL     1      35.633 -22.312 -18.092  0.00  0.00    +0.014 C 
ENDROOT
BRANCH   4   8
ATOM      7  O   UNL     1      31.551 -22.632 -16.799  0.00  0.00    -0.273 OA
ATOM      8  N   UNL     1      33.714 -23.484 -17.162  0.00  0.00    -0.283 N 
ATOM      9  C   UNL     1      32.447 -23.446 -16.597  0.00  0.00    +0.245 C 
ATOM     10  H   UNL     1      34.297 -24.224 -16.875  0.00  0.00    +0.155 HD
BRANCH   9  14
ATOM     11  O   UNL     1      35.106 -25.364 -15.616  0.00  0.00    -0.269 OA
ATOM     12  N   UNL     1      33.232 -24.438 -14.592  0.00  0.00    -0.237 N 
ATOM     13  N   UNL     1      33.321 -23.621 -12.353  0.00  0.00    -0.233 NA
ATOM     14  C   UNL     1      32.246 -24.584 -15.641  0.00  0.00    +0.158 C 
ATOM     15  C   UNL     1      30.920 -24.473 -14.904  0.00  0.00    +0.037 C 
ATOM     16  C   UNL     1      31.226 -23.596 -13.687  0.00  0.00    +0.064 C 
ATOM     17  C   UNL     1      32.679 -23.874 -13.446  0.00  0.00    +0.115 C 
ATOM     18  C   UNL     1      34.554 -24.833 -14.659  0.00  0.00    +0.256 C 
ATOM     19  C   UNL     1      35.299 -24.543 -13.407  0.00  0.00    +0.079 C 
ATOM     20  C   UNL     1      34.649 -23.975 -12.379  0.00  0.00    +0.105 C 
ENDBRANCH   9  14
ENDBRANCH   4   8
BRANCH   1  21
ATOM     21  C   UNL     1      35.932 -19.854 -20.950  0.00  0.00    +0.005 C 
BRANCH  21  24
ATOM     22  N   UNL     1      34.984 -17.750 -21.857  0.00  0.00    +0.388 N 
ATOM     23  C   UNL     1      34.176 -17.339 -23.015  0.00  0.00    -0.030 C 
ATOM     24  C   UNL     1      34.869 -19.215 -21.830  0.00  0.00    -0.057 C 
ATOM     25  C   UNL     1      34.367 -18.443 -24.055  0.00  0.00    -0.021 C 
ATOM     26  C   UNL     1      34.998 -19.604 -23.296  0.00  0.00    -0.023 C 
ATOM     27  H   UNL     1      34.614 -17.344 -20.998  0.00  0.00    -0.084 HD
ATOM     28  H   UNL     1      35.952 -17.438 -21.929  0.00  0.00    -0.084 HD
BRANCH  23  29
ATOM     29  C   UNL     1      34.583 -15.964 -23.527  0.00  0.00    +0.113 C 
BRANCH  29  30
ATOM     30  C   UNL     1      33.831 -14.851 -22.834  0.00  0.00    +0.002 C 
ATOM     31  C   UNL     1      33.867 -14.744 -21.443  0.00  0.00    -0.002 C 
ATOM     32  C   UNL     1      33.099 -13.931 -23.585  0.00  0.00    -0.002 C 
ATOM     33  C   UNL     1      33.173 -13.718 -20.804  0.00  0.00    -0.000 C 
ATOM     34  C   UNL     1      32.404 -12.904 -22.946  0.00  0.00    -0.000 C 
ATOM     35  C   UNL     1      32.442 -12.797 -21.555  0.00  0.00    -0.000 C 
ENDBRANCH  29  30
BRANCH  29  36
ATOM     36  O   UNL     1      35.984 -15.772 -23.332  0.00  0.00    -0.382 OA
ATOM     37  H   UNL     1      36.162 -15.630 -22.389  0.00  0.00    +0.211 HD
ENDBRANCH  29  36
ENDBRANCH  23  29
ENDBRANCH  21  24
ENDBRANCH   1  21
TORSDOF 7
ENDMDL
MODEL 5
REMARK VINA RESULT:     -11.2      4.491      8.340
REMARK  Name = 44472635
REMARK  7 active torsions:
REMARK  status: ('A' for Active; 'I' for Inactive)
REMARK    1  A    between atoms: C_1  and  C_21
REMARK    2  A    between atoms: C_4  and  N_8
REMARK    3  A    between atoms: C_9  and  C_14
REMARK    4  A    between atoms: C_21  and  C_24
REMARK    5  A    between atoms: C_23  and  C_29
REMARK    6  A    between atoms: C_29  and  C_30
REMARK    7  A    between atoms: C_29  and  O_36
REMARK                            x       y       z     vdW  Elec       q    Type
REMARK                         _______ _______ _______ _____ _____    ______ ____
ROOT
ATOM      1  C   UNL     1      32.149 -12.507 -21.246  0.00  0.00    -0.024 C 
ATOM      2  C   UNL     1      32.434 -13.492 -20.299  0.00  0.00    -0.003 C 
ATOM      3  C   UNL     1      32.606 -12.648 -22.557  0.00  0.00    -0.003 C 
ATOM      4  C   UNL     1      33.632 -14.756 -21.975  0.00  0.00    +0.050 C 
ATOM      5  C   UNL     1      33.176 -14.616 -20.663  0.00  0.00    +0.014 C 
ATOM      6  C   UNL     1      33.346 -13.772 -22.921  0.00  0.00    +0.014 C 
ENDROOT
BRANCH   4   8
ATOM      7  O   UNL     1      35.165 -16.719 -20.284  0.00  0.00    -0.273 OA
ATOM      8  N   UNL     1      34.383 -15.896 -22.344  0.00  0.00    -0.283 N 
ATOM      9  C   UNL     1      35.071 -16.763 -21.507  0.00  0.00    +0.245 C 
ATOM     10  H   UNL     1      34.422 -16.098 -23.308  0.00  0.00    +0.155 HD
BRANCH   9  14
ATOM     11  O   UNL     1      37.621 -18.569 -20.109  0.00  0.00    -0.269 OA
ATOM     12  N   UNL     1      35.771 -19.027 -21.446  0.00  0.00    -0.237 N 
ATOM     13  N   UNL     1      34.541 -21.056 -21.204  0.00  0.00    -0.233 NA
ATOM     14  C   UNL     1      35.744 -17.851 -22.289  0.00  0.00    +0.158 C 
ATOM     15  C   UNL     1      34.907 -18.286 -23.483  0.00  0.00    +0.037 C 
ATOM     16  C   UNL     1      33.968 -19.360 -22.926  0.00  0.00    +0.064 C 
ATOM     17  C   UNL     1      34.762 -19.923 -21.786  0.00  0.00    +0.115 C 
ATOM     18  C   UNL     1      36.688 -19.288 -20.447  0.00  0.00    +0.256 C 
ATOM     19  C   UNL     1      36.438 -20.588 -19.771  0.00  0.00    +0.079 C 
ATOM     20  C   UNL     1      35.415 -21.351 -20.184  0.00  0.00    +0.105 C 
ENDBRANCH   9  14
ENDBRANCH   4   8
BRANCH   1  21
ATOM     21  C   UNL     1      31.359 -11.304 -20.857  0.00  0.00    +0.005 C 
BRANCH  21  24
ATOM     22  N   UNL     1      32.203  -9.109 -21.639  0.00  0.00    +0.388 N 
ATOM     23  C   UNL     1      32.767  -7.890 -21.038  0.00  0.00    -0.030 C 
ATOM     24  C   UNL     1      32.242 -10.104 -20.559  0.00  0.00    -0.057 C 
ATOM     25  C   UNL     1      32.300  -7.903 -19.582  0.00  0.00    -0.021 C 
ATOM     26  C   UNL     1      31.785  -9.317 -19.339  0.00  0.00    -0.023 C 
ATOM     27  H   UNL     1      32.768  -9.414 -22.431  0.00  0.00    -0.084 HD
ATOM     28  H   UNL     1      31.260  -8.963 -21.999  0.00  0.00    -0.084 HD
BRANCH  23  29
ATOM     29  C   UNL     1      32.334  -6.638 -21.789  0.00  0.00    +0.113 C 
BRANCH  29  30
ATOM     30  C   UNL     1      33.264  -6.310 -22.935  0.00  0.00    +0.002 C 
ATOM     31  C   UNL     1      32.889  -5.364 -23.890  0.00  0.00    -0.002 C 
ATOM     32  C   UNL     1      34.497  -6.954 -23.039  0.00  0.00    -0.002 C 
ATOM     33  C   UNL     1      33.747  -5.062 -24.947  0.00  0.00    -0.000 C 
ATOM     34  C   UNL     1      35.355  -6.653 -24.097  0.00  0.00    -0.000 C 
ATOM     35  C   UNL     1      34.980  -5.706 -25.051  0.00  0.00    -0.000 C 
ENDBRANCH  29  30
BRANCH  29  36
ATOM     36  O   UNL     1      31.012  -6.814 -22.298  0.00  0.00    -0.382 OA
ATOM     37  H   UNL     1      30.598  -7.577 -21.864  0.00  0.00    +0.211 HD
ENDBRANCH  29  36
ENDBRANCH  23  29
ENDBRANCH  21  24
ENDBRANCH   1  21
TORSDOF 7
ENDMDL
MODEL 6
REMARK VINA RESULT:     -11.2      2.262      3.923
REMARK  Name = 44472635
REMARK  7 active torsions:
REMARK  status: ('A' for Active; 'I' for Inactive)
REMARK    1  A    between atoms: C_1  and  C_21
REMARK    2  A    between atoms: C_4  and  N_8
REMARK    3  A    between atoms: C_9  and  C_14
REMARK    4  A    between atoms: C_21  and  C_24
REMARK    5  A    between atoms: C_23  and  C_29
REMARK    6  A    between atoms: C_29  and  C_30
REMARK    7  A    between atoms: C_29  and  O_36
REMARK                            x       y       z     vdW  Elec       q    Type
REMARK                         _______ _______ _______ _____ _____    ______ ____
ROOT
ATOM      1  C   UNL     1      34.861 -21.780 -18.654  0.00  0.00    -0.024 C 
ATOM      2  C   UNL     1      34.230 -22.601 -17.719  0.00  0.00    -0.003 C 
ATOM      3  C   UNL     1      36.230 -21.530 -18.550  0.00  0.00    -0.003 C 
ATOM      4  C   UNL     1      36.337 -22.923 -16.579  0.00  0.00    +0.050 C 
ATOM      5  C   UNL     1      34.968 -23.172 -16.681  0.00  0.00    +0.014 C 
ATOM      6  C   UNL     1      36.968 -22.102 -17.514  0.00  0.00    +0.014 C 
ENDROOT
BRANCH   4   8
ATOM      7  O   UNL     1      36.073 -25.606 -15.239  0.00  0.00    -0.273 OA
ATOM      8  N   UNL     1      37.086 -23.502 -15.528  0.00  0.00    -0.283 N 
ATOM      9  C   UNL     1      36.907 -24.753 -14.953  0.00  0.00    +0.245 C 
ATOM     10  H   UNL     1      37.818 -22.954 -15.162  0.00  0.00    +0.155 HD
BRANCH   9  14
ATOM     11  O   UNL     1      37.513 -22.343 -12.599  0.00  0.00    -0.269 OA
ATOM     12  N   UNL     1      37.267 -24.657 -12.611  0.00  0.00    -0.237 N 
ATOM     13  N   UNL     1      36.213 -25.800 -10.803  0.00  0.00    -0.233 NA
ATOM     14  C   UNL     1      37.908 -24.995 -13.864  0.00  0.00    +0.158 C 
ATOM     15  C   UNL     1      38.230 -26.475 -13.714  0.00  0.00    +0.037 C 
ATOM     16  C   UNL     1      37.161 -27.007 -12.755  0.00  0.00    +0.064 C 
ATOM     17  C   UNL     1      36.825 -25.795 -11.941  0.00  0.00    +0.115 C 
ATOM     18  C   UNL     1      37.125 -23.387 -12.089  0.00  0.00    +0.256 C 
ATOM     19  C   UNL     1      36.419 -23.385 -10.781  0.00  0.00    +0.079 C 
ATOM     20  C   UNL     1      36.026 -24.554 -10.252  0.00  0.00    +0.105 C 
ENDBRANCH   9  14
ENDBRANCH   4   8
BRANCH   1  21
ATOM     21  C   UNL     1      34.073 -21.168 -19.761  0.00  0.00    +0.005 C 
BRANCH  21  24
ATOM     22  N   UNL     1      34.492 -19.069 -21.011  0.00  0.00    +0.388 N 
ATOM     23  C   UNL     1      35.633 -18.409 -21.665  0.00  0.00    -0.030 C 
ATOM     24  C   UNL     1      34.953 -20.442 -20.765  0.00  0.00    -0.057 C 
ATOM     25  C   UNL     1      36.878 -19.016 -21.018  0.00  0.00    -0.021 C 
ATOM     26  C   UNL     1      36.381 -20.250 -20.274  0.00  0.00    -0.023 C 
ATOM     27  H   UNL     1      33.677 -19.067 -21.623  0.00  0.00    -0.084 HD
ATOM     28  H   UNL     1      34.210 -18.594 -20.154  0.00  0.00    -0.084 HD
BRANCH  23  29
ATOM     29  C   UNL     1      35.568 -16.895 -21.521  0.00  0.00    +0.113 C 
BRANCH  29  30
ATOM     30  C   UNL     1      34.848 -16.242 -22.679  0.00  0.00    +0.002 C 
ATOM     31  C   UNL     1      34.666 -16.941 -23.872  0.00  0.00    -0.002 C 
ATOM     32  C   UNL     1      34.367 -14.938 -22.555  0.00  0.00    -0.002 C 
ATOM     33  C   UNL     1      34.003 -16.338 -24.940  0.00  0.00    -0.000 C 
ATOM     34  C   UNL     1      33.704 -14.334 -23.623  0.00  0.00    -0.000 C 
ATOM     35  C   UNL     1      33.522 -15.034 -24.816  0.00  0.00    -0.000 C 
ENDBRANCH  29  30
BRANCH  29  36
ATOM     36  O   UNL     1      34.900 -16.555 -20.306  0.00  0.00    -0.382 OA
ATOM     37  H   UNL     1      34.820 -15.590 -20.241  0.00  0.00    +0.211 HD
ENDBRANCH  29  36
ENDBRANCH  23  29
ENDBRANCH  21  24
ENDBRANCH   1  21
TORSDOF 7
ENDMDL
MODEL 7
REMARK VINA RESULT:     -10.9      4.801     12.634
REMARK  Name = 44472635
REMARK  7 active torsions:
REMARK  status: ('A' for Active; 'I' for Inactive)
REMARK    1  A    between atoms: C_1  and  C_21
REMARK    2  A    between atoms: C_4  and  N_8
REMARK    3  A    between atoms: C_9  and  C_14
REMARK    4  A    between atoms: C_21  and  C_24
REMARK    5  A    between atoms: C_23  and  C_29
REMARK    6  A    between atoms: C_29  and  C_30
REMARK    7  A    between atoms: C_29  and  O_36
REMARK                            x       y       z     vdW  Elec       q    Type
REMARK                         _______ _______ _______ _____ _____    ______ ____
ROOT
ATOM      1  C   UNL     1      33.514 -15.327 -24.261  0.00  0.00    -0.024 C 
ATOM      2  C   UNL     1      33.379 -14.267 -25.158  0.00  0.00    -0.003 C 
ATOM      3  C   UNL     1      33.745 -15.071 -22.909  0.00  0.00    -0.003 C 
ATOM      4  C   UNL     1      33.704 -12.696 -23.351  0.00  0.00    +0.050 C 
ATOM      5  C   UNL     1      33.475 -12.952 -24.704  0.00  0.00    +0.014 C 
ATOM      6  C   UNL     1      33.839 -13.756 -22.454  0.00  0.00    +0.014 C 
ENDROOT
BRANCH   4   8
ATOM      7  O   UNL     1      31.573 -10.609 -22.947  0.00  0.00    -0.273 OA
ATOM      8  N   UNL     1      33.801 -11.362 -22.890  0.00  0.00    -0.283 N 
ATOM      9  C   UNL     1      32.770 -10.447 -22.728  0.00  0.00    +0.245 C 
ATOM     10  H   UNL     1      34.704 -11.047 -22.656  0.00  0.00    +0.155 HD
BRANCH   9  14
ATOM     11  O   UNL     1      35.791  -9.244 -23.795  0.00  0.00    -0.269 OA
ATOM     12  N   UNL     1      33.683  -8.354 -23.365  0.00  0.00    -0.237 N 
ATOM     13  N   UNL     1      32.795  -6.579 -24.686  0.00  0.00    -0.233 NA
ATOM     14  C   UNL     1      33.285  -9.137 -22.214  0.00  0.00    +0.158 C 
ATOM     15  C   UNL     1      32.178  -8.305 -21.582  0.00  0.00    +0.037 C 
ATOM     16  C   UNL     1      31.564  -7.528 -22.749  0.00  0.00    +0.064 C 
ATOM     17  C   UNL     1      32.715  -7.412 -23.702  0.00  0.00    +0.115 C 
ATOM     18  C   UNL     1      34.878  -8.466 -24.048  0.00  0.00    +0.256 C 
ATOM     19  C   UNL     1      34.976  -7.512 -25.183  0.00  0.00    +0.079 C 
ATOM     20  C   UNL     1      33.959  -6.667 -25.413  0.00  0.00    +0.105 C 
ENDBRANCH   9  14
ENDBRANCH   4   8
BRANCH   1  21
ATOM     21  C   UNL     1      33.415 -16.733 -24.747  0.00  0.00    +0.005 C 
BRANCH  21  24
ATOM     22  N   UNL     1      34.972 -17.284 -22.899  0.00  0.00    +0.388 N 
ATOM     23  C   UNL     1      35.808 -18.424 -22.492  0.00  0.00    -0.030 C 
ATOM     24  C   UNL     1      34.582 -17.589 -24.282  0.00  0.00    -0.057 C 
ATOM     25  C   UNL     1      35.195 -19.642 -23.184  0.00  0.00    -0.021 C 
ATOM     26  C   UNL     1      34.249 -19.073 -24.234  0.00  0.00    -0.023 C 
ATOM     27  H   UNL     1      35.504 -16.415 -22.858  0.00  0.00    -0.084 HD
ATOM     28  H   UNL     1      34.167 -17.157 -22.287  0.00  0.00    -0.084 HD
BRANCH  23  29
ATOM     29  C   UNL     1      35.867 -18.569 -20.978  0.00  0.00    +0.113 C 
BRANCH  29  30
ATOM     30  C   UNL     1      35.066 -19.753 -20.486  0.00  0.00    +0.002 C 
ATOM     31  C   UNL     1      33.675 -19.747 -20.590  0.00  0.00    -0.002 C 
ATOM     32  C   UNL     1      35.718 -20.852 -19.925  0.00  0.00    -0.002 C 
ATOM     33  C   UNL     1      32.936 -20.839 -20.136  0.00  0.00    -0.000 C 
ATOM     34  C   UNL     1      34.980 -21.944 -19.469  0.00  0.00    -0.000 C 
ATOM     35  C   UNL     1      33.589 -21.938 -19.575  0.00  0.00    -0.000 C 
ENDBRANCH  29  30
BRANCH  29  36
ATOM     36  O   UNL     1      37.224 -18.719 -20.561  0.00  0.00    -0.382 OA
ATOM     37  H   UNL     1      37.521 -17.904 -20.128  0.00  0.00    +0.211 HD
ENDBRANCH  29  36
ENDBRANCH  23  29
ENDBRANCH  21  24
ENDBRANCH   1  21
TORSDOF 7
ENDMDL
MODEL 8
REMARK VINA RESULT:     -10.9      2.479      4.472
REMARK  Name = 44472635
REMARK  7 active torsions:
REMARK  status: ('A' for Active; 'I' for Inactive)
REMARK    1  A    between atoms: C_1  and  C_21
REMARK    2  A    between atoms: C_4  and  N_8
REMARK    3  A    between atoms: C_9  and  C_14
REMARK    4  A    between atoms: C_21  and  C_24
REMARK    5  A    between atoms: C_23  and  C_29
REMARK    6  A    between atoms: C_29  and  C_30
REMARK    7  A    between atoms: C_29  and  O_36
REMARK                            x       y       z     vdW  Elec       q    Type
REMARK                         _______ _______ _______ _____ _____    ______ ____
ROOT
ATOM      1  C   UNL     1      33.940 -22.337 -18.047  0.00  0.00    -0.024 C 
ATOM      2  C   UNL     1      33.074 -23.173 -17.341  0.00  0.00    -0.003 C 
ATOM      3  C   UNL     1      35.267 -22.203 -17.638  0.00  0.00    -0.003 C 
ATOM      4  C   UNL     1      34.863 -23.741 -15.819  0.00  0.00    +0.050 C 
ATOM      5  C   UNL     1      33.535 -23.875 -16.227  0.00  0.00    +0.014 C 
ATOM      6  C   UNL     1      35.729 -22.905 -16.525  0.00  0.00    +0.014 C 
ENDROOT
BRANCH   4   8
ATOM      7  O   UNL     1      33.803 -23.856 -13.003  0.00  0.00    -0.273 OA
ATOM      8  N   UNL     1      35.331 -24.453 -14.689  0.00  0.00    -0.283 N 
ATOM      9  C   UNL     1      34.791 -24.459 -13.411  0.00  0.00    +0.245 C 
ATOM     10  H   UNL     1      36.133 -25.008 -14.827  0.00  0.00    +0.155 HD
BRANCH   9  14
ATOM     11  O   UNL     1      36.452 -27.183 -14.649  0.00  0.00    -0.269 OA
ATOM     12  N   UNL     1      36.890 -25.513 -13.088  0.00  0.00    -0.237 N 
ATOM     13  N   UNL     1      39.083 -24.618 -12.815  0.00  0.00    -0.233 NA
ATOM     14  C   UNL     1      35.581 -25.343 -12.494  0.00  0.00    +0.158 C 
ATOM     15  C   UNL     1      35.877 -24.659 -11.167  0.00  0.00    +0.037 C 
ATOM     16  C   UNL     1      37.170 -23.877 -11.416  0.00  0.00    +0.064 C 
ATOM     17  C   UNL     1      37.835 -24.685 -12.489  0.00  0.00    +0.115 C 
ATOM     18  C   UNL     1      37.215 -26.401 -14.094  0.00  0.00    +0.256 C 
ATOM     19  C   UNL     1      38.649 -26.327 -14.477  0.00  0.00    +0.079 C 
ATOM     20  C   UNL     1      39.452 -25.467 -13.831  0.00  0.00    +0.105 C 
ENDBRANCH   9  14
ENDBRANCH   4   8
BRANCH   1  21
ATOM     21  C   UNL     1      33.447 -21.585 -19.236  0.00  0.00    +0.005 C 
BRANCH  21  24
ATOM     22  N   UNL     1      34.366 -19.862 -20.764  0.00  0.00    +0.388 N 
ATOM     23  C   UNL     1      35.680 -19.492 -21.311  0.00  0.00    -0.030 C 
ATOM     24  C   UNL     1      34.572 -21.196 -20.181  0.00  0.00    -0.057 C 
ATOM     25  C   UNL     1      36.704 -20.087 -20.343  0.00  0.00    -0.021 C 
ATOM     26  C   UNL     1      35.918 -21.069 -19.483  0.00  0.00    -0.023 C 
ATOM     27  H   UNL     1      33.665 -19.897 -21.504  0.00  0.00    -0.084 HD
ATOM     28  H   UNL     1      34.027 -19.187 -20.079  0.00  0.00    -0.084 HD
BRANCH  23  29
ATOM     29  C   UNL     1      35.820 -17.985 -21.471  0.00  0.00    +0.113 C 
BRANCH  29  30
ATOM     30  C   UNL     1      35.108 -17.472 -22.702  0.00  0.00    +0.002 C 
ATOM     31  C   UNL     1      34.610 -18.371 -23.645  0.00  0.00    -0.002 C 
ATOM     32  C   UNL     1      34.950 -16.100 -22.895  0.00  0.00    -0.002 C 
ATOM     33  C   UNL     1      33.954 -17.898 -24.781  0.00  0.00    -0.000 C 
ATOM     34  C   UNL     1      34.294 -15.626 -24.031  0.00  0.00    -0.000 C 
ATOM     35  C   UNL     1      33.795 -16.526 -24.974  0.00  0.00    -0.000 C 
ENDBRANCH  29  30
BRANCH  29  36
ATOM     36  O   UNL     1      35.292 -17.327 -20.320  0.00  0.00    -0.382 OA
ATOM     37  H   UNL     1      35.952 -17.339 -19.609  0.00  0.00    +0.211 HD
ENDBRANCH  29  36
ENDBRANCH  23  29
ENDBRANCH  21  24
ENDBRANCH   1  21
TORSDOF 7
ENDMDL
MODEL 9
REMARK VINA RESULT:     -10.8      4.609     13.339
REMARK  Name = 44472635
REMARK  7 active torsions:
REMARK  status: ('A' for Active; 'I' for Inactive)
REMARK    1  A    between atoms: C_1  and  C_21
REMARK    2  A    between atoms: C_4  and  N_8
REMARK    3  A    between atoms: C_9  and  C_14
REMARK    4  A    between atoms: C_21  and  C_24
REMARK    5  A    between atoms: C_23  and  C_29
REMARK    6  A    between atoms: C_29  and  C_30
REMARK    7  A    between atoms: C_29  and  O_36
REMARK                            x       y       z     vdW  Elec       q    Type
REMARK                         _______ _______ _______ _____ _____    ______ ____
ROOT
ATOM      1  C   UNL     1      33.406 -13.965 -20.904  0.00  0.00    -0.024 C 
ATOM      2  C   UNL     1      33.940 -13.431 -22.077  0.00  0.00    -0.003 C 
ATOM      3  C   UNL     1      32.295 -13.367 -20.308  0.00  0.00    -0.003 C 
ATOM      4  C   UNL     1      32.251 -11.703 -22.058  0.00  0.00    +0.050 C 
ATOM      5  C   UNL     1      33.363 -12.300 -22.654  0.00  0.00    +0.014 C 
ATOM      6  C   UNL     1      31.718 -12.237 -20.885  0.00  0.00    +0.014 C 
ENDROOT
BRANCH   4   8
ATOM      7  O   UNL     1      32.965  -8.790 -21.790  0.00  0.00    -0.273 OA
ATOM      8  N   UNL     1      31.665 -10.556 -22.643  0.00  0.00    -0.283 N 
ATOM      9  C   UNL     1      32.047  -9.232 -22.474  0.00  0.00    +0.245 C 
ATOM     10  H   UNL     1      30.898 -10.716 -23.240  0.00  0.00    +0.155 HD
BRANCH   9  14
ATOM     11  O   UNL     1      30.491  -6.591 -20.951  0.00  0.00    -0.269 OA
ATOM     12  N   UNL     1      31.591  -6.959 -22.969  0.00  0.00    -0.237 N 
ATOM     13  N   UNL     1      32.930  -5.261 -23.976  0.00  0.00    -0.233 NA
ATOM     14  C   UNL     1      31.171  -8.311 -23.268  0.00  0.00    +0.158 C 
ATOM     15  C   UNL     1      31.425  -8.442 -24.763  0.00  0.00    +0.037 C 
ATOM     16  C   UNL     1      32.579  -7.476 -25.044  0.00  0.00    +0.064 C 
ATOM     17  C   UNL     1      32.404  -6.442 -23.974  0.00  0.00    +0.115 C 
ATOM     18  C   UNL     1      31.225  -6.222 -21.860  0.00  0.00    +0.256 C 
ATOM     19  C   UNL     1      31.829  -4.864 -21.854  0.00  0.00    +0.079 C 
ATOM     20  C   UNL     1      32.614  -4.496 -22.878  0.00  0.00    +0.105 C 
ENDBRANCH   9  14
ENDBRANCH   4   8
BRANCH   1  21
ATOM     21  C   UNL     1      34.024 -15.173 -20.285  0.00  0.00    +0.005 C 
BRANCH  21  24
ATOM     22  N   UNL     1      34.929 -17.350 -21.051  0.00  0.00    +0.388 N 
ATOM     23  C   UNL     1      35.562 -17.892 -22.263  0.00  0.00    -0.030 C 
ATOM     24  C   UNL     1      34.965 -15.893 -21.237  0.00  0.00    -0.057 C 
ATOM     25  C   UNL     1      35.145 -16.951 -23.393  0.00  0.00    -0.021 C 
ATOM     26  C   UNL     1      34.581 -15.716 -22.700  0.00  0.00    -0.023 C 
ATOM     27  H   UNL     1      35.455 -17.620 -20.220  0.00  0.00    -0.084 HD
ATOM     28  H   UNL     1      33.981 -17.702 -20.918  0.00  0.00    -0.084 HD
BRANCH  23  29
ATOM     29  C   UNL     1      35.155 -19.338 -22.514  0.00  0.00    +0.113 C 
BRANCH  29  30
ATOM     30  C   UNL     1      35.079 -20.140 -21.235  0.00  0.00    +0.002 C 
ATOM     31  C   UNL     1      36.249 -20.513 -20.574  0.00  0.00    -0.002 C 
ATOM     32  C   UNL     1      33.837 -20.508 -20.716  0.00  0.00    -0.002 C 
ATOM     33  C   UNL     1      36.178 -21.253 -19.394  0.00  0.00    -0.000 C 
ATOM     34  C   UNL     1      33.766 -21.249 -19.537  0.00  0.00    -0.000 C 
ATOM     35  C   UNL     1      34.937 -21.621 -18.875  0.00  0.00    -0.000 C 
ENDBRANCH  29  30
BRANCH  29  36
ATOM     36  O   UNL     1      33.885 -19.375 -23.164  0.00  0.00    -0.382 OA
ATOM     37  H   UNL     1      33.871 -18.725 -23.884  0.00  0.00    +0.211 HD
ENDBRANCH  29  36
ENDBRANCH  23  29
ENDBRANCH  21  24
ENDBRANCH   1  21
TORSDOF 7
ENDMDL
