MODEL 1
REMARK VINA RESULT:     -11.7      0.000      0.000
REMARK  Name = 24901696
REMARK  4 active torsions:
REMARK  status: ('A' for Active; 'I' for Inactive)
REMARK    1  A    between atoms: C_5  and  C_16
REMARK    2  A    between atoms: C_7  and  C_10
REMARK    3  A    between atoms: C_16  and  C_17
REMARK    4  A    between atoms: C_22  and  O_23
REMARK                            x       y       z     vdW  Elec       q    Type
REMARK                         _______ _______ _______ _____ _____    ______ ____
ROOT
ATOM      1  N   UNL     1      34.691 -17.297 -22.924  0.00  0.00    -0.195 N 
ATOM      2  N   UNL     1      34.816 -18.038 -21.794  0.00  0.00    -0.163 NA
ATOM      3  N   UNL     1      34.547 -15.577 -24.275  0.00  0.00    -0.131 NA
ATOM      4  N   UNL     1      34.443 -16.728 -25.031  0.00  0.00    -0.127 NA
ATOM      5  C   UNL     1      34.696 -15.937 -23.020  0.00  0.00    +0.168 A 
ATOM      6  C   UNL     1      34.531 -17.754 -24.211  0.00  0.00    +0.186 A 
ATOM      7  C   UNL     1      34.768 -19.323 -21.999  0.00  0.00    +0.101 C 
ATOM      8  C   UNL     1      34.500 -19.150 -24.405  0.00  0.00    +0.042 C 
ATOM      9  C   UNL     1      34.616 -19.962 -23.346  0.00  0.00    +0.024 C 
ENDROOT
BRANCH   7  10
ATOM     10  C   UNL     1      34.887 -20.242 -20.837  0.00  0.00    +0.019 C 
ATOM     11  C   UNL     1      33.743 -20.805 -20.272  0.00  0.00    +0.002 C 
ATOM     12  C   UNL     1      36.145 -20.544 -20.313  0.00  0.00    +0.002 C 
ATOM     13  C   UNL     1      33.855 -21.668 -19.182  0.00  0.00    +0.000 C 
ATOM     14  C   UNL     1      36.257 -21.407 -19.223  0.00  0.00    +0.000 C 
ATOM     15  C   UNL     1      35.112 -21.970 -18.658  0.00  0.00    +0.000 C 
ENDBRANCH   7  10
BRANCH   5  16
ATOM     16  C   UNL     1      34.849 -15.048 -21.853  0.00  0.00    +0.094 C 
BRANCH  16  17
ATOM     17  C   UNL     1      33.695 -14.077 -21.643  0.00  0.00    -0.014 C 
ATOM     18  C   UNL     1      32.903 -14.172 -20.499  0.00  0.00    -0.001 C 
ATOM     19  C   UNL     1      33.431 -13.092 -22.594  0.00  0.00    -0.001 C 
ATOM     20  C   UNL     1      31.845 -13.282 -20.307  0.00  0.00    +0.036 C 
ATOM     21  C   UNL     1      32.374 -12.202 -22.403  0.00  0.00    +0.036 C 
ATOM     22  C   UNL     1      31.581 -12.298 -21.259  0.00  0.00    +0.134 C 
BRANCH  22  23
ATOM     23  O   UNL     1      30.550 -11.430 -21.071  0.00  0.00    -0.506 OA
ATOM     24  H   UNL     1      29.871 -11.634 -20.459  0.00  0.00    +0.292 HD
ENDBRANCH  22  23
ENDBRANCH  16  17
ENDBRANCH   5  16
TORSDOF 4
ENDMDL
MODEL 2
REMARK VINA RESULT:     -10.9      6.124      9.271
REMARK  Name = 24901696
REMARK  4 active torsions:
REMARK  status: ('A' for Active; 'I' for Inactive)
REMARK    1  A    between atoms: C_5  and  C_16
REMARK    2  A    between atoms: C_7  and  C_10
REMARK    3  A    between atoms: C_16  and  C_17
REMARK    4  A    between atoms: C_22  and  O_23
REMARK                            x       y       z     vdW  Elec       q    Type
REMARK                         _______ _______ _______ _____ _____    ______ ____
ROOT
ATOM      1  N   UNL     1      33.558 -23.789 -15.970  0.00  0.00    -0.195 N 
ATOM      2  N   UNL     1      34.797 -24.253 -15.670  0.00  0.00    -0.163 NA
ATOM      3  N   UNL     1      31.826 -23.073 -17.108  0.00  0.00    -0.131 NA
ATOM      4  N   UNL     1      31.492 -23.070 -15.768  0.00  0.00    -0.127 NA
ATOM      5  C   UNL     1      33.063 -23.507 -17.209  0.00  0.00    +0.168 A 
ATOM      6  C   UNL     1      32.537 -23.501 -15.093  0.00  0.00    +0.186 A 
ATOM      7  C   UNL     1      35.000 -24.426 -14.396  0.00  0.00    +0.101 C 
ATOM      8  C   UNL     1      32.780 -23.714 -13.722  0.00  0.00    +0.042 C 
ATOM      9  C   UNL     1      33.977 -24.171 -13.331  0.00  0.00    +0.024 C 
ENDROOT
BRANCH   7  10
ATOM     10  C   UNL     1      36.324 -24.926 -13.939  0.00  0.00    +0.019 C 
ATOM     11  C   UNL     1      36.430 -25.620 -12.734  0.00  0.00    +0.002 C 
ATOM     12  C   UNL     1      37.460 -24.702 -14.718  0.00  0.00    +0.002 C 
ATOM     13  C   UNL     1      37.673 -26.089 -12.306  0.00  0.00    +0.000 C 
ATOM     14  C   UNL     1      38.702 -25.170 -14.290  0.00  0.00    +0.000 C 
ATOM     15  C   UNL     1      38.808 -25.865 -13.084  0.00  0.00    +0.000 C 
ENDBRANCH   7  10
BRANCH   5  16
ATOM     16  C   UNL     1      33.844 -23.681 -18.447  0.00  0.00    +0.094 C 
BRANCH  16  17
ATOM     17  C   UNL     1      34.242 -22.381 -19.132  0.00  0.00    -0.014 C 
ATOM     18  C   UNL     1      33.262 -21.552 -19.678  0.00  0.00    -0.001 C 
ATOM     19  C   UNL     1      35.587 -22.020 -19.215  0.00  0.00    -0.001 C 
ATOM     20  C   UNL     1      33.628 -20.361 -20.307  0.00  0.00    +0.036 C 
ATOM     21  C   UNL     1      35.952 -20.829 -19.843  0.00  0.00    +0.036 C 
ATOM     22  C   UNL     1      34.972 -20.000 -20.389  0.00  0.00    +0.134 C 
BRANCH  22  23
ATOM     23  O   UNL     1      35.328 -18.838 -21.002  0.00  0.00    -0.506 OA
ATOM     24  H   UNL     1      36.159 -18.769 -21.430  0.00  0.00    +0.292 HD
ENDBRANCH  22  23
ENDBRANCH  16  17
ENDBRANCH   5  16
TORSDOF 4
ENDMDL
MODEL 3
REMARK VINA RESULT:     -10.9      4.981      8.038
REMARK  Name = 24901696
REMARK  4 active torsions:
REMARK  status: ('A' for Active; 'I' for Inactive)
REMARK    1  A    between atoms: C_5  and  C_16
REMARK    2  A    between atoms: C_7  and  C_10
REMARK    3  A    between atoms: C_16  and  C_17
REMARK    4  A    between atoms: C_22  and  O_23
REMARK                            x       y       z     vdW  Elec       q    Type
REMARK                         _______ _______ _______ _____ _____    ______ ____
ROOT
ATOM      1  N   UNL     1      34.307 -22.960 -17.263  0.00  0.00    -0.195 N 
ATOM      2  N   UNL     1      35.351 -23.296 -16.466  0.00  0.00    -0.163 NA
ATOM      3  N   UNL     1      33.154 -22.251 -18.987  0.00  0.00    -0.131 NA
ATOM      4  N   UNL     1      32.265 -22.622 -17.998  0.00  0.00    -0.127 NA
ATOM      5  C   UNL     1      34.368 -22.461 -18.531  0.00  0.00    +0.168 A 
ATOM      6  C   UNL     1      32.966 -23.045 -16.968  0.00  0.00    +0.186 A 
ATOM      7  C   UNL     1      34.997 -23.741 -15.294  0.00  0.00    +0.101 C 
ATOM      8  C   UNL     1      32.612 -23.547 -15.699  0.00  0.00    +0.042 C 
ATOM      9  C   UNL     1      33.578 -23.904 -14.842  0.00  0.00    +0.024 C 
ENDROOT
BRANCH   7  10
ATOM     10  C   UNL     1      36.053 -24.137 -14.325  0.00  0.00    +0.019 C 
ATOM     11  C   UNL     1      36.105 -23.537 -13.067  0.00  0.00    +0.002 C 
ATOM     12  C   UNL     1      36.990 -25.110 -14.674  0.00  0.00    +0.002 C 
ATOM     13  C   UNL     1      37.096 -23.909 -12.157  0.00  0.00    +0.000 C 
ATOM     14  C   UNL     1      37.980 -25.482 -13.765  0.00  0.00    +0.000 C 
ATOM     15  C   UNL     1      38.033 -24.882 -12.506  0.00  0.00    +0.000 C 
ENDBRANCH   7  10
BRANCH   5  16
ATOM     16  C   UNL     1      35.638 -22.213 -19.239  0.00  0.00    +0.094 C 
BRANCH  16  17
ATOM     17  C   UNL     1      35.676 -20.917 -20.035  0.00  0.00    -0.014 C 
ATOM     18  C   UNL     1      36.868 -20.201 -20.146  0.00  0.00    -0.001 C 
ATOM     19  C   UNL     1      34.518 -20.444 -20.653  0.00  0.00    -0.001 C 
ATOM     20  C   UNL     1      36.902 -19.011 -20.875  0.00  0.00    +0.036 C 
ATOM     21  C   UNL     1      34.552 -19.255 -21.382  0.00  0.00    +0.036 C 
ATOM     22  C   UNL     1      35.744 -18.539 -21.493  0.00  0.00    +0.134 C 
BRANCH  22  23
ATOM     23  O   UNL     1      35.778 -17.379 -22.204  0.00  0.00    -0.506 OA
ATOM     24  H   UNL     1      36.294 -16.658 -21.901  0.00  0.00    +0.292 HD
ENDBRANCH  22  23
ENDBRANCH  16  17
ENDBRANCH   5  16
TORSDOF 4
ENDMDL
MODEL 4
REMARK VINA RESULT:     -10.9      5.445      8.496
REMARK  Name = 24901696
REMARK  4 active torsions:
REMARK  status: ('A' for Active; 'I' for Inactive)
REMARK    1  A    between atoms: C_5  and  C_16
REMARK    2  A    between atoms: C_7  and  C_10
REMARK    3  A    between atoms: C_16  and  C_17
REMARK    4  A    between atoms: C_22  and  O_23
REMARK                            x       y       z     vdW  Elec       q    Type
REMARK                         _______ _______ _______ _____ _____    ______ ____
ROOT
ATOM      1  N   UNL     1      34.451 -22.982 -16.698  0.00  0.00    -0.195 N 
ATOM      2  N   UNL     1      33.130 -23.285 -16.662  0.00  0.00    -0.163 NA
ATOM      3  N   UNL     1      36.424 -22.374 -17.436  0.00  0.00    -0.131 NA
ATOM      4  N   UNL     1      36.538 -22.665 -16.091  0.00  0.00    -0.127 NA
ATOM      5  C   UNL     1      35.171 -22.568 -17.780  0.00  0.00    +0.168 A 
ATOM      6  C   UNL     1      35.350 -23.028 -15.657  0.00  0.00    +0.186 A 
ATOM      7  C   UNL     1      32.708 -23.663 -15.489  0.00  0.00    +0.101 C 
ATOM      8  C   UNL     1      34.861 -23.424 -14.396  0.00  0.00    +0.042 C 
ATOM      9  C   UNL     1      33.567 -23.744 -14.264  0.00  0.00    +0.024 C 
ENDROOT
BRANCH   7  10
ATOM     10  C   UNL     1      31.277 -24.029 -15.322  0.00  0.00    +0.019 C 
ATOM     11  C   UNL     1      30.291 -23.323 -16.011  0.00  0.00    +0.002 C 
ATOM     12  C   UNL     1      30.920 -25.080 -14.477  0.00  0.00    +0.002 C 
ATOM     13  C   UNL     1      28.948 -23.667 -15.854  0.00  0.00    +0.000 C 
ATOM     14  C   UNL     1      29.578 -25.423 -14.320  0.00  0.00    +0.000 C 
ATOM     15  C   UNL     1      28.591 -24.717 -15.009  0.00  0.00    +0.000 C 
ENDBRANCH   7  10
BRANCH   5  16
ATOM     16  C   UNL     1      34.578 -22.381 -19.117  0.00  0.00    +0.094 C 
BRANCH  16  17
ATOM     17  C   UNL     1      35.082 -21.156 -19.868  0.00  0.00    -0.014 C 
ATOM     18  C   UNL     1      34.189 -20.363 -20.587  0.00  0.00    -0.001 C 
ATOM     19  C   UNL     1      36.437 -20.829 -19.837  0.00  0.00    -0.001 C 
ATOM     20  C   UNL     1      34.651 -19.240 -21.275  0.00  0.00    +0.036 C 
ATOM     21  C   UNL     1      36.900 -19.707 -20.525  0.00  0.00    +0.036 C 
ATOM     22  C   UNL     1      36.006 -18.914 -21.244  0.00  0.00    +0.134 C 
BRANCH  22  23
ATOM     23  O   UNL     1      36.457 -17.819 -21.916  0.00  0.00    -0.506 OA
ATOM     24  H   UNL     1      37.285 -17.845 -22.354  0.00  0.00    +0.292 HD
ENDBRANCH  22  23
ENDBRANCH  16  17
ENDBRANCH   5  16
TORSDOF 4
ENDMDL
MODEL 5
REMARK VINA RESULT:     -10.7      5.610     10.374
REMARK  Name = 24901696
REMARK  4 active torsions:
REMARK  status: ('A' for Active; 'I' for Inactive)
REMARK    1  A    between atoms: C_5  and  C_16
REMARK    2  A    between atoms: C_7  and  C_10
REMARK    3  A    between atoms: C_16  and  C_17
REMARK    4  A    between atoms: C_22  and  O_23
REMARK                            x       y       z     vdW  Elec       q    Type
REMARK                         _______ _______ _______ _____ _____    ______ ____
ROOT
ATOM      1  N   UNL     1      31.990  -9.260 -20.773  0.00  0.00    -0.195 N 
ATOM      2  N   UNL     1      32.435  -8.935 -22.012  0.00  0.00    -0.163 NA
ATOM      3  N   UNL     1      31.044 -10.356 -19.126  0.00  0.00    -0.131 NA
ATOM      4  N   UNL     1      31.552  -9.176 -18.622  0.00  0.00    -0.127 NA
ATOM      5  C   UNL     1      31.316 -10.390 -20.411  0.00  0.00    +0.168 A 
ATOM      6  C   UNL     1      32.118  -8.525 -19.617  0.00  0.00    +0.186 A 
ATOM      7  C   UNL     1      33.042  -7.784 -22.068  0.00  0.00    +0.101 C 
ATOM      8  C   UNL     1      32.795  -7.292 -19.704  0.00  0.00    +0.042 C 
ATOM      9  C   UNL     1      33.270  -6.887 -20.889  0.00  0.00    +0.024 C 
ENDROOT
BRANCH   7  10
ATOM     10  C   UNL     1      33.571  -7.311 -23.374  0.00  0.00    +0.019 C 
ATOM     11  C   UNL     1      34.867  -6.803 -23.460  0.00  0.00    +0.002 C 
ATOM     12  C   UNL     1      32.771  -7.378 -24.516  0.00  0.00    +0.002 C 
ATOM     13  C   UNL     1      35.362  -6.359 -24.686  0.00  0.00    +0.000 C 
ATOM     14  C   UNL     1      33.266  -6.935 -25.741  0.00  0.00    +0.000 C 
ATOM     15  C   UNL     1      34.563  -6.426 -25.827  0.00  0.00    +0.000 C 
ENDBRANCH   7  10
BRANCH   5  16
ATOM     16  C   UNL     1      30.969 -11.460 -21.365  0.00  0.00    +0.094 C 
BRANCH  16  17
ATOM     17  C   UNL     1      32.024 -12.549 -21.505  0.00  0.00    -0.014 C 
ATOM     18  C   UNL     1      32.251 -13.439 -20.456  0.00  0.00    -0.001 C 
ATOM     19  C   UNL     1      32.763 -12.655 -22.683  0.00  0.00    -0.001 C 
ATOM     20  C   UNL     1      33.219 -14.436 -20.585  0.00  0.00    +0.036 C 
ATOM     21  C   UNL     1      33.730 -13.652 -22.812  0.00  0.00    +0.036 C 
ATOM     22  C   UNL     1      33.958 -14.542 -21.763  0.00  0.00    +0.134 C 
BRANCH  22  23
ATOM     23  O   UNL     1      34.901 -15.515 -21.888  0.00  0.00    -0.506 OA
ATOM     24  H   UNL     1      35.018 -16.146 -21.205  0.00  0.00    +0.292 HD
ENDBRANCH  22  23
ENDBRANCH  16  17
ENDBRANCH   5  16
TORSDOF 4
ENDMDL
MODEL 6
REMARK VINA RESULT:     -10.6      2.928      7.482
REMARK  Name = 24901696
REMARK  4 active torsions:
REMARK  status: ('A' for Active; 'I' for Inactive)
REMARK    1  A    between atoms: C_5  and  C_16
REMARK    2  A    between atoms: C_7  and  C_10
REMARK    3  A    between atoms: C_16  and  C_17
REMARK    4  A    between atoms: C_22  and  O_23
REMARK                            x       y       z     vdW  Elec       q    Type
REMARK                         _______ _______ _______ _____ _____    ______ ____
ROOT
ATOM      1  N   UNL     1      34.240 -15.731 -23.350  0.00  0.00    -0.195 N 
ATOM      2  N   UNL     1      33.830 -14.656 -22.631  0.00  0.00    -0.163 NA
ATOM      3  N   UNL     1      35.152 -17.654 -23.874  0.00  0.00    -0.131 NA
ATOM      4  N   UNL     1      34.605 -17.110 -25.019  0.00  0.00    -0.127 NA
ATOM      5  C   UNL     1      34.923 -16.817 -22.887  0.00  0.00    +0.168 A 
ATOM      6  C   UNL     1      34.060 -15.957 -24.695  0.00  0.00    +0.186 A 
ATOM      7  C   UNL     1      33.203 -13.759 -23.337  0.00  0.00    +0.101 C 
ATOM      8  C   UNL     1      33.363 -14.977 -25.430  0.00  0.00    +0.042 C 
ATOM      9  C   UNL     1      32.920 -13.879 -24.804  0.00  0.00    +0.024 C 
ENDROOT
BRANCH   7  10
ATOM     10  C   UNL     1      32.709 -12.529 -22.664  0.00  0.00    +0.019 C 
ATOM     11  C   UNL     1      32.958 -11.277 -23.226  0.00  0.00    +0.002 C 
ATOM     12  C   UNL     1      31.993 -12.628 -21.469  0.00  0.00    +0.002 C 
ATOM     13  C   UNL     1      32.493 -10.124 -22.593  0.00  0.00    +0.000 C 
ATOM     14  C   UNL     1      31.529 -11.475 -20.838  0.00  0.00    +0.000 C 
ATOM     15  C   UNL     1      31.779 -10.222 -21.400  0.00  0.00    +0.000 C 
ENDBRANCH   7  10
BRANCH   5  16
ATOM     16  C   UNL     1      35.321 -16.977 -21.477  0.00  0.00    +0.094 C 
BRANCH  16  17
ATOM     17  C   UNL     1      35.391 -18.421 -20.999  0.00  0.00    -0.014 C 
ATOM     18  C   UNL     1      34.225 -19.178 -20.895  0.00  0.00    -0.001 C 
ATOM     19  C   UNL     1      36.621 -18.985 -20.663  0.00  0.00    -0.001 C 
ATOM     20  C   UNL     1      34.289 -20.501 -20.455  0.00  0.00    +0.036 C 
ATOM     21  C   UNL     1      36.686 -20.307 -20.224  0.00  0.00    +0.036 C 
ATOM     22  C   UNL     1      35.520 -21.065 -20.120  0.00  0.00    +0.134 C 
BRANCH  22  23
ATOM     23  O   UNL     1      35.582 -22.355 -19.691  0.00  0.00    -0.506 OA
ATOM     24  H   UNL     1      35.976 -22.557 -18.866  0.00  0.00    +0.292 HD
ENDBRANCH  22  23
ENDBRANCH  16  17
ENDBRANCH   5  16
TORSDOF 4
ENDMDL
MODEL 7
REMARK VINA RESULT:     -10.3      7.816     11.801
REMARK  Name = 24901696
REMARK  4 active torsions:
REMARK  status: ('A' for Active; 'I' for Inactive)
REMARK    1  A    between atoms: C_5  and  C_16
REMARK    2  A    between atoms: C_7  and  C_10
REMARK    3  A    between atoms: C_16  and  C_17
REMARK    4  A    between atoms: C_22  and  O_23
REMARK                            x       y       z     vdW  Elec       q    Type
REMARK                         _______ _______ _______ _____ _____    ______ ____
ROOT
ATOM      1  N   UNL     1      34.144 -23.752 -14.370  0.00  0.00    -0.195 N 
ATOM      2  N   UNL     1      34.712 -23.120 -15.427  0.00  0.00    -0.163 NA
ATOM      3  N   UNL     1      33.851 -24.607 -12.372  0.00  0.00    -0.131 NA
ATOM      4  N   UNL     1      32.712 -24.847 -13.114  0.00  0.00    -0.127 NA
ATOM      5  C   UNL     1      34.695 -23.951 -13.138  0.00  0.00    +0.168 A 
ATOM      6  C   UNL     1      32.897 -24.331 -14.311  0.00  0.00    +0.186 A 
ATOM      7  C   UNL     1      33.956 -23.084 -16.487  0.00  0.00    +0.101 C 
ATOM      8  C   UNL     1      32.095 -24.262 -15.468  0.00  0.00    +0.042 C 
ATOM      9  C   UNL     1      32.573 -23.656 -16.563  0.00  0.00    +0.024 C 
ENDROOT
BRANCH   7  10
ATOM     10  C   UNL     1      34.470 -22.423 -17.715  0.00  0.00    +0.019 C 
ATOM     11  C   UNL     1      35.837 -22.196 -17.866  0.00  0.00    +0.002 C 
ATOM     12  C   UNL     1      33.582 -22.031 -18.719  0.00  0.00    +0.002 C 
ATOM     13  C   UNL     1      36.318 -21.575 -19.019  0.00  0.00    +0.000 C 
ATOM     14  C   UNL     1      34.063 -21.410 -19.871  0.00  0.00    +0.000 C 
ATOM     15  C   UNL     1      35.432 -21.183 -20.022  0.00  0.00    +0.000 C 
ENDBRANCH   7  10
BRANCH   5  16
ATOM     16  C   UNL     1      36.042 -23.478 -12.773  0.00  0.00    +0.094 C 
BRANCH  16  17
ATOM     17  C   UNL     1      37.175 -24.399 -13.205  0.00  0.00    -0.014 C 
ATOM     18  C   UNL     1      37.820 -24.187 -14.423  0.00  0.00    -0.001 C 
ATOM     19  C   UNL     1      37.566 -25.456 -12.384  0.00  0.00    -0.001 C 
ATOM     20  C   UNL     1      38.857 -25.032 -14.820  0.00  0.00    +0.036 C 
ATOM     21  C   UNL     1      38.602 -26.301 -12.779  0.00  0.00    +0.036 C 
ATOM     22  C   UNL     1      39.248 -26.089 -13.997  0.00  0.00    +0.134 C 
BRANCH  22  23
ATOM     23  O   UNL     1      40.260 -26.913 -14.384  0.00  0.00    -0.506 OA
ATOM     24  H   UNL     1      40.072 -27.788 -14.664  0.00  0.00    +0.292 HD
ENDBRANCH  22  23
ENDBRANCH  16  17
ENDBRANCH   5  16
TORSDOF 4
ENDMDL
MODEL 8
REMARK VINA RESULT:     -10.2      4.339      9.644
REMARK  Name = 24901696
REMARK  4 active torsions:
REMARK  status: ('A' for Active; 'I' for Inactive)
REMARK    1  A    between atoms: C_5  and  C_16
REMARK    2  A    between atoms: C_7  and  C_10
REMARK    3  A    between atoms: C_16  and  C_17
REMARK    4  A    between atoms: C_22  and  O_23
REMARK                            x       y       z     vdW  Elec       q    Type
REMARK                         _______ _______ _______ _____ _____    ______ ____
ROOT
ATOM      1  N   UNL     1      32.633 -11.389 -22.511  0.00  0.00    -0.195 N 
ATOM      2  N   UNL     1      33.181 -10.389 -23.244  0.00  0.00    -0.163 NA
ATOM      3  N   UNL     1      32.055 -13.393 -21.834  0.00  0.00    -0.131 NA
ATOM      4  N   UNL     1      31.523 -12.471 -20.954  0.00  0.00    -0.127 NA
ATOM      5  C   UNL     1      32.715 -12.729 -22.756  0.00  0.00    +0.168 A 
ATOM      6  C   UNL     1      31.875 -11.272 -21.368  0.00  0.00    +0.186 A 
ATOM      7  C   UNL     1      32.933  -9.198 -22.779  0.00  0.00    +0.101 C 
ATOM      8  C   UNL     1      31.637  -9.972 -20.879  0.00  0.00    +0.042 C 
ATOM      9  C   UNL     1      32.140  -8.920 -21.538  0.00  0.00    +0.024 C 
ENDROOT
BRANCH   7  10
ATOM     10  C   UNL     1      33.475  -8.016 -23.499  0.00  0.00    +0.019 C 
ATOM     11  C   UNL     1      32.649  -7.273 -24.342  0.00  0.00    +0.002 C 
ATOM     12  C   UNL     1      34.811  -7.649 -23.330  0.00  0.00    +0.002 C 
ATOM     13  C   UNL     1      33.159  -6.163 -25.017  0.00  0.00    +0.000 C 
ATOM     14  C   UNL     1      35.320  -6.540 -24.005  0.00  0.00    +0.000 C 
ATOM     15  C   UNL     1      34.493  -5.796 -24.848  0.00  0.00    +0.000 C 
ENDBRANCH   7  10
BRANCH   5  16
ATOM     16  C   UNL     1      33.450 -13.294 -23.902  0.00  0.00    +0.094 C 
BRANCH  16  17
ATOM     17  C   UNL     1      33.969 -14.708 -23.686  0.00  0.00    -0.014 C 
ATOM     18  C   UNL     1      34.609 -15.042 -22.493  0.00  0.00    -0.001 C 
ATOM     19  C   UNL     1      33.806 -15.670 -24.682  0.00  0.00    -0.001 C 
ATOM     20  C   UNL     1      35.086 -16.338 -22.295  0.00  0.00    +0.036 C 
ATOM     21  C   UNL     1      34.282 -16.967 -24.486  0.00  0.00    +0.036 C 
ATOM     22  C   UNL     1      34.922 -17.300 -23.292  0.00  0.00    +0.134 C 
BRANCH  22  23
ATOM     23  O   UNL     1      35.387 -18.565 -23.099  0.00  0.00    -0.506 OA
ATOM     24  H   UNL     1      36.267 -18.782 -23.335  0.00  0.00    +0.292 HD
ENDBRANCH  22  23
ENDBRANCH  16  17
ENDBRANCH   5  16
TORSDOF 4
ENDMDL
MODEL 9
REMARK VINA RESULT:     -10.1      5.405     10.464
REMARK  Name = 24901696
REMARK  4 active torsions:
REMARK  status: ('A' for Active; 'I' for Inactive)
REMARK    1  A    between atoms: C_5  and  C_16
REMARK    2  A    between atoms: C_7  and  C_10
REMARK    3  A    between atoms: C_16  and  C_17
REMARK    4  A    between atoms: C_22  and  O_23
REMARK                            x       y       z     vdW  Elec       q    Type
REMARK                         _______ _______ _______ _____ _____    ______ ____
ROOT
ATOM      1  N   UNL     1      32.029  -9.628 -20.770  0.00  0.00    -0.195 N 
ATOM      2  N   UNL     1      32.514  -8.990 -21.864  0.00  0.00    -0.163 NA
ATOM      3  N   UNL     1      31.136 -11.165 -19.487  0.00  0.00    -0.131 NA
ATOM      4  N   UNL     1      31.421 -10.063 -18.705  0.00  0.00    -0.127 NA
ATOM      5  C   UNL     1      31.507 -10.887 -20.716  0.00  0.00    +0.168 A 
ATOM      6  C   UNL     1      31.956  -9.147 -19.483  0.00  0.00    +0.186 A 
ATOM      7  C   UNL     1      32.944  -7.785 -21.623  0.00  0.00    +0.101 C 
ATOM      8  C   UNL     1      32.445  -7.846 -19.249  0.00  0.00    +0.042 C 
ATOM      9  C   UNL     1      32.943  -7.138 -20.271  0.00  0.00    +0.024 C 
ENDROOT
BRANCH   7  10
ATOM     10  C   UNL     1      33.494  -6.979 -22.744  0.00  0.00    +0.019 C 
ATOM     11  C   UNL     1      34.746  -7.286 -23.276  0.00  0.00    +0.002 C 
ATOM     12  C   UNL     1      32.756  -5.915 -23.266  0.00  0.00    +0.002 C 
ATOM     13  C   UNL     1      35.262  -6.529 -24.328  0.00  0.00    +0.000 C 
ATOM     14  C   UNL     1      33.273  -5.159 -24.317  0.00  0.00    +0.000 C 
ATOM     15  C   UNL     1      34.525  -5.467 -24.850  0.00  0.00    +0.000 C 
ENDBRANCH   7  10
BRANCH   5  16
ATOM     16  C   UNL     1      31.399 -11.765 -21.896  0.00  0.00    +0.094 C 
BRANCH  16  17
ATOM     17  C   UNL     1      32.473 -12.841 -21.985  0.00  0.00    -0.014 C 
ATOM     18  C   UNL     1      33.067 -13.134 -23.212  0.00  0.00    -0.001 C 
ATOM     19  C   UNL     1      32.860 -13.535 -20.839  0.00  0.00    -0.001 C 
ATOM     20  C   UNL     1      34.050 -14.121 -23.294  0.00  0.00    +0.036 C 
ATOM     21  C   UNL     1      33.843 -14.521 -20.920  0.00  0.00    +0.036 C 
ATOM     22  C   UNL     1      34.437 -14.814 -22.147  0.00  0.00    +0.134 C 
BRANCH  22  23
ATOM     23  O   UNL     1      35.396 -15.777 -22.227  0.00  0.00    -0.506 OA
ATOM     24  H   UNL     1      35.231 -16.565 -22.705  0.00  0.00    +0.292 HD
ENDBRANCH  22  23
ENDBRANCH  16  17
ENDBRANCH   5  16
TORSDOF 4
ENDMDL
