MODEL 1
REMARK VINA RESULT:     -12.0      0.000      0.000
REMARK  Name = 6420159
REMARK  9 active torsions:
REMARK  status: ('A' for Active; 'I' for Inactive)
REMARK    1  A    between atoms: C_1  and  N_3
REMARK    2  A    between atoms: C_1  and  C_15
REMARK    3  A    between atoms: C_1  and  C_29
REMARK    4  A    between atoms: N_14  and  C_17
REMARK    5  A    between atoms: C_17  and  C_18
REMARK    6  A    between atoms: C_18  and  N_19
REMARK    7  A    between atoms: N_19  and  C_21
REMARK    8  A    between atoms: C_26  and  O_27
REMARK    9  A    between atoms: C_29  and  C_30
REMARK                            x       y       z     vdW  Elec       q    Type
REMARK                         _______ _______ _______ _____ _____    ______ ____
ROOT
ATOM      1  C   UNL     1      33.225 -23.551 -16.851  0.00  0.00    +0.151 C 
ENDROOT
BRANCH   1   3
ATOM      2  O   UNL     1      35.765 -23.203 -14.231  0.00  0.00    -0.414 OA
ATOM      3  N   UNL     1      34.106 -23.061 -15.813  0.00  0.00    -0.271 N 
ATOM      4  N   UNL     1      35.290 -25.107 -15.365  0.00  0.00    -0.356 NA
ATOM      5  C   UNL     1      35.043 -23.850 -15.168  0.00  0.00    +0.345 C 
ATOM      6  C   UNL     1      36.590 -24.186 -13.764  0.00  0.00    +0.175 C 
ATOM      7  C   UNL     1      36.296 -25.350 -14.461  0.00  0.00    +0.152 C 
ATOM      8  C   UNL     1      37.559 -24.080 -12.775  0.00  0.00    +0.040 C 
ATOM      9  C   UNL     1      37.014 -26.517 -14.164  0.00  0.00    +0.088 C 
ATOM     10  C   UNL     1      38.266 -25.253 -12.490  0.00  0.00    -0.001 C 
ATOM     11  C   UNL     1      38.001 -26.448 -13.170  0.00  0.00    -0.018 C 
ATOM     12  H   UNL     1      34.035 -22.115 -15.551  0.00  0.00    +0.153 HD
ENDBRANCH   1   3
BRANCH   1  15
ATOM     13  O   UNL     1      33.819 -24.143 -19.124  0.00  0.00    -0.273 OA
ATOM     14  N   UNL     1      34.602 -22.142 -18.253  0.00  0.00    -0.301 N 
ATOM     15  C   UNL     1      33.896 -23.335 -18.201  0.00  0.00    +0.240 C 
ATOM     16  H   UNL     1      34.608 -21.556 -17.462  0.00  0.00    +0.150 HD
BRANCH  14  17
ATOM     17  C   UNL     1      35.329 -21.732 -19.430  0.00  0.00    +0.111 C 
BRANCH  17  18
ATOM     18  C   UNL     1      34.544 -20.741 -20.275  0.00  0.00    +0.109 C 
BRANCH  18  19
ATOM     19  N   UNL     1      35.404 -19.673 -20.727  0.00  0.00    -0.331 N 
ATOM     20  H   UNL     1      36.229 -19.494 -20.220  0.00  0.00    +0.147 HD
BRANCH  19  21
ATOM     21  C   UNL     1      35.133 -18.883 -21.834  0.00  0.00    +0.045 C 
ATOM     22  C   UNL     1      34.601 -19.445 -23.009  0.00  0.00    +0.017 C 
ATOM     23  C   UNL     1      35.385 -17.499 -21.812  0.00  0.00    +0.017 C 
ATOM     24  C   UNL     1      34.330 -18.651 -24.123  0.00  0.00    +0.038 C 
ATOM     25  C   UNL     1      35.114 -16.705 -22.927  0.00  0.00    +0.038 C 
ATOM     26  C   UNL     1      34.587 -17.281 -24.082  0.00  0.00    +0.139 C 
BRANCH  26  27
ATOM     27  O   UNL     1      34.321 -16.505 -25.168  0.00  0.00    -0.471 OA
ATOM     28  C   UNL     1      33.577 -15.309 -24.947  0.00  0.00    +0.252 C 
ENDBRANCH  26  27
ENDBRANCH  19  21
ENDBRANCH  18  19
ENDBRANCH  17  18
ENDBRANCH  14  17
ENDBRANCH   1  15
BRANCH   1  29
ATOM     29  C   UNL     1      31.886 -22.812 -16.806  0.00  0.00    +0.029 C 
BRANCH  29  30
ATOM     30  C   UNL     1      30.965 -23.339 -15.708  0.00  0.00    +0.002 C 
ATOM     31  C   UNL     1      31.374 -24.757 -15.290  0.00  0.00    +0.000 C 
ATOM     32  C   UNL     1      29.500 -23.307 -16.167  0.00  0.00    +0.000 C 
ATOM     33  C   UNL     1      30.434 -25.326 -14.229  0.00  0.00    +0.000 C 
ATOM     34  C   UNL     1      28.564 -23.879 -15.106  0.00  0.00    +0.000 C 
ATOM     35  C   UNL     1      28.980 -25.285 -14.686  0.00  0.00    +0.000 C 
ENDBRANCH  29  30
ENDBRANCH   1  29
TORSDOF 9
ENDMDL
MODEL 2
REMARK VINA RESULT:     -11.3      1.422      4.992
REMARK  Name = 6420159
REMARK  9 active torsions:
REMARK  status: ('A' for Active; 'I' for Inactive)
REMARK    1  A    between atoms: C_1  and  N_3
REMARK    2  A    between atoms: C_1  and  C_15
REMARK    3  A    between atoms: C_1  and  C_29
REMARK    4  A    between atoms: N_14  and  C_17
REMARK    5  A    between atoms: C_17  and  C_18
REMARK    6  A    between atoms: C_18  and  N_19
REMARK    7  A    between atoms: N_19  and  C_21
REMARK    8  A    between atoms: C_26  and  O_27
REMARK    9  A    between atoms: C_29  and  C_30
REMARK                            x       y       z     vdW  Elec       q    Type
REMARK                         _______ _______ _______ _____ _____    ______ ____
ROOT
ATOM      1  C   UNL     1      35.595 -22.786 -15.781  0.00  0.00    +0.151 C 
ENDROOT
BRANCH   1   3
ATOM      2  O   UNL     1      32.094 -23.735 -16.320  0.00  0.00    -0.414 OA
ATOM      3  N   UNL     1      34.277 -23.020 -16.333  0.00  0.00    -0.271 N 
ATOM      4  N   UNL     1      33.263 -24.030 -14.399  0.00  0.00    -0.356 NA
ATOM      5  C   UNL     1      33.243 -23.605 -15.624  0.00  0.00    +0.345 C 
ATOM      6  C   UNL     1      31.264 -24.324 -15.409  0.00  0.00    +0.175 C 
ATOM      7  C   UNL     1      31.983 -24.503 -14.236  0.00  0.00    +0.152 C 
ATOM      8  C   UNL     1      29.937 -24.693 -15.588  0.00  0.00    +0.040 C 
ATOM      9  C   UNL     1      31.347 -25.096 -13.136  0.00  0.00    +0.088 C 
ATOM     10  C   UNL     1      29.317 -25.283 -14.482  0.00  0.00    -0.001 C 
ATOM     11  C   UNL     1      30.006 -25.482 -13.279  0.00  0.00    -0.018 C 
ATOM     12  H   UNL     1      34.107 -22.748 -17.264  0.00  0.00    +0.153 HD
ENDBRANCH   1   3
BRANCH   1  15
ATOM     13  O   UNL     1      37.535 -21.576 -16.582  0.00  0.00    -0.273 OA
ATOM     14  N   UNL     1      35.843 -22.086 -18.083  0.00  0.00    -0.301 N 
ATOM     15  C   UNL     1      36.445 -22.087 -16.833  0.00  0.00    +0.240 C 
ATOM     16  H   UNL     1      34.967 -22.521 -18.190  0.00  0.00    +0.150 HD
BRANCH  14  17
ATOM     17  C   UNL     1      36.461 -21.469 -19.231  0.00  0.00    +0.111 C 
BRANCH  17  18
ATOM     18  C   UNL     1      35.436 -20.929 -20.216  0.00  0.00    +0.109 C 
BRANCH  18  19
ATOM     19  N   UNL     1      35.680 -19.531 -20.483  0.00  0.00    -0.331 N 
ATOM     20  H   UNL     1      36.158 -19.005 -19.801  0.00  0.00    +0.147 HD
BRANCH  19  21
ATOM     21  C   UNL     1      35.280 -18.888 -21.643  0.00  0.00    +0.045 C 
ATOM     22  C   UNL     1      34.731 -19.612 -22.718  0.00  0.00    +0.017 C 
ATOM     23  C   UNL     1      35.414 -17.494 -21.779  0.00  0.00    +0.017 C 
ATOM     24  C   UNL     1      34.330 -18.964 -23.887  0.00  0.00    +0.038 C 
ATOM     25  C   UNL     1      35.013 -16.846 -22.948  0.00  0.00    +0.038 C 
ATOM     26  C   UNL     1      34.471 -17.582 -24.001  0.00  0.00    +0.139 C 
BRANCH  26  27
ATOM     27  O   UNL     1      34.079 -16.949 -25.141  0.00  0.00    -0.471 OA
ATOM     28  C   UNL     1      33.809 -15.551 -25.049  0.00  0.00    +0.252 C 
ENDBRANCH  26  27
ENDBRANCH  19  21
ENDBRANCH  18  19
ENDBRANCH  17  18
ENDBRANCH  14  17
ENDBRANCH   1  15
BRANCH   1  29
ATOM     29  C   UNL     1      36.245 -24.110 -15.376  0.00  0.00    +0.029 C 
BRANCH  29  30
ATOM     30  C   UNL     1      37.171 -23.961 -14.170  0.00  0.00    +0.002 C 
ATOM     31  C   UNL     1      37.901 -25.279 -13.881  0.00  0.00    +0.000 C 
ATOM     32  C   UNL     1      36.386 -23.491 -12.938  0.00  0.00    +0.000 C 
ATOM     33  C   UNL     1      38.793 -25.171 -12.647  0.00  0.00    +0.000 C 
ATOM     34  C   UNL     1      37.280 -23.386 -11.706  0.00  0.00    +0.000 C 
ATOM     35  C   UNL     1      38.011 -24.696 -11.427  0.00  0.00    +0.000 C 
ENDBRANCH  29  30
ENDBRANCH   1  29
TORSDOF 9
ENDMDL
MODEL 3
REMARK VINA RESULT:     -10.4      1.401      5.351
REMARK  Name = 6420159
REMARK  9 active torsions:
REMARK  status: ('A' for Active; 'I' for Inactive)
REMARK    1  A    between atoms: C_1  and  N_3
REMARK    2  A    between atoms: C_1  and  C_15
REMARK    3  A    between atoms: C_1  and  C_29
REMARK    4  A    between atoms: N_14  and  C_17
REMARK    5  A    between atoms: C_17  and  C_18
REMARK    6  A    between atoms: C_18  and  N_19
REMARK    7  A    between atoms: N_19  and  C_21
REMARK    8  A    between atoms: C_26  and  O_27
REMARK    9  A    between atoms: C_29  and  C_30
REMARK                            x       y       z     vdW  Elec       q    Type
REMARK                         _______ _______ _______ _____ _____    ______ ____
ROOT
ATOM      1  C   UNL     1      35.130 -22.702 -15.338  0.00  0.00    +0.151 C 
ENDROOT
BRANCH   1   3
ATOM      2  O   UNL     1      32.393 -25.068 -14.746  0.00  0.00    -0.414 OA
ATOM      3  N   UNL     1      34.331 -23.869 -15.028  0.00  0.00    -0.271 N 
ATOM      4  N   UNL     1      32.155 -22.903 -15.374  0.00  0.00    -0.356 NA
ATOM      5  C   UNL     1      32.948 -23.882 -15.069  0.00  0.00    +0.345 C 
ATOM      6  C   UNL     1      31.057 -24.809 -14.863  0.00  0.00    +0.175 C 
ATOM      7  C   UNL     1      30.915 -23.484 -15.248  0.00  0.00    +0.152 C 
ATOM      8  C   UNL     1      30.003 -25.686 -14.645  0.00  0.00    +0.040 C 
ATOM      9  C   UNL     1      29.626 -22.967 -15.437  0.00  0.00    +0.088 C 
ATOM     10  C   UNL     1      28.723 -25.156 -14.838  0.00  0.00    -0.001 C 
ATOM     11  C   UNL     1      28.536 -23.824 -15.227  0.00  0.00    -0.018 C 
ATOM     12  H   UNL     1      34.797 -24.698 -14.775  0.00  0.00    +0.153 HD
ENDBRANCH   1   3
BRANCH   1  15
ATOM     13  O   UNL     1      36.549 -22.683 -17.301  0.00  0.00    -0.273 OA
ATOM     14  N   UNL     1      34.248 -22.671 -17.589  0.00  0.00    -0.301 N 
ATOM     15  C   UNL     1      35.411 -22.689 -16.834  0.00  0.00    +0.240 C 
ATOM     16  H   UNL     1      33.379 -22.677 -17.127  0.00  0.00    +0.150 HD
BRANCH  14  17
ATOM     17  C   UNL     1      34.271 -22.644 -19.032  0.00  0.00    +0.111 C 
BRANCH  17  18
ATOM     18  C   UNL     1      33.858 -21.290 -19.589  0.00  0.00    +0.109 C 
BRANCH  18  19
ATOM     19  N   UNL     1      35.016 -20.561 -20.050  0.00  0.00    -0.331 N 
ATOM     20  H   UNL     1      35.874 -20.713 -19.592  0.00  0.00    +0.147 HD
BRANCH  19  21
ATOM     21  C   UNL     1      34.987 -19.658 -21.101  0.00  0.00    +0.045 C 
ATOM     22  C   UNL     1      35.416 -18.329 -20.923  0.00  0.00    +0.017 C 
ATOM     23  C   UNL     1      34.528 -20.045 -22.373  0.00  0.00    +0.017 C 
ATOM     24  C   UNL     1      35.386 -17.420 -21.981  0.00  0.00    +0.038 C 
ATOM     25  C   UNL     1      34.499 -19.135 -23.431  0.00  0.00    +0.038 C 
ATOM     26  C   UNL     1      34.927 -17.823 -23.234  0.00  0.00    +0.139 C 
BRANCH  26  27
ATOM     27  O   UNL     1      34.899 -16.937 -24.267  0.00  0.00    -0.471 OA
ATOM     28  C   UNL     1      34.443 -15.616 -23.978  0.00  0.00    +0.252 C 
ENDBRANCH  26  27
ENDBRANCH  19  21
ENDBRANCH  18  19
ENDBRANCH  17  18
ENDBRANCH  14  17
ENDBRANCH   1  15
BRANCH   1  29
ATOM     29  C   UNL     1      36.445 -22.735 -14.557  0.00  0.00    +0.029 C 
BRANCH  29  30
ATOM     30  C   UNL     1      36.687 -24.081 -13.876  0.00  0.00    +0.002 C 
ATOM     31  C   UNL     1      36.916 -23.894 -12.371  0.00  0.00    +0.000 C 
ATOM     32  C   UNL     1      37.874 -24.810 -14.522  0.00  0.00    +0.000 C 
ATOM     33  C   UNL     1      37.212 -25.221 -11.676  0.00  0.00    +0.000 C 
ATOM     34  C   UNL     1      38.170 -26.135 -13.824  0.00  0.00    +0.000 C 
ATOM     35  C   UNL     1      38.387 -25.946 -12.326  0.00  0.00    +0.000 C 
ENDBRANCH  29  30
ENDBRANCH   1  29
TORSDOF 9
ENDMDL
MODEL 4
REMARK VINA RESULT:     -10.4      2.064      4.939
REMARK  Name = 6420159
REMARK  9 active torsions:
REMARK  status: ('A' for Active; 'I' for Inactive)
REMARK    1  A    between atoms: C_1  and  N_3
REMARK    2  A    between atoms: C_1  and  C_15
REMARK    3  A    between atoms: C_1  and  C_29
REMARK    4  A    between atoms: N_14  and  C_17
REMARK    5  A    between atoms: C_17  and  C_18
REMARK    6  A    between atoms: C_18  and  N_19
REMARK    7  A    between atoms: N_19  and  C_21
REMARK    8  A    between atoms: C_26  and  O_27
REMARK    9  A    between atoms: C_29  and  C_30
REMARK                            x       y       z     vdW  Elec       q    Type
REMARK                         _______ _______ _______ _____ _____    ______ ____
ROOT
ATOM      1  C   UNL     1      33.433 -21.850 -18.159  0.00  0.00    +0.151 C 
ENDROOT
BRANCH   1   3
ATOM      2  O   UNL     1      30.543 -23.731 -16.915  0.00  0.00    -0.414 OA
ATOM      3  N   UNL     1      32.162 -22.527 -18.012  0.00  0.00    -0.271 N 
ATOM      4  N   UNL     1      32.418 -23.256 -15.733  0.00  0.00    -0.356 NA
ATOM      5  C   UNL     1      31.763 -23.159 -16.847  0.00  0.00    +0.345 C 
ATOM      6  C   UNL     1      30.401 -24.268 -15.667  0.00  0.00    +0.175 C 
ATOM      7  C   UNL     1      31.550 -23.975 -14.947  0.00  0.00    +0.152 C 
ATOM      8  C   UNL     1      29.318 -24.983 -15.172  0.00  0.00    +0.040 C 
ATOM      9  C   UNL     1      31.652 -24.421 -13.622  0.00  0.00    +0.088 C 
ATOM     10  C   UNL     1      29.435 -25.421 -13.849  0.00  0.00    -0.001 C 
ATOM     11  C   UNL     1      30.578 -25.147 -13.087  0.00  0.00    -0.018 C 
ATOM     12  H   UNL     1      31.549 -22.540 -18.781  0.00  0.00    +0.153 HD
ENDBRANCH   1   3
BRANCH   1  15
ATOM     13  O   UNL     1      32.459 -20.972 -20.196  0.00  0.00    -0.273 OA
ATOM     14  N   UNL     1      34.756 -20.838 -19.913  0.00  0.00    -0.301 N 
ATOM     15  C   UNL     1      33.468 -21.176 -19.524  0.00  0.00    +0.240 C 
ATOM     16  H   UNL     1      35.506 -21.040 -19.308  0.00  0.00    +0.150 HD
BRANCH  14  17
ATOM     17  C   UNL     1      35.033 -20.199 -21.177  0.00  0.00    +0.111 C 
BRANCH  17  18
ATOM     18  C   UNL     1      36.056 -19.082 -21.045  0.00  0.00    +0.109 C 
BRANCH  18  19
ATOM     19  N   UNL     1      35.406 -17.794 -21.097  0.00  0.00    -0.331 N 
ATOM     20  H   UNL     1      35.249 -17.317 -20.250  0.00  0.00    +0.147 HD
BRANCH  19  21
ATOM     21  C   UNL     1      34.987 -17.190 -22.273  0.00  0.00    +0.045 C 
ATOM     22  C   UNL     1      34.798 -15.798 -22.342  0.00  0.00    +0.017 C 
ATOM     23  C   UNL     1      34.739 -17.954 -23.428  0.00  0.00    +0.017 C 
ATOM     24  C   UNL     1      34.375 -15.190 -23.524  0.00  0.00    +0.038 C 
ATOM     25  C   UNL     1      34.317 -17.347 -24.611  0.00  0.00    +0.038 C 
ATOM     26  C   UNL     1      34.134 -15.965 -24.659  0.00  0.00    +0.139 C 
BRANCH  26  27
ATOM     27  O   UNL     1      33.723 -15.373 -25.813  0.00  0.00    -0.471 OA
ATOM     28  C   UNL     1      33.377 -13.991 -25.747  0.00  0.00    +0.252 C 
ENDBRANCH  26  27
ENDBRANCH  19  21
ENDBRANCH  18  19
ENDBRANCH  17  18
ENDBRANCH  14  17
ENDBRANCH   1  15
BRANCH   1  29
ATOM     29  C   UNL     1      34.586 -22.848 -18.037  0.00  0.00    +0.029 C 
BRANCH  29  30
ATOM     30  C   UNL     1      35.423 -22.624 -16.780  0.00  0.00    +0.002 C 
ATOM     31  C   UNL     1      36.854 -22.211 -17.147  0.00  0.00    +0.000 C 
ATOM     32  C   UNL     1      35.427 -23.880 -15.899  0.00  0.00    +0.000 C 
ATOM     33  C   UNL     1      37.726 -22.031 -15.906  0.00  0.00    +0.000 C 
ATOM     34  C   UNL     1      36.301 -23.699 -14.661  0.00  0.00    +0.000 C 
ATOM     35  C   UNL     1      37.720 -23.280 -15.030  0.00  0.00    +0.000 C 
ENDBRANCH  29  30
ENDBRANCH   1  29
TORSDOF 9
ENDMDL
MODEL 5
REMARK VINA RESULT:     -10.0     10.365     15.076
REMARK  Name = 6420159
REMARK  9 active torsions:
REMARK  status: ('A' for Active; 'I' for Inactive)
REMARK    1  A    between atoms: C_1  and  N_3
REMARK    2  A    between atoms: C_1  and  C_15
REMARK    3  A    between atoms: C_1  and  C_29
REMARK    4  A    between atoms: N_14  and  C_17
REMARK    5  A    between atoms: C_17  and  C_18
REMARK    6  A    between atoms: C_18  and  N_19
REMARK    7  A    between atoms: N_19  and  C_21
REMARK    8  A    between atoms: C_26  and  O_27
REMARK    9  A    between atoms: C_29  and  C_30
REMARK                            x       y       z     vdW  Elec       q    Type
REMARK                         _______ _______ _______ _____ _____    ______ ____
ROOT
ATOM      1  C   UNL     1      31.928 -12.190 -22.252  0.00  0.00    +0.151 C 
ENDROOT
BRANCH   1   3
ATOM      2  O   UNL     1      31.835  -8.901 -23.870  0.00  0.00    -0.414 OA
ATOM      3  N   UNL     1      31.536 -10.985 -22.952  0.00  0.00    -0.271 N 
ATOM      4  N   UNL     1      33.647  -9.834 -22.877  0.00  0.00    -0.356 NA
ATOM      5  C   UNL     1      32.397  -9.932 -23.204  0.00  0.00    +0.345 C 
ATOM      6  C   UNL     1      32.876  -8.023 -23.983  0.00  0.00    +0.175 C 
ATOM      7  C   UNL     1      33.982  -8.598 -23.375  0.00  0.00    +0.152 C 
ATOM      8  C   UNL     1      32.867  -6.774 -24.590  0.00  0.00    +0.040 C 
ATOM      9  C   UNL     1      35.191  -7.887 -23.357  0.00  0.00    +0.088 C 
ATOM     10  C   UNL     1      34.080  -6.078 -24.564  0.00  0.00    -0.001 C 
ATOM     11  C   UNL     1      35.220  -6.622 -23.960  0.00  0.00    -0.018 C 
ATOM     12  H   UNL     1      30.606 -10.911 -23.266  0.00  0.00    +0.153 HD
ENDBRANCH   1   3
BRANCH   1  15
ATOM     13  O   UNL     1      32.329 -12.702 -19.919  0.00  0.00    -0.273 OA
ATOM     14  N   UNL     1      31.286 -10.702 -20.457  0.00  0.00    -0.301 N 
ATOM     15  C   UNL     1      31.886 -11.917 -20.755  0.00  0.00    +0.240 C 
ATOM     16  H   UNL     1      30.961 -10.137 -21.194  0.00  0.00    +0.150 HD
BRANCH  14  17
ATOM     17  C   UNL     1      31.126 -10.240 -19.099  0.00  0.00    +0.111 C 
BRANCH  17  18
ATOM     18  C   UNL     1      31.985  -9.021 -18.801  0.00  0.00    +0.109 C 
BRANCH  18  19
ATOM     19  N   UNL     1      32.543  -8.487 -20.020  0.00  0.00    -0.331 N 
ATOM     20  H   UNL     1      33.247  -9.005 -20.475  0.00  0.00    +0.147 HD
BRANCH  19  21
ATOM     21  C   UNL     1      32.146  -7.287 -20.588  0.00  0.00    +0.045 C 
ATOM     22  C   UNL     1      30.842  -7.123 -21.090  0.00  0.00    +0.017 C 
ATOM     23  C   UNL     1      33.036  -6.201 -20.678  0.00  0.00    +0.017 C 
ATOM     24  C   UNL     1      30.442  -5.915 -21.662  0.00  0.00    +0.038 C 
ATOM     25  C   UNL     1      32.637  -4.994 -21.251  0.00  0.00    +0.038 C 
ATOM     26  C   UNL     1      31.340  -4.851 -21.743  0.00  0.00    +0.139 C 
BRANCH  26  27
ATOM     27  O   UNL     1      30.950  -3.672 -22.300  0.00  0.00    -0.471 OA
ATOM     28  C   UNL     1      31.584  -2.486 -21.823  0.00  0.00    +0.252 C 
ENDBRANCH  26  27
ENDBRANCH  19  21
ENDBRANCH  18  19
ENDBRANCH  17  18
ENDBRANCH  14  17
ENDBRANCH   1  15
BRANCH   1  29
ATOM     29  C   UNL     1      33.338 -12.613 -22.670  0.00  0.00    +0.029 C 
BRANCH  29  30
ATOM     30  C   UNL     1      33.415 -14.089 -23.054  0.00  0.00    +0.002 C 
ATOM     31  C   UNL     1      34.637 -14.754 -22.407  0.00  0.00    +0.000 C 
ATOM     32  C   UNL     1      33.449 -14.251 -24.580  0.00  0.00    +0.000 C 
ATOM     33  C   UNL     1      34.766 -16.219 -22.819  0.00  0.00    +0.000 C 
ATOM     34  C   UNL     1      33.581 -15.716 -24.988  0.00  0.00    +0.000 C 
ATOM     35  C   UNL     1      34.792 -16.376 -24.336  0.00  0.00    +0.000 C 
ENDBRANCH  29  30
ENDBRANCH   1  29
TORSDOF 9
ENDMDL
MODEL 6
REMARK VINA RESULT:      -9.7      9.846     14.158
REMARK  Name = 6420159
REMARK  9 active torsions:
REMARK  status: ('A' for Active; 'I' for Inactive)
REMARK    1  A    between atoms: C_1  and  N_3
REMARK    2  A    between atoms: C_1  and  C_15
REMARK    3  A    between atoms: C_1  and  C_29
REMARK    4  A    between atoms: N_14  and  C_17
REMARK    5  A    between atoms: C_17  and  C_18
REMARK    6  A    between atoms: C_18  and  N_19
REMARK    7  A    between atoms: N_19  and  C_21
REMARK    8  A    between atoms: C_26  and  O_27
REMARK    9  A    between atoms: C_29  and  C_30
REMARK                            x       y       z     vdW  Elec       q    Type
REMARK                         _______ _______ _______ _____ _____    ______ ____
ROOT
ATOM      1  C   UNL     1      32.445 -11.045 -23.304  0.00  0.00    +0.151 C 
ENDROOT
BRANCH   1   3
ATOM      2  O   UNL     1      34.482 -13.938 -22.342  0.00  0.00    -0.414 OA
ATOM      3  N   UNL     1      33.361 -11.957 -22.653  0.00  0.00    -0.271 N 
ATOM      4  N   UNL     1      33.057 -13.852 -24.104  0.00  0.00    -0.356 NA
ATOM      5  C   UNL     1      33.591 -13.251 -23.088  0.00  0.00    +0.345 C 
ATOM      6  C   UNL     1      34.521 -15.148 -22.973  0.00  0.00    +0.175 C 
ATOM      7  C   UNL     1      33.648 -15.092 -24.050  0.00  0.00    +0.152 C 
ATOM      8  C   UNL     1      35.282 -16.258 -22.629  0.00  0.00    +0.040 C 
ATOM      9  C   UNL     1      33.506 -16.223 -24.867  0.00  0.00    +0.088 C 
ATOM     10  C   UNL     1      35.129 -17.378 -23.453  0.00  0.00    -0.001 C 
ATOM     11  C   UNL     1      34.259 -17.363 -24.551  0.00  0.00    -0.018 C 
ATOM     12  H   UNL     1      33.846 -11.640 -21.858  0.00  0.00    +0.153 HD
ENDBRANCH   1   3
BRANCH   1  15
ATOM     13  O   UNL     1      32.691  -8.855 -24.309  0.00  0.00    -0.273 OA
ATOM     14  N   UNL     1      34.575  -9.911 -23.466  0.00  0.00    -0.301 N 
ATOM     15  C   UNL     1      33.221  -9.813 -23.751  0.00  0.00    +0.240 C 
ATOM     16  H   UNL     1      34.910 -10.719 -23.015  0.00  0.00    +0.150 HD
BRANCH  14  17
ATOM     17  C   UNL     1      35.508  -8.865 -23.810  0.00  0.00    +0.111 C 
BRANCH  17  18
ATOM     18  C   UNL     1      35.246  -7.583 -23.036  0.00  0.00    +0.109 C 
BRANCH  18  19
ATOM     19  N   UNL     1      34.977  -6.493 -23.943  0.00  0.00    -0.331 N 
ATOM     20  H   UNL     1      35.647  -6.287 -24.634  0.00  0.00    +0.147 HD
BRANCH  19  21
ATOM     21  C   UNL     1      33.828  -5.719 -23.897  0.00  0.00    +0.045 C 
ATOM     22  C   UNL     1      33.494  -4.858 -24.960  0.00  0.00    +0.017 C 
ATOM     23  C   UNL     1      32.966  -5.771 -22.787  0.00  0.00    +0.017 C 
ATOM     24  C   UNL     1      32.338  -4.078 -24.913  0.00  0.00    +0.038 C 
ATOM     25  C   UNL     1      31.810  -4.991 -22.740  0.00  0.00    +0.038 C 
ATOM     26  C   UNL     1      31.497  -4.145 -23.802  0.00  0.00    +0.139 C 
BRANCH  26  27
ATOM     27  O   UNL     1      30.368  -3.385 -23.756  0.00  0.00    -0.471 OA
ATOM     28  C   UNL     1      30.188  -2.426 -24.797  0.00  0.00    +0.252 C 
ENDBRANCH  26  27
ENDBRANCH  19  21
ENDBRANCH  18  19
ENDBRANCH  17  18
ENDBRANCH  14  17
ENDBRANCH   1  15
BRANCH   1  29
ATOM     29  C   UNL     1      31.324 -10.640 -22.345  0.00  0.00    +0.029 C 
BRANCH  29  30
ATOM     30  C   UNL     1      31.856 -10.129 -21.008  0.00  0.00    +0.002 C 
ATOM     31  C   UNL     1      31.171 -10.851 -19.840  0.00  0.00    +0.000 C 
ATOM     32  C   UNL     1      31.669  -8.610 -20.895  0.00  0.00    +0.000 C 
ATOM     33  C   UNL     1      31.648 -10.319 -18.490  0.00  0.00    +0.000 C 
ATOM     34  C   UNL     1      32.145  -8.082 -19.544  0.00  0.00    +0.000 C 
ATOM     35  C   UNL     1      31.468  -8.808 -18.386  0.00  0.00    +0.000 C 
ENDBRANCH  29  30
ENDBRANCH   1  29
TORSDOF 9
ENDMDL
MODEL 7
REMARK VINA RESULT:      -9.6      6.390     13.809
REMARK  Name = 6420159
REMARK  9 active torsions:
REMARK  status: ('A' for Active; 'I' for Inactive)
REMARK    1  A    between atoms: C_1  and  N_3
REMARK    2  A    between atoms: C_1  and  C_15
REMARK    3  A    between atoms: C_1  and  C_29
REMARK    4  A    between atoms: N_14  and  C_17
REMARK    5  A    between atoms: C_17  and  C_18
REMARK    6  A    between atoms: C_18  and  N_19
REMARK    7  A    between atoms: N_19  and  C_21
REMARK    8  A    between atoms: C_26  and  O_27
REMARK    9  A    between atoms: C_29  and  C_30
REMARK                            x       y       z     vdW  Elec       q    Type
REMARK                         _______ _______ _______ _____ _____    ______ ____
ROOT
ATOM      1  C   UNL     1      32.944 -12.173 -22.523  0.00  0.00    +0.151 C 
ENDROOT
BRANCH   1   3
ATOM      2  O   UNL     1      31.975  -9.113 -24.293  0.00  0.00    -0.414 OA
ATOM      3  N   UNL     1      32.438 -11.208 -23.476  0.00  0.00    -0.271 N 
ATOM      4  N   UNL     1      33.001  -9.202 -22.273  0.00  0.00    -0.356 NA
ATOM      5  C   UNL     1      32.503  -9.839 -23.286  0.00  0.00    +0.345 C 
ATOM      6  C   UNL     1      32.164  -7.831 -23.861  0.00  0.00    +0.175 C 
ATOM      7  C   UNL     1      32.792  -7.890 -22.625  0.00  0.00    +0.152 C 
ATOM      8  C   UNL     1      31.807  -6.657 -24.512  0.00  0.00    +0.040 C 
ATOM      9  C   UNL     1      33.100  -6.692 -21.964  0.00  0.00    +0.088 C 
ATOM     10  C   UNL     1      32.121  -5.471 -23.839  0.00  0.00    -0.001 C 
ATOM     11  C   UNL     1      32.754  -5.486 -22.590  0.00  0.00    -0.018 C 
ATOM     12  H   UNL     1      32.026 -11.545 -24.304  0.00  0.00    +0.153 HD
ENDBRANCH   1   3
BRANCH   1  15
ATOM     13  O   UNL     1      34.747 -13.764 -22.815  0.00  0.00    -0.273 OA
ATOM     14  N   UNL     1      33.209 -13.497 -24.529  0.00  0.00    -0.301 N 
ATOM     15  C   UNL     1      33.741 -13.229 -23.277  0.00  0.00    +0.240 C 
ATOM     16  H   UNL     1      32.398 -13.019 -24.815  0.00  0.00    +0.150 HD
BRANCH  14  17
ATOM     17  C   UNL     1      33.807 -14.456 -25.427  0.00  0.00    +0.111 C 
BRANCH  17  18
ATOM     18  C   UNL     1      33.606 -15.888 -24.956  0.00  0.00    +0.109 C 
BRANCH  18  19
ATOM     19  N   UNL     1      34.839 -16.423 -24.429  0.00  0.00    -0.331 N 
ATOM     20  H   UNL     1      35.686 -16.107 -24.818  0.00  0.00    +0.147 HD
BRANCH  19  21
ATOM     21  C   UNL     1      34.898 -17.357 -23.406  0.00  0.00    +0.045 C 
ATOM     22  C   UNL     1      34.496 -18.689 -23.621  0.00  0.00    +0.017 C 
ATOM     23  C   UNL     1      35.359 -16.999 -22.127  0.00  0.00    +0.017 C 
ATOM     24  C   UNL     1      34.554 -19.629 -22.591  0.00  0.00    +0.038 C 
ATOM     25  C   UNL     1      35.417 -17.938 -21.097  0.00  0.00    +0.038 C 
ATOM     26  C   UNL     1      35.014 -19.253 -21.330  0.00  0.00    +0.139 C 
BRANCH  26  27
ATOM     27  O   UNL     1      35.072 -20.170 -20.325  0.00  0.00    -0.471 OA
ATOM     28  C   UNL     1      33.858 -20.835 -19.981  0.00  0.00    +0.252 C 
ENDBRANCH  26  27
ENDBRANCH  19  21
ENDBRANCH  18  19
ENDBRANCH  17  18
ENDBRANCH  14  17
ENDBRANCH   1  15
BRANCH   1  29
ATOM     29  C   UNL     1      31.788 -12.830 -21.765  0.00  0.00    +0.029 C 
BRANCH  29  30
ATOM     30  C   UNL     1      31.466 -12.113 -20.456  0.00  0.00    +0.002 C 
ATOM     31  C   UNL     1      30.480 -10.962 -20.696  0.00  0.00    +0.000 C 
ATOM     32  C   UNL     1      32.750 -11.602 -19.787  0.00  0.00    +0.000 C 
ATOM     33  C   UNL     1      30.183 -10.197 -19.408  0.00  0.00    +0.000 C 
ATOM     34  C   UNL     1      32.449 -10.835 -18.502  0.00  0.00    +0.000 C 
ATOM     35  C   UNL     1      31.462  -9.697 -18.743  0.00  0.00    +0.000 C 
ENDBRANCH  29  30
ENDBRANCH   1  29
TORSDOF 9
ENDMDL
MODEL 8
REMARK VINA RESULT:      -9.6      8.823     17.193
REMARK  Name = 6420159
REMARK  9 active torsions:
REMARK  status: ('A' for Active; 'I' for Inactive)
REMARK    1  A    between atoms: C_1  and  N_3
REMARK    2  A    between atoms: C_1  and  C_15
REMARK    3  A    between atoms: C_1  and  C_29
REMARK    4  A    between atoms: N_14  and  C_17
REMARK    5  A    between atoms: C_17  and  C_18
REMARK    6  A    between atoms: C_18  and  N_19
REMARK    7  A    between atoms: N_19  and  C_21
REMARK    8  A    between atoms: C_26  and  O_27
REMARK    9  A    between atoms: C_29  and  C_30
REMARK                            x       y       z     vdW  Elec       q    Type
REMARK                         _______ _______ _______ _____ _____    ______ ____
ROOT
ATOM      1  C   UNL     1      32.913  -8.297 -23.245  0.00  0.00    +0.151 C 
ENDROOT
BRANCH   1   3
ATOM      2  O   UNL     1      32.012  -5.206 -21.493  0.00  0.00    -0.414 OA
ATOM      3  N   UNL     1      32.659  -7.274 -22.253  0.00  0.00    -0.271 N 
ATOM      4  N   UNL     1      31.887  -5.540 -23.732  0.00  0.00    -0.356 NA
ATOM      5  C   UNL     1      32.180  -6.013 -22.561  0.00  0.00    +0.345 C 
ATOM      6  C   UNL     1      31.544  -4.057 -22.064  0.00  0.00    +0.175 C 
ATOM      7  C   UNL     1      31.468  -4.265 -23.434  0.00  0.00    +0.152 C 
ATOM      8  C   UNL     1      31.195  -2.874 -21.424  0.00  0.00    +0.040 C 
ATOM      9  C   UNL     1      31.011  -3.224 -24.254  0.00  0.00    +0.088 C 
ATOM     10  C   UNL     1      30.741  -1.845 -22.256  0.00  0.00    -0.001 C 
ATOM     11  C   UNL     1      30.650  -2.014 -23.643  0.00  0.00    -0.018 C 
ATOM     12  H   UNL     1      32.838  -7.486 -21.309  0.00  0.00    +0.153 HD
ENDBRANCH   1   3
BRANCH   1  15
ATOM     13  O   UNL     1      31.533  -9.715 -21.847  0.00  0.00    -0.273 OA
ATOM     14  N   UNL     1      33.047 -10.712 -23.293  0.00  0.00    -0.301 N 
ATOM     15  C   UNL     1      32.406  -9.629 -22.709  0.00  0.00    +0.240 C 
ATOM     16  H   UNL     1      33.734 -10.546 -23.977  0.00  0.00    +0.150 HD
BRANCH  14  17
ATOM     17  C   UNL     1      32.736 -12.073 -22.931  0.00  0.00    +0.111 C 
BRANCH  17  18
ATOM     18  C   UNL     1      33.978 -12.948 -22.860  0.00  0.00    +0.109 C 
BRANCH  18  19
ATOM     19  N   UNL     1      33.933 -13.971 -23.878  0.00  0.00    -0.331 N 
ATOM     20  H   UNL     1      33.652 -13.712 -24.785  0.00  0.00    +0.147 HD
BRANCH  19  21
ATOM     21  C   UNL     1      34.261 -15.298 -23.650  0.00  0.00    +0.045 C 
ATOM     22  C   UNL     1      33.997 -16.284 -24.619  0.00  0.00    +0.017 C 
ATOM     23  C   UNL     1      34.864 -15.696 -22.443  0.00  0.00    +0.017 C 
ATOM     24  C   UNL     1      34.326 -17.620 -24.389  0.00  0.00    +0.038 C 
ATOM     25  C   UNL     1      35.193 -17.032 -22.213  0.00  0.00    +0.038 C 
ATOM     26  C   UNL     1      34.924 -17.994 -23.185  0.00  0.00    +0.139 C 
BRANCH  26  27
ATOM     27  O   UNL     1      35.246 -19.297 -22.961  0.00  0.00    -0.471 OA
ATOM     28  C   UNL     1      34.789 -19.879 -21.742  0.00  0.00    +0.252 C 
ENDBRANCH  26  27
ENDBRANCH  19  21
ENDBRANCH  18  19
ENDBRANCH  17  18
ENDBRANCH  14  17
ENDBRANCH   1  15
BRANCH   1  29
ATOM     29  C   UNL     1      34.411  -8.389 -23.544  0.00  0.00    +0.029 C 
BRANCH  29  30
ATOM     30  C   UNL     1      34.808  -7.590 -24.784  0.00  0.00    +0.002 C 
ATOM     31  C   UNL     1      35.353  -6.211 -24.388  0.00  0.00    +0.000 C 
ATOM     32  C   UNL     1      33.620  -7.452 -25.745  0.00  0.00    +0.000 C 
ATOM     33  C   UNL     1      35.708  -5.372 -25.614  0.00  0.00    +0.000 C 
ATOM     34  C   UNL     1      33.978  -6.612 -26.968  0.00  0.00    +0.000 C 
ATOM     35  C   UNL     1      34.527  -5.245 -26.571  0.00  0.00    +0.000 C 
ENDBRANCH  29  30
ENDBRANCH   1  29
TORSDOF 9
ENDMDL
MODEL 9
REMARK VINA RESULT:      -9.5      8.251     16.019
REMARK  Name = 6420159
REMARK  9 active torsions:
REMARK  status: ('A' for Active; 'I' for Inactive)
REMARK    1  A    between atoms: C_1  and  N_3
REMARK    2  A    between atoms: C_1  and  C_15
REMARK    3  A    between atoms: C_1  and  C_29
REMARK    4  A    between atoms: N_14  and  C_17
REMARK    5  A    between atoms: C_17  and  C_18
REMARK    6  A    between atoms: C_18  and  N_19
REMARK    7  A    between atoms: N_19  and  C_21
REMARK    8  A    between atoms: C_26  and  O_27
REMARK    9  A    between atoms: C_29  and  C_30
REMARK                            x       y       z     vdW  Elec       q    Type
REMARK                         _______ _______ _______ _____ _____    ______ ____
ROOT
ATOM      1  C   UNL     1      33.107  -8.730 -23.094  0.00  0.00    +0.151 C 
ENDROOT
BRANCH   1   3
ATOM      2  O   UNL     1      32.789  -5.782 -25.250  0.00  0.00    -0.414 OA
ATOM      3  N   UNL     1      33.075  -7.810 -24.212  0.00  0.00    -0.271 N 
ATOM      4  N   UNL     1      32.458  -5.821 -23.008  0.00  0.00    -0.356 NA
ATOM      5  C   UNL     1      32.764  -6.468 -24.088  0.00  0.00    +0.345 C 
ATOM      6  C   UNL     1      32.454  -4.519 -24.853  0.00  0.00    +0.175 C 
ATOM      7  C   UNL     1      32.252  -4.547 -23.480  0.00  0.00    +0.152 C 
ATOM      8  C   UNL     1      32.327  -3.387 -25.648  0.00  0.00    +0.040 C 
ATOM      9  C   UNL     1      31.893  -3.361 -22.824  0.00  0.00    +0.088 C 
ATOM     10  C   UNL     1      31.969  -2.212 -24.978  0.00  0.00    -0.001 C 
ATOM     11  C   UNL     1      31.756  -2.197 -23.594  0.00  0.00    -0.018 C 
ATOM     12  H   UNL     1      33.287  -8.159 -25.107  0.00  0.00    +0.153 HD
ENDBRANCH   1   3
BRANCH   1  15
ATOM     13  O   UNL     1      35.284  -9.653 -23.619  0.00  0.00    -0.273 OA
ATOM     14  N   UNL     1      33.474 -11.093 -23.460  0.00  0.00    -0.301 N 
ATOM     15  C   UNL     1      34.088  -9.850 -23.415  0.00  0.00    +0.240 C 
ATOM     16  H   UNL     1      32.508 -11.154 -23.282  0.00  0.00    +0.150 HD
BRANCH  14  17
ATOM     17  C   UNL     1      34.207 -12.300 -23.758  0.00  0.00    +0.111 C 
BRANCH  17  18
ATOM     18  C   UNL     1      33.394 -13.552 -23.470  0.00  0.00    +0.109 C 
BRANCH  18  19
ATOM     19  N   UNL     1      34.078 -14.722 -23.967  0.00  0.00    -0.331 N 
ATOM     20  H   UNL     1      34.255 -14.781 -24.934  0.00  0.00    +0.147 HD
BRANCH  19  21
ATOM     21  C   UNL     1      34.499 -15.768 -23.161  0.00  0.00    +0.045 C 
ATOM     22  C   UNL     1      34.783 -17.033 -23.709  0.00  0.00    +0.017 C 
ATOM     23  C   UNL     1      34.652 -15.594 -21.773  0.00  0.00    +0.017 C 
ATOM     24  C   UNL     1      35.206 -18.086 -22.898  0.00  0.00    +0.038 C 
ATOM     25  C   UNL     1      35.074 -16.647 -20.962  0.00  0.00    +0.038 C 
ATOM     26  C   UNL     1      35.351 -17.893 -21.524  0.00  0.00    +0.139 C 
BRANCH  26  27
ATOM     27  O   UNL     1      35.764 -18.920 -20.732  0.00  0.00    -0.471 OA
ATOM     28  C   UNL     1      34.998 -20.122 -20.774  0.00  0.00    +0.252 C 
ENDBRANCH  26  27
ENDBRANCH  19  21
ENDBRANCH  18  19
ENDBRANCH  17  18
ENDBRANCH  14  17
ENDBRANCH   1  15
BRANCH   1  29
ATOM     29  C   UNL     1      31.714  -9.310 -22.842  0.00  0.00    +0.029 C 
BRANCH  29  30
ATOM     30  C   UNL     1      31.324  -9.272 -21.366  0.00  0.00    +0.002 C 
ATOM     31  C   UNL     1      32.291  -8.384 -20.572  0.00  0.00    +0.000 C 
ATOM     32  C   UNL     1      31.278 -10.690 -20.780  0.00  0.00    +0.000 C 
ATOM     33  C   UNL     1      31.953  -8.372 -19.083  0.00  0.00    +0.000 C 
ATOM     34  C   UNL     1      30.943 -10.674 -19.291  0.00  0.00    +0.000 C 
ATOM     35  C   UNL     1      31.901  -9.783 -18.507  0.00  0.00    +0.000 C 
ENDBRANCH  29  30
ENDBRANCH   1  29
TORSDOF 9
ENDMDL
