MODEL 1
REMARK VINA RESULT:     -12.1      0.000      0.000
REMARK  Name = 11610553
REMARK  5 active torsions:
REMARK  status: ('A' for Active; 'I' for Inactive)
REMARK    1  A    between atoms: C_1  and  C_9
REMARK    2  A    between atoms: C_4  and  O_19
REMARK    3  A    between atoms: C_10  and  C_14
REMARK    4  A    between atoms: O_19  and  C_20
REMARK    5  A    between atoms: C_20  and  C_22
REMARK                            x       y       z     vdW  Elec       q    Type
REMARK                         _______ _______ _______ _____ _____    ______ ____
ROOT
ATOM      1  C   UNL     1      34.571 -23.108 -16.201  0.00  0.00    +0.015 C 
ATOM      2  C   UNL     1      35.847 -22.563 -16.343  0.00  0.00    +0.004 C 
ATOM      3  C   UNL     1      33.706 -23.154 -17.293  0.00  0.00    +0.004 C 
ATOM      4  C   UNL     1      35.389 -22.112 -18.664  0.00  0.00    +0.139 C 
ATOM      5  C   UNL     1      36.257 -22.063 -17.580  0.00  0.00    +0.037 C 
ATOM      6  C   UNL     1      34.115 -22.655 -18.529  0.00  0.00    +0.037 C 
ENDROOT
BRANCH   1   9
ATOM      7  N   UNL     1      32.971 -23.250 -14.341  0.00  0.00    -0.236 N 
ATOM      8  N   UNL     1      32.742 -23.833 -13.153  0.00  0.00    -0.180 NA
ATOM      9  C   UNL     1      34.147 -23.625 -14.922  0.00  0.00    +0.067 C 
ATOM     10  C   UNL     1      34.728 -24.516 -14.051  0.00  0.00    +0.036 C 
ATOM     11  C   UNL     1      33.818 -24.605 -12.981  0.00  0.00    +0.119 C 
ATOM     12  H   UNL     1      32.347 -22.611 -14.756  0.00  0.00    +0.174 HD
BRANCH  10  14
ATOM     13  N   UNL     1      38.444 -26.445 -14.662  0.00  0.00    -0.242 NA
ATOM     14  C   UNL     1      35.985 -25.168 -14.259  0.00  0.00    +0.006 C 
ATOM     15  C   UNL     1      37.172 -24.538 -13.892  0.00  0.00    +0.021 C 
ATOM     16  C   UNL     1      36.032 -26.438 -14.827  0.00  0.00    +0.021 C 
ATOM     17  C   UNL     1      38.362 -25.211 -14.113  0.00  0.00    +0.099 C 
ATOM     18  C   UNL     1      37.274 -27.027 -15.007  0.00  0.00    +0.099 C 
ENDBRANCH  10  14
ENDBRANCH   1   9
BRANCH   4  19
ATOM     19  O   UNL     1      35.791 -21.621 -19.878  0.00  0.00    -0.468 OA
BRANCH  19  20
ATOM     20  C   UNL     1      36.268 -20.282 -19.902  0.00  0.00    +0.264 C 
BRANCH  20  22
ATOM     21  N   UNL     1      35.712 -18.233 -21.064  0.00  0.00    -0.406 NA
ATOM     22  C   UNL     1      35.729 -19.585 -21.106  0.00  0.00    +0.152 C 
ATOM     23  C   UNL     1      34.750 -18.244 -23.274  0.00  0.00    +0.026 C 
ATOM     24  C   UNL     1      35.230 -17.569 -22.132  0.00  0.00    +0.113 C 
ATOM     25  C   UNL     1      35.281 -20.331 -22.177  0.00  0.00    +0.031 C 
ATOM     26  C   UNL     1      34.785 -19.644 -23.275  0.00  0.00    +0.005 C 
ATOM     27  C   UNL     1      34.254 -17.518 -24.370  0.00  0.00    +0.002 C 
ATOM     28  C   UNL     1      35.196 -16.177 -22.132  0.00  0.00    +0.085 C 
ATOM     29  C   UNL     1      34.231 -16.127 -24.343  0.00  0.00    -0.004 C 
ATOM     30  C   UNL     1      34.702 -15.456 -23.222  0.00  0.00    -0.019 C 
ENDBRANCH  20  22
ENDBRANCH  19  20
ENDBRANCH   4  19
TORSDOF 5
ENDMDL
MODEL 2
REMARK VINA RESULT:     -11.3      1.808      3.445
REMARK  Name = 11610553
REMARK  5 active torsions:
REMARK  status: ('A' for Active; 'I' for Inactive)
REMARK    1  A    between atoms: C_1  and  C_9
REMARK    2  A    between atoms: C_4  and  O_19
REMARK    3  A    between atoms: C_10  and  C_14
REMARK    4  A    between atoms: O_19  and  C_20
REMARK    5  A    between atoms: C_20  and  C_22
REMARK                            x       y       z     vdW  Elec       q    Type
REMARK                         _______ _______ _______ _____ _____    ______ ____
ROOT
ATOM      1  C   UNL     1      34.576 -23.249 -16.228  0.00  0.00    +0.015 C 
ATOM      2  C   UNL     1      35.761 -22.629 -16.623  0.00  0.00    +0.004 C 
ATOM      3  C   UNL     1      33.480 -23.275 -17.091  0.00  0.00    +0.004 C 
ATOM      4  C   UNL     1      34.753 -22.062 -18.736  0.00  0.00    +0.139 C 
ATOM      5  C   UNL     1      35.849 -22.033 -17.881  0.00  0.00    +0.037 C 
ATOM      6  C   UNL     1      33.569 -22.680 -18.348  0.00  0.00    +0.037 C 
ENDROOT
BRANCH   1   9
ATOM      7  N   UNL     1      35.590 -24.237 -14.219  0.00  0.00    -0.236 N 
ATOM      8  N   UNL     1      35.311 -24.793 -13.028  0.00  0.00    -0.180 NA
ATOM      9  C   UNL     1      34.483 -23.865 -14.926  0.00  0.00    +0.067 C 
ATOM     10  C   UNL     1      33.406 -24.202 -14.142  0.00  0.00    +0.036 C 
ATOM     11  C   UNL     1      33.976 -24.770 -12.987  0.00  0.00    +0.119 C 
ATOM     12  H   UNL     1      36.507 -24.108 -14.551  0.00  0.00    +0.174 HD
BRANCH  10  14
ATOM     13  N   UNL     1      29.352 -23.579 -15.179  0.00  0.00    -0.242 NA
ATOM     14  C   UNL     1      32.035 -23.991 -14.494  0.00  0.00    +0.006 C 
ATOM     15  C   UNL     1      31.285 -25.025 -15.047  0.00  0.00    +0.021 C 
ATOM     16  C   UNL     1      31.439 -22.750 -14.284  0.00  0.00    +0.021 C 
ATOM     17  C   UNL     1      29.962 -24.771 -15.370  0.00  0.00    +0.099 C 
ATOM     18  C   UNL     1      30.109 -22.597 -14.641  0.00  0.00    +0.099 C 
ENDBRANCH  10  14
ENDBRANCH   1   9
BRANCH   4  19
ATOM     19  O   UNL     1      34.841 -21.477 -19.971  0.00  0.00    -0.468 OA
BRANCH  19  20
ATOM     20  C   UNL     1      35.770 -20.411 -20.112  0.00  0.00    +0.264 C 
BRANCH  20  22
ATOM     21  N   UNL     1      35.377 -18.226 -21.076  0.00  0.00    -0.406 NA
ATOM     22  C   UNL     1      35.380 -19.563 -21.276  0.00  0.00    +0.152 C 
ATOM     23  C   UNL     1      34.672 -17.952 -23.364  0.00  0.00    +0.026 C 
ATOM     24  C   UNL     1      35.029 -17.428 -22.103  0.00  0.00    +0.113 C 
ATOM     25  C   UNL     1      35.047 -20.167 -22.472  0.00  0.00    +0.031 C 
ATOM     26  C   UNL     1      34.688 -19.343 -23.529  0.00  0.00    +0.005 C 
ATOM     27  C   UNL     1      34.314 -17.090 -24.415  0.00  0.00    +0.002 C 
ATOM     28  C   UNL     1      35.013 -16.046 -21.941  0.00  0.00    +0.085 C 
ATOM     29  C   UNL     1      34.307 -15.712 -24.224  0.00  0.00    -0.004 C 
ATOM     30  C   UNL     1      34.657 -15.189 -22.986  0.00  0.00    -0.019 C 
ENDBRANCH  20  22
ENDBRANCH  19  20
ENDBRANCH   4  19
TORSDOF 5
ENDMDL
MODEL 3
REMARK VINA RESULT:     -11.2      9.530     15.732
REMARK  Name = 11610553
REMARK  5 active torsions:
REMARK  status: ('A' for Active; 'I' for Inactive)
REMARK    1  A    between atoms: C_1  and  C_9
REMARK    2  A    between atoms: C_4  and  O_19
REMARK    3  A    between atoms: C_10  and  C_14
REMARK    4  A    between atoms: O_19  and  C_20
REMARK    5  A    between atoms: C_20  and  C_22
REMARK                            x       y       z     vdW  Elec       q    Type
REMARK                         _______ _______ _______ _____ _____    ______ ____
ROOT
ATOM      1  C   UNL     1      31.704  -7.041 -21.722  0.00  0.00    +0.015 C 
ATOM      2  C   UNL     1      31.268  -8.122 -22.488  0.00  0.00    +0.004 C 
ATOM      3  C   UNL     1      32.230  -7.255 -20.448  0.00  0.00    +0.004 C 
ATOM      4  C   UNL     1      31.881  -9.623 -20.708  0.00  0.00    +0.139 C 
ATOM      5  C   UNL     1      31.356  -9.418 -21.978  0.00  0.00    +0.037 C 
ATOM      6  C   UNL     1      32.319  -8.550 -19.939  0.00  0.00    +0.037 C 
ENDROOT
BRANCH   1   9
ATOM      7  N   UNL     1      30.796  -4.758 -21.695  0.00  0.00    -0.236 N 
ATOM      8  N   UNL     1      30.841  -3.568 -22.318  0.00  0.00    -0.180 NA
ATOM      9  C   UNL     1      31.612  -5.701 -22.249  0.00  0.00    +0.067 C 
ATOM     10  C   UNL     1      32.233  -5.084 -23.308  0.00  0.00    +0.036 C 
ATOM     11  C   UNL     1      31.720  -3.773 -23.302  0.00  0.00    +0.119 C 
ATOM     12  H   UNL     1      30.228  -4.933 -20.911  0.00  0.00    +0.174 HD
BRANCH  10  14
ATOM     13  N   UNL     1      35.039  -6.925 -25.886  0.00  0.00    -0.242 NA
ATOM     14  C   UNL     1      33.183  -5.706 -24.181  0.00  0.00    +0.006 C 
ATOM     15  C   UNL     1      34.362  -6.241 -23.668  0.00  0.00    +0.021 C 
ATOM     16  C   UNL     1      32.935  -5.783 -25.549  0.00  0.00    +0.021 C 
ATOM     17  C   UNL     1      35.248  -6.834 -24.553  0.00  0.00    +0.099 C 
ATOM     18  C   UNL     1      33.885  -6.395 -26.350  0.00  0.00    +0.099 C 
ENDBRANCH  10  14
ENDBRANCH   1   9
BRANCH   4  19
ATOM     19  O   UNL     1      31.968 -10.896 -20.207  0.00  0.00    -0.468 OA
BRANCH  19  20
ATOM     20  C   UNL     1      31.276 -11.913 -20.919  0.00  0.00    +0.264 C 
BRANCH  20  22
ATOM     21  N   UNL     1      32.265 -13.270 -22.663  0.00  0.00    -0.406 NA
ATOM     22  C   UNL     1      32.244 -12.966 -21.345  0.00  0.00    +0.152 C 
ATOM     23  C   UNL     1      33.988 -14.888 -22.195  0.00  0.00    +0.026 C 
ATOM     24  C   UNL     1      33.124 -14.217 -23.085  0.00  0.00    +0.113 C 
ATOM     25  C   UNL     1      33.050 -13.568 -20.400  0.00  0.00    +0.031 C 
ATOM     26  C   UNL     1      33.934 -14.543 -20.837  0.00  0.00    +0.005 C 
ATOM     27  C   UNL     1      34.872 -15.871 -22.669  0.00  0.00    +0.002 C 
ATOM     28  C   UNL     1      33.179 -14.559 -24.433  0.00  0.00    +0.085 C 
ATOM     29  C   UNL     1      34.906 -16.194 -24.023  0.00  0.00    -0.004 C 
ATOM     30  C   UNL     1      34.058 -15.537 -24.905  0.00  0.00    -0.019 C 
ENDBRANCH  20  22
ENDBRANCH  19  20
ENDBRANCH   4  19
TORSDOF 5
ENDMDL
MODEL 4
REMARK VINA RESULT:     -10.9      2.598      4.498
REMARK  Name = 11610553
REMARK  5 active torsions:
REMARK  status: ('A' for Active; 'I' for Inactive)
REMARK    1  A    between atoms: C_1  and  C_9
REMARK    2  A    between atoms: C_4  and  O_19
REMARK    3  A    between atoms: C_10  and  C_14
REMARK    4  A    between atoms: O_19  and  C_20
REMARK    5  A    between atoms: C_20  and  C_22
REMARK                            x       y       z     vdW  Elec       q    Type
REMARK                         _______ _______ _______ _____ _____    ______ ____
ROOT
ATOM      1  C   UNL     1      33.147 -23.475 -15.996  0.00  0.00    +0.015 C 
ATOM      2  C   UNL     1      32.192 -23.007 -16.899  0.00  0.00    +0.004 C 
ATOM      3  C   UNL     1      34.502 -23.419 -16.322  0.00  0.00    +0.004 C 
ATOM      4  C   UNL     1      33.946 -22.430 -18.446  0.00  0.00    +0.139 C 
ATOM      5  C   UNL     1      32.594 -22.483 -18.128  0.00  0.00    +0.037 C 
ATOM      6  C   UNL     1      34.903 -22.895 -17.550  0.00  0.00    +0.037 C 
ENDROOT
BRANCH   1   9
ATOM      7  N   UNL     1      33.628 -24.374 -13.761  0.00  0.00    -0.236 N 
ATOM      8  N   UNL     1      33.059 -24.860 -12.644  0.00  0.00    -0.180 NA
ATOM      9  C   UNL     1      32.731 -24.018 -14.726  0.00  0.00    +0.067 C 
ATOM     10  C   UNL     1      31.490 -24.290 -14.203  0.00  0.00    +0.036 C 
ATOM     11  C   UNL     1      31.754 -24.806 -12.920  0.00  0.00    +0.119 C 
ATOM     12  H   UNL     1      34.601 -24.283 -13.872  0.00  0.00    +0.174 HD
BRANCH  10  14
ATOM     13  N   UNL     1      27.815 -23.638 -16.196  0.00  0.00    -0.242 NA
ATOM     14  C   UNL     1      30.247 -24.069 -14.878  0.00  0.00    +0.006 C 
ATOM     15  C   UNL     1      29.669 -25.085 -15.635  0.00  0.00    +0.021 C 
ATOM     16  C   UNL     1      29.605 -22.837 -14.782  0.00  0.00    +0.021 C 
ATOM     17  C   UNL     1      28.465 -24.822 -16.268  0.00  0.00    +0.099 C 
ATOM     18  C   UNL     1      28.404 -22.674 -15.454  0.00  0.00    +0.099 C 
ENDBRANCH  10  14
ENDBRANCH   1   9
BRANCH   4  19
ATOM     19  O   UNL     1      34.340 -21.915 -19.653  0.00  0.00    -0.468 OA
BRANCH  19  20
ATOM     20  C   UNL     1      35.611 -21.280 -19.694  0.00  0.00    +0.264 C 
BRANCH  20  22
ATOM     21  N   UNL     1      34.732 -20.282 -21.716  0.00  0.00    -0.406 NA
ATOM     22  C   UNL     1      35.567 -20.144 -20.661  0.00  0.00    +0.152 C 
ATOM     23  C   UNL     1      35.438 -18.105 -22.472  0.00  0.00    +0.026 C 
ATOM     24  C   UNL     1      34.666 -19.278 -22.612  0.00  0.00    +0.113 C 
ATOM     25  C   UNL     1      36.359 -19.036 -20.441  0.00  0.00    +0.031 C 
ATOM     26  C   UNL     1      36.290 -18.004 -21.365  0.00  0.00    +0.005 C 
ATOM     27  C   UNL     1      35.345 -17.077 -23.425  0.00  0.00    +0.002 C 
ATOM     28  C   UNL     1      33.820 -19.378 -23.712  0.00  0.00    +0.085 C 
ATOM     29  C   UNL     1      34.490 -17.204 -24.517  0.00  0.00    -0.004 C 
ATOM     30  C   UNL     1      33.727 -18.356 -24.660  0.00  0.00    -0.019 C 
ENDBRANCH  20  22
ENDBRANCH  19  20
ENDBRANCH   4  19
TORSDOF 5
ENDMDL
MODEL 5
REMARK VINA RESULT:     -10.9      7.917     15.399
REMARK  Name = 11610553
REMARK  5 active torsions:
REMARK  status: ('A' for Active; 'I' for Inactive)
REMARK    1  A    between atoms: C_1  and  C_9
REMARK    2  A    between atoms: C_4  and  O_19
REMARK    3  A    between atoms: C_10  and  C_14
REMARK    4  A    between atoms: O_19  and  C_20
REMARK    5  A    between atoms: C_20  and  C_22
REMARK                            x       y       z     vdW  Elec       q    Type
REMARK                         _______ _______ _______ _____ _____    ______ ____
ROOT
ATOM      1  C   UNL     1      31.727  -7.983 -22.361  0.00  0.00    +0.015 C 
ATOM      2  C   UNL     1      31.937  -8.673 -23.555  0.00  0.00    +0.004 C 
ATOM      3  C   UNL     1      31.731  -8.670 -21.148  0.00  0.00    +0.004 C 
ATOM      4  C   UNL     1      32.152 -10.730 -22.321  0.00  0.00    +0.139 C 
ATOM      5  C   UNL     1      32.150 -10.052 -23.534  0.00  0.00    +0.037 C 
ATOM      6  C   UNL     1      31.944 -10.047 -21.126  0.00  0.00    +0.037 C 
ENDROOT
BRANCH   1   9
ATOM      7  N   UNL     1      30.580  -5.954 -21.583  0.00  0.00    -0.236 N 
ATOM      8  N   UNL     1      30.514  -4.621 -21.739  0.00  0.00    -0.180 NA
ATOM      9  C   UNL     1      31.506  -6.557 -22.383  0.00  0.00    +0.067 C 
ATOM     10  C   UNL     1      32.086  -5.547 -23.113  0.00  0.00    +0.036 C 
ATOM     11  C   UNL     1      31.436  -4.378 -22.674  0.00  0.00    +0.119 C 
ATOM     12  H   UNL     1      30.013  -6.450 -20.950  0.00  0.00    +0.174 HD
BRANCH  10  14
ATOM     13  N   UNL     1      35.141  -6.077 -25.993  0.00  0.00    -0.242 NA
ATOM     14  C   UNL     1      33.120  -5.726 -24.087  0.00  0.00    +0.006 C 
ATOM     15  C   UNL     1      34.397  -6.115 -23.692  0.00  0.00    +0.021 C 
ATOM     16  C   UNL     1      32.856  -5.513 -25.438  0.00  0.00    +0.021 C 
ATOM     17  C   UNL     1      35.362  -6.275 -24.673  0.00  0.00    +0.099 C 
ATOM     18  C   UNL     1      33.890  -5.700 -26.341  0.00  0.00    +0.099 C 
ENDBRANCH  10  14
ENDBRANCH   1   9
BRANCH   4  19
ATOM     19  O   UNL     1      32.362 -12.084 -22.300  0.00  0.00    -0.468 OA
BRANCH  19  20
ATOM     20  C   UNL     1      33.447 -12.576 -23.075  0.00  0.00    +0.264 C 
BRANCH  20  22
ATOM     21  N   UNL     1      34.158 -14.872 -23.364  0.00  0.00    -0.406 NA
ATOM     22  C   UNL     1      33.928 -13.863 -22.493  0.00  0.00    +0.152 C 
ATOM     23  C   UNL     1      34.806 -16.249 -21.496  0.00  0.00    +0.026 C 
ATOM     24  C   UNL     1      34.591 -16.049 -22.876  0.00  0.00    +0.113 C 
ATOM     25  C   UNL     1      34.108 -13.964 -21.128  0.00  0.00    +0.031 C 
ATOM     26  C   UNL     1      34.555 -15.178 -20.627  0.00  0.00    +0.005 C 
ATOM     27  C   UNL     1      35.259 -17.491 -21.020  0.00  0.00    +0.002 C 
ATOM     28  C   UNL     1      34.842 -17.113 -23.737  0.00  0.00    +0.085 C 
ATOM     29  C   UNL     1      35.501 -18.539 -21.905  0.00  0.00    -0.004 C 
ATOM     30  C   UNL     1      35.292 -18.349 -23.265  0.00  0.00    -0.019 C 
ENDBRANCH  20  22
ENDBRANCH  19  20
ENDBRANCH   4  19
TORSDOF 5
ENDMDL
MODEL 6
REMARK VINA RESULT:     -10.8      8.563     15.914
REMARK  Name = 11610553
REMARK  5 active torsions:
REMARK  status: ('A' for Active; 'I' for Inactive)
REMARK    1  A    between atoms: C_1  and  C_9
REMARK    2  A    between atoms: C_4  and  O_19
REMARK    3  A    between atoms: C_10  and  C_14
REMARK    4  A    between atoms: O_19  and  C_20
REMARK    5  A    between atoms: C_20  and  C_22
REMARK                            x       y       z     vdW  Elec       q    Type
REMARK                         _______ _______ _______ _____ _____    ______ ____
ROOT
ATOM      1  C   UNL     1      31.720  -6.810 -21.726  0.00  0.00    +0.015 C 
ATOM      2  C   UNL     1      31.252  -7.911 -22.443  0.00  0.00    +0.004 C 
ATOM      3  C   UNL     1      32.283  -6.988 -20.462  0.00  0.00    +0.004 C 
ATOM      4  C   UNL     1      31.910  -9.361 -20.635  0.00  0.00    +0.139 C 
ATOM      5  C   UNL     1      31.348  -9.191 -21.895  0.00  0.00    +0.037 C 
ATOM      6  C   UNL     1      32.378  -8.267 -19.915  0.00  0.00    +0.037 C 
ENDROOT
BRANCH   1   9
ATOM      7  N   UNL     1      30.804  -4.530 -21.762  0.00  0.00    -0.236 N 
ATOM      8  N   UNL     1      30.842  -3.359 -22.420  0.00  0.00    -0.180 NA
ATOM      9  C   UNL     1      31.621  -5.487 -22.291  0.00  0.00    +0.067 C 
ATOM     10  C   UNL     1      32.235  -4.900 -23.372  0.00  0.00    +0.036 C 
ATOM     11  C   UNL     1      31.718  -3.591 -23.402  0.00  0.00    +0.119 C 
ATOM     12  H   UNL     1      30.241  -4.684 -20.971  0.00  0.00    +0.174 HD
BRANCH  10  14
ATOM     13  N   UNL     1      35.037  -6.803 -25.908  0.00  0.00    -0.242 NA
ATOM     14  C   UNL     1      33.182  -5.545 -24.230  0.00  0.00    +0.006 C 
ATOM     15  C   UNL     1      32.974  -5.579 -25.606  0.00  0.00    +0.021 C 
ATOM     16  C   UNL     1      34.322  -6.142 -23.695  0.00  0.00    +0.021 C 
ATOM     17  C   UNL     1      33.920  -6.214 -26.394  0.00  0.00    +0.099 C 
ATOM     18  C   UNL     1      35.208  -6.752 -24.568  0.00  0.00    +0.099 C 
ENDBRANCH  10  14
ENDBRANCH   1   9
BRANCH   4  19
ATOM     19  O   UNL     1      32.003 -10.618 -20.098  0.00  0.00    -0.468 OA
BRANCH  19  20
ATOM     20  C   UNL     1      31.215 -11.634 -20.703  0.00  0.00    +0.264 C 
BRANCH  20  22
ATOM     21  N   UNL     1      32.693 -13.544 -20.536  0.00  0.00    -0.406 NA
ATOM     22  C   UNL     1      32.111 -12.635 -21.352  0.00  0.00    +0.152 C 
ATOM     23  C   UNL     1      33.767 -14.495 -22.472  0.00  0.00    +0.026 C 
ATOM     24  C   UNL     1      33.510 -14.462 -21.086  0.00  0.00    +0.113 C 
ATOM     25  C   UNL     1      32.303 -12.588 -22.718  0.00  0.00    +0.031 C 
ATOM     26  C   UNL     1      33.145 -13.535 -23.282  0.00  0.00    +0.005 C 
ATOM     27  C   UNL     1      34.626 -15.468 -23.012  0.00  0.00    +0.002 C 
ATOM     28  C   UNL     1      34.129 -15.417 -20.283  0.00  0.00    +0.085 C 
ATOM     29  C   UNL     1      35.231 -16.410 -22.186  0.00  0.00    -0.004 C 
ATOM     30  C   UNL     1      34.983 -16.384 -20.819  0.00  0.00    -0.019 C 
ENDBRANCH  20  22
ENDBRANCH  19  20
ENDBRANCH   4  19
TORSDOF 5
ENDMDL
MODEL 7
REMARK VINA RESULT:     -10.7      1.374      2.134
REMARK  Name = 11610553
REMARK  5 active torsions:
REMARK  status: ('A' for Active; 'I' for Inactive)
REMARK    1  A    between atoms: C_1  and  C_9
REMARK    2  A    between atoms: C_4  and  O_19
REMARK    3  A    between atoms: C_10  and  C_14
REMARK    4  A    between atoms: O_19  and  C_20
REMARK    5  A    between atoms: C_20  and  C_22
REMARK                            x       y       z     vdW  Elec       q    Type
REMARK                         _______ _______ _______ _____ _____    ______ ____
ROOT
ATOM      1  C   UNL     1      35.341 -23.527 -14.714  0.00  0.00    +0.015 C 
ATOM      2  C   UNL     1      36.457 -22.891 -15.257  0.00  0.00    +0.004 C 
ATOM      3  C   UNL     1      34.185 -23.681 -15.479  0.00  0.00    +0.004 C 
ATOM      4  C   UNL     1      35.261 -22.565 -17.322  0.00  0.00    +0.139 C 
ATOM      5  C   UNL     1      36.416 -22.409 -16.566  0.00  0.00    +0.037 C 
ATOM      6  C   UNL     1      34.144 -23.199 -16.786  0.00  0.00    +0.037 C 
ENDROOT
BRANCH   1   9
ATOM      7  N   UNL     1      34.475 -23.640 -12.417  0.00  0.00    -0.236 N 
ATOM      8  N   UNL     1      34.670 -24.207 -11.214  0.00  0.00    -0.180 NA
ATOM      9  C   UNL     1      35.383 -24.025 -13.361  0.00  0.00    +0.067 C 
ATOM     10  C   UNL     1      36.230 -24.905 -12.730  0.00  0.00    +0.036 C 
ATOM     11  C   UNL     1      35.742 -24.978 -11.411  0.00  0.00    +0.119 C 
ATOM     12  H   UNL     1      33.745 -23.007 -12.601  0.00  0.00    +0.174 HD
BRANCH  10  14
ATOM     13  N   UNL     1      39.517 -26.848 -14.552  0.00  0.00    -0.242 NA
ATOM     14  C   UNL     1      37.342 -25.561 -13.347  0.00  0.00    +0.006 C 
ATOM     15  C   UNL     1      38.639 -25.112 -13.116  0.00  0.00    +0.021 C 
ATOM     16  C   UNL     1      37.135 -26.657 -14.182  0.00  0.00    +0.021 C 
ATOM     17  C   UNL     1      39.681 -25.782 -13.736  0.00  0.00    +0.099 C 
ATOM     18  C   UNL     1      38.245 -27.258 -14.755  0.00  0.00    +0.099 C 
ENDBRANCH  10  14
ENDBRANCH   1   9
BRANCH   4  19
ATOM     19  O   UNL     1      35.221 -22.092 -18.607  0.00  0.00    -0.468 OA
BRANCH  19  20
ATOM     20  C   UNL     1      36.467 -21.780 -19.214  0.00  0.00    +0.264 C 
BRANCH  20  22
ATOM     21  N   UNL     1      35.263 -20.786 -21.063  0.00  0.00    -0.406 NA
ATOM     22  C   UNL     1      36.281 -20.660 -20.182  0.00  0.00    +0.152 C 
ATOM     23  C   UNL     1      35.885 -18.649 -21.986  0.00  0.00    +0.026 C 
ATOM     24  C   UNL     1      35.065 -19.796 -21.954  0.00  0.00    +0.113 C 
ATOM     25  C   UNL     1      37.135 -19.577 -20.137  0.00  0.00    +0.031 C 
ATOM     26  C   UNL     1      36.929 -18.558 -21.056  0.00  0.00    +0.005 C 
ATOM     27  C   UNL     1      35.650 -17.634 -22.929  0.00  0.00    +0.002 C 
ATOM     28  C   UNL     1      34.027 -19.885 -22.878  0.00  0.00    +0.085 C 
ATOM     29  C   UNL     1      34.605 -17.749 -23.842  0.00  0.00    -0.004 C 
ATOM     30  C   UNL     1      33.793 -18.876 -23.816  0.00  0.00    -0.019 C 
ENDBRANCH  20  22
ENDBRANCH  19  20
ENDBRANCH   4  19
TORSDOF 5
ENDMDL
MODEL 8
REMARK VINA RESULT:     -10.3      6.957     13.596
REMARK  Name = 11610553
REMARK  5 active torsions:
REMARK  status: ('A' for Active; 'I' for Inactive)
REMARK    1  A    between atoms: C_1  and  C_9
REMARK    2  A    between atoms: C_4  and  O_19
REMARK    3  A    between atoms: C_10  and  C_14
REMARK    4  A    between atoms: O_19  and  C_20
REMARK    5  A    between atoms: C_20  and  C_22
REMARK                            x       y       z     vdW  Elec       q    Type
REMARK                         _______ _______ _______ _____ _____    ______ ____
ROOT
ATOM      1  C   UNL     1      32.459 -10.376 -21.632  0.00  0.00    +0.015 C 
ATOM      2  C   UNL     1      33.065 -10.419 -22.888  0.00  0.00    +0.004 C 
ATOM      3  C   UNL     1      31.928 -11.538 -21.074  0.00  0.00    +0.004 C 
ATOM      4  C   UNL     1      32.605 -12.779 -23.023  0.00  0.00    +0.139 C 
ATOM      5  C   UNL     1      33.138 -11.625 -23.586  0.00  0.00    +0.037 C 
ATOM      6  C   UNL     1      32.000 -12.744 -21.771  0.00  0.00    +0.037 C 
ENDROOT
BRANCH   1   9
ATOM      7  N   UNL     1      31.910  -9.057 -19.633  0.00  0.00    -0.236 N 
ATOM      8  N   UNL     1      31.914  -7.814 -19.122  0.00  0.00    -0.180 NA
ATOM      9  C   UNL     1      32.383  -9.129 -20.911  0.00  0.00    +0.067 C 
ATOM     10  C   UNL     1      32.720  -7.843 -21.260  0.00  0.00    +0.036 C 
ATOM     11  C   UNL     1      32.409  -7.077 -20.120  0.00  0.00    +0.119 C 
ATOM     12  H   UNL     1      31.596  -9.843 -19.132  0.00  0.00    +0.174 HD
BRANCH  10  14
ATOM     13  N   UNL     1      34.323  -6.679 -24.998  0.00  0.00    -0.242 NA
ATOM     14  C   UNL     1      33.262  -7.448 -22.524  0.00  0.00    +0.006 C 
ATOM     15  C   UNL     1      34.640  -7.349 -22.697  0.00  0.00    +0.021 C 
ATOM     16  C   UNL     1      32.416  -7.163 -23.593  0.00  0.00    +0.021 C 
ATOM     17  C   UNL     1      35.115  -6.964 -23.940  0.00  0.00    +0.099 C 
ATOM     18  C   UNL     1      32.991  -6.786 -24.796  0.00  0.00    +0.099 C 
ENDBRANCH  10  14
ENDBRANCH   1   9
BRANCH   4  19
ATOM     19  O   UNL     1      32.677 -13.963 -23.708  0.00  0.00    -0.468 OA
BRANCH  19  20
ATOM     20  C   UNL     1      33.954 -14.340 -24.206  0.00  0.00    +0.264 C 
BRANCH  20  22
ATOM     21  N   UNL     1      34.788 -16.083 -22.749  0.00  0.00    -0.406 NA
ATOM     22  C   UNL     1      34.189 -15.786 -23.925  0.00  0.00    +0.152 C 
ATOM     23  C   UNL     1      34.655 -18.413 -23.347  0.00  0.00    +0.026 C 
ATOM     24  C   UNL     1      35.019 -17.378 -22.461  0.00  0.00    +0.113 C 
ATOM     25  C   UNL     1      33.798 -16.729 -24.853  0.00  0.00    +0.031 C 
ATOM     26  C   UNL     1      34.037 -18.062 -24.554  0.00  0.00    +0.005 C 
ATOM     27  C   UNL     1      34.911 -19.755 -23.014  0.00  0.00    +0.002 C 
ATOM     28  C   UNL     1      35.633 -17.728 -21.261  0.00  0.00    +0.085 C 
ATOM     29  C   UNL     1      35.526 -20.076 -21.808  0.00  0.00    -0.004 C 
ATOM     30  C   UNL     1      35.888 -19.061 -20.931  0.00  0.00    -0.019 C 
ENDBRANCH  20  22
ENDBRANCH  19  20
ENDBRANCH   4  19
TORSDOF 5
ENDMDL
MODEL 9
REMARK VINA RESULT:     -10.2      2.813     10.753
REMARK  Name = 11610553
REMARK  5 active torsions:
REMARK  status: ('A' for Active; 'I' for Inactive)
REMARK    1  A    between atoms: C_1  and  C_9
REMARK    2  A    between atoms: C_4  and  O_19
REMARK    3  A    between atoms: C_10  and  C_14
REMARK    4  A    between atoms: O_19  and  C_20
REMARK    5  A    between atoms: C_20  and  C_22
REMARK                            x       y       z     vdW  Elec       q    Type
REMARK                         _______ _______ _______ _____ _____    ______ ____
ROOT
ATOM      1  C   UNL     1      34.241 -16.602 -23.887  0.00  0.00    +0.015 C 
ATOM      2  C   UNL     1      34.987 -16.577 -22.709  0.00  0.00    +0.004 C 
ATOM      3  C   UNL     1      33.842 -17.821 -24.435  0.00  0.00    +0.004 C 
ATOM      4  C   UNL     1      34.934 -18.984 -22.631  0.00  0.00    +0.139 C 
ATOM      5  C   UNL     1      35.334 -17.773 -22.079  0.00  0.00    +0.037 C 
ATOM      6  C   UNL     1      34.189 -19.016 -23.806  0.00  0.00    +0.037 C 
ENDROOT
BRANCH   1   9
ATOM      7  N   UNL     1      33.976 -15.204 -25.890  0.00  0.00    -0.236 N 
ATOM      8  N   UNL     1      33.598 -13.987 -26.318  0.00  0.00    -0.180 NA
ATOM      9  C   UNL     1      33.882 -15.366 -24.538  0.00  0.00    +0.067 C 
ATOM     10  C   UNL     1      33.409 -14.172 -24.049  0.00  0.00    +0.036 C 
ATOM     11  C   UNL     1      33.253 -13.362 -25.190  0.00  0.00    +0.119 C 
ATOM     12  H   UNL     1      34.291 -15.913 -26.495  0.00  0.00    +0.174 HD
BRANCH  10  14
ATOM     13  N   UNL     1      32.664 -13.339 -19.968  0.00  0.00    -0.242 NA
ATOM     14  C   UNL     1      33.157 -13.891 -22.668  0.00  0.00    +0.006 C 
ATOM     15  C   UNL     1      34.091 -14.244 -21.698  0.00  0.00    +0.021 C 
ATOM     16  C   UNL     1      31.976 -13.260 -22.284  0.00  0.00    +0.021 C 
ATOM     17  C   UNL     1      33.800 -13.950 -20.376  0.00  0.00    +0.099 C 
ATOM     18  C   UNL     1      31.779 -13.010 -20.936  0.00  0.00    +0.099 C 
ENDBRANCH  10  14
ENDBRANCH   1   9
BRANCH   4  19
ATOM     19  O   UNL     1      35.275 -20.158 -22.013  0.00  0.00    -0.468 OA
BRANCH  19  20
ATOM     20  C   UNL     1      36.073 -20.057 -20.841  0.00  0.00    +0.264 C 
BRANCH  20  22
ATOM     21  N   UNL     1      36.328 -21.246 -18.748  0.00  0.00    -0.406 NA
ATOM     22  C   UNL     1      35.506 -20.935 -19.777  0.00  0.00    +0.152 C 
ATOM     23  C   UNL     1      34.534 -22.543 -17.796  0.00  0.00    +0.026 C 
ATOM     24  C   UNL     1      35.851 -22.038 -17.769  0.00  0.00    +0.113 C 
ATOM     25  C   UNL     1      34.205 -21.381 -19.889  0.00  0.00    +0.031 C 
ATOM     26  C   UNL     1      33.717 -22.198 -18.880  0.00  0.00    +0.005 C 
ATOM     27  C   UNL     1      34.070 -23.368 -16.757  0.00  0.00    +0.002 C 
ATOM     28  C   UNL     1      36.662 -22.382 -16.691  0.00  0.00    +0.085 C 
ATOM     29  C   UNL     1      34.903 -23.696 -15.691  0.00  0.00    -0.004 C 
ATOM     30  C   UNL     1      36.201 -23.202 -15.659  0.00  0.00    -0.019 C 
ENDBRANCH  20  22
ENDBRANCH  19  20
ENDBRANCH   4  19
TORSDOF 5
ENDMDL
