MODEL 1
REMARK VINA RESULT:     -12.2      0.000      0.000
REMARK  Name = 24748573
REMARK  3 active torsions:
REMARK  status: ('A' for Active; 'I' for Inactive)
REMARK    1  A    between atoms: N_2  and  C_18
REMARK    2  A    between atoms: C_13  and  C_25
REMARK    3  A    between atoms: C_25  and  O_26
REMARK                            x       y       z     vdW  Elec       q    Type
REMARK                         _______ _______ _______ _____ _____    ______ ____
ROOT
ATOM      1  N   UNL     1      34.486 -23.378 -16.552  0.00  0.00    -0.391 NA
ATOM      2  N   UNL     1      32.766 -22.752 -18.024  0.00  0.00    -0.288 N 
ATOM      3  N   UNL     1      30.260 -24.192 -13.885  0.00  0.00    -0.243 NA
ATOM      4  C   UNL     1      34.022 -24.190 -14.323  0.00  0.00    +0.098 C 
ATOM      5  C   UNL     1      32.618 -24.039 -14.566  0.00  0.00    +0.011 C 
ATOM      6  C   UNL     1      32.186 -23.554 -15.813  0.00  0.00    +0.044 C 
ATOM      7  C   UNL     1      34.910 -23.839 -15.366  0.00  0.00    +0.119 C 
ATOM      8  C   UNL     1      33.158 -23.245 -16.753  0.00  0.00    +0.183 C 
ATOM      9  C   UNL     1      34.572 -24.668 -13.109  0.00  0.00    -0.015 C 
ATOM     10  C   UNL     1      36.281 -23.975 -15.164  0.00  0.00    +0.035 C 
ATOM     11  C   UNL     1      30.821 -23.392 -16.086  0.00  0.00    +0.024 C 
ATOM     12  C   UNL     1      31.587 -24.336 -13.653  0.00  0.00    +0.095 C 
ATOM     13  C   UNL     1      36.805 -24.448 -13.962  0.00  0.00    +0.077 C 
ATOM     14  C   UNL     1      35.948 -24.795 -12.931  0.00  0.00    +0.003 C 
ATOM     15  C   UNL     1      29.911 -23.723 -15.099  0.00  0.00    +0.099 C 
ATOM     16  H   UNL     1      31.889 -23.082 -18.325  0.00  0.00    +0.155 HD
ENDROOT
BRANCH   2  18
ATOM     17 CL   UNL     1      37.114 -20.861 -19.966  0.00  0.00    -0.082 Cl
ATOM     18  C   UNL     1      33.388 -21.885 -18.936  0.00  0.00    +0.051 C 
ATOM     19  C   UNL     1      34.780 -21.811 -18.990  0.00  0.00    +0.026 C 
ATOM     20  C   UNL     1      32.614 -21.100 -19.791  0.00  0.00    +0.015 C 
ATOM     21  C   UNL     1      35.398 -20.953 -19.899  0.00  0.00    +0.059 C 
ATOM     22  C   UNL     1      33.232 -20.242 -20.700  0.00  0.00    +0.002 C 
ATOM     23  C   UNL     1      34.624 -20.169 -20.754  0.00  0.00    +0.011 C 
ENDBRANCH   2  18
BRANCH  13  25
ATOM     24  O   UNL     1      38.828 -24.699 -12.709  0.00  0.00    -0.245 OA
ATOM     25  C   UNL     1      38.243 -24.573 -13.791  0.00  0.00    +0.338 C 
BRANCH  25  26
ATOM     26  O   UNL     1      38.913 -24.540 -14.975  0.00  0.00    -0.477 OA
ATOM     27  H   UNL     1      38.722 -25.172 -15.640  0.00  0.00    +0.295 HD
ENDBRANCH  25  26
ENDBRANCH  13  25
TORSDOF 3
ENDMDL
MODEL 2
REMARK VINA RESULT:     -12.0      1.162      1.577
REMARK  Name = 24748573
REMARK  3 active torsions:
REMARK  status: ('A' for Active; 'I' for Inactive)
REMARK    1  A    between atoms: N_2  and  C_18
REMARK    2  A    between atoms: C_13  and  C_25
REMARK    3  A    between atoms: C_25  and  O_26
REMARK                            x       y       z     vdW  Elec       q    Type
REMARK                         _______ _______ _______ _____ _____    ______ ____
ROOT
ATOM      1  N   UNL     1      34.970 -23.626 -16.115  0.00  0.00    -0.391 NA
ATOM      2  N   UNL     1      33.546 -22.857 -17.817  0.00  0.00    -0.288 N 
ATOM      3  N   UNL     1      30.365 -23.829 -14.019  0.00  0.00    -0.243 NA
ATOM      4  C   UNL     1      34.124 -24.292 -13.951  0.00  0.00    +0.098 C 
ATOM      5  C   UNL     1      32.792 -23.984 -14.382  0.00  0.00    +0.011 C 
ATOM      6  C   UNL     1      32.589 -23.499 -15.686  0.00  0.00    +0.044 C 
ATOM      7  C   UNL     1      35.177 -24.089 -14.873  0.00  0.00    +0.119 C 
ATOM      8  C   UNL     1      33.706 -23.344 -16.495  0.00  0.00    +0.183 C 
ATOM      9  C   UNL     1      34.449 -24.785 -12.663  0.00  0.00    -0.015 C 
ATOM     10  C   UNL     1      36.483 -24.380 -14.487  0.00  0.00    +0.035 C 
ATOM     11  C   UNL     1      31.302 -23.187 -16.142  0.00  0.00    +0.024 C 
ATOM     12  C   UNL     1      31.623 -24.121 -13.608  0.00  0.00    +0.095 C 
ATOM     13  C   UNL     1      36.783 -24.864 -13.215  0.00  0.00    +0.077 C 
ATOM     14  C   UNL     1      35.764 -25.068 -12.300  0.00  0.00    +0.003 C 
ATOM     15  C   UNL     1      30.238 -23.369 -15.279  0.00  0.00    +0.099 C 
ATOM     16  H   UNL     1      32.681 -23.091 -18.224  0.00  0.00    +0.155 HD
ENDROOT
BRANCH   2  18
ATOM     17 CL   UNL     1      33.985 -19.643 -21.783  0.00  0.00    -0.082 Cl
ATOM     18  C   UNL     1      34.382 -22.106 -18.656  0.00  0.00    +0.051 C 
ATOM     19  C   UNL     1      33.832 -21.339 -19.684  0.00  0.00    +0.026 C 
ATOM     20  C   UNL     1      35.764 -22.123 -18.461  0.00  0.00    +0.015 C 
ATOM     21  C   UNL     1      34.663 -20.589 -20.516  0.00  0.00    +0.059 C 
ATOM     22  C   UNL     1      36.594 -21.373 -19.294  0.00  0.00    +0.002 C 
ATOM     23  C   UNL     1      36.044 -20.606 -20.321  0.00  0.00    +0.011 C 
ENDBRANCH   2  18
BRANCH  13  25
ATOM     24  O   UNL     1      38.967 -24.337 -12.392  0.00  0.00    -0.245 OA
ATOM     25  C   UNL     1      38.161 -25.153 -12.851  0.00  0.00    +0.338 C 
BRANCH  25  26
ATOM     26  O   UNL     1      38.495 -26.455 -13.067  0.00  0.00    -0.477 OA
ATOM     27  H   UNL     1      39.392 -26.694 -13.191  0.00  0.00    +0.295 HD
ENDBRANCH  25  26
ENDBRANCH  13  25
TORSDOF 3
ENDMDL
MODEL 3
REMARK VINA RESULT:     -10.8      3.962      6.816
REMARK  Name = 24748573
REMARK  3 active torsions:
REMARK  status: ('A' for Active; 'I' for Inactive)
REMARK    1  A    between atoms: N_2  and  C_18
REMARK    2  A    between atoms: C_13  and  C_25
REMARK    3  A    between atoms: C_25  and  O_26
REMARK                            x       y       z     vdW  Elec       q    Type
REMARK                         _______ _______ _______ _____ _____    ______ ____
ROOT
ATOM      1  N   UNL     1      33.615 -22.966 -17.413  0.00  0.00    -0.391 NA
ATOM      2  N   UNL     1      33.008 -24.288 -15.570  0.00  0.00    -0.288 N 
ATOM      3  N   UNL     1      37.887 -23.313 -14.716  0.00  0.00    -0.243 NA
ATOM      4  C   UNL     1      35.860 -22.109 -17.681  0.00  0.00    +0.098 C 
ATOM      5  C   UNL     1      36.244 -22.746 -16.456  0.00  0.00    +0.011 C 
ATOM      6  C   UNL     1      35.287 -23.484 -15.737  0.00  0.00    +0.044 C 
ATOM      7  C   UNL     1      34.520 -22.259 -18.107  0.00  0.00    +0.119 C 
ATOM      8  C   UNL     1      34.004 -23.555 -16.263  0.00  0.00    +0.183 C 
ATOM      9  C   UNL     1      36.737 -21.343 -18.487  0.00  0.00    -0.015 C 
ATOM     10  C   UNL     1      34.114 -21.654 -19.294  0.00  0.00    +0.035 C 
ATOM     11  C   UNL     1      35.625 -24.120 -14.536  0.00  0.00    +0.024 C 
ATOM     12  C   UNL     1      37.527 -22.710 -15.875  0.00  0.00    +0.095 C 
ATOM     13  C   UNL     1      34.991 -20.903 -20.075  0.00  0.00    +0.077 C 
ATOM     14  C   UNL     1      36.306 -20.747 -19.671  0.00  0.00    +0.003 C 
ATOM     15  C   UNL     1      36.924 -24.004 -14.076  0.00  0.00    +0.099 C 
ATOM     16  H   UNL     1      33.361 -25.046 -15.050  0.00  0.00    +0.155 HD
ENDROOT
BRANCH   2  18
ATOM     17 CL   UNL     1      28.529 -26.151 -13.920  0.00  0.00    -0.082 Cl
ATOM     18  C   UNL     1      31.615 -24.142 -15.482  0.00  0.00    +0.051 C 
ATOM     19  C   UNL     1      30.853 -25.108 -14.824  0.00  0.00    +0.026 C 
ATOM     20  C   UNL     1      30.992 -23.031 -16.051  0.00  0.00    +0.015 C 
ATOM     21  C   UNL     1      29.469 -24.961 -14.733  0.00  0.00    +0.059 C 
ATOM     22  C   UNL     1      29.608 -22.885 -15.960  0.00  0.00    +0.002 C 
ATOM     23  C   UNL     1      28.847 -23.850 -15.301  0.00  0.00    +0.011 C 
ENDBRANCH   2  18
BRANCH  13  25
ATOM     24  O   UNL     1      35.250 -19.894 -22.229  0.00  0.00    -0.245 OA
ATOM     25  C   UNL     1      34.526 -20.287 -21.307  0.00  0.00    +0.338 C 
BRANCH  25  26
ATOM     26  O   UNL     1      33.170 -20.178 -21.356  0.00  0.00    -0.477 OA
ATOM     27  H   UNL     1      32.706 -20.448 -22.124  0.00  0.00    +0.295 HD
ENDBRANCH  25  26
ENDBRANCH  13  25
TORSDOF 3
ENDMDL
MODEL 4
REMARK VINA RESULT:     -10.7      3.266      6.060
REMARK  Name = 24748573
REMARK  3 active torsions:
REMARK  status: ('A' for Active; 'I' for Inactive)
REMARK    1  A    between atoms: N_2  and  C_18
REMARK    2  A    between atoms: C_13  and  C_25
REMARK    3  A    between atoms: C_25  and  O_26
REMARK                            x       y       z     vdW  Elec       q    Type
REMARK                         _______ _______ _______ _____ _____    ______ ____
ROOT
ATOM      1  N   UNL     1      33.930 -23.925 -15.409  0.00  0.00    -0.391 NA
ATOM      2  N   UNL     1      32.738 -25.103 -13.764  0.00  0.00    -0.288 N 
ATOM      3  N   UNL     1      37.057 -23.933 -11.426  0.00  0.00    -0.243 NA
ATOM      4  C   UNL     1      36.138 -23.035 -14.990  0.00  0.00    +0.098 C 
ATOM      5  C   UNL     1      36.090 -23.557 -13.656  0.00  0.00    +0.011 C 
ATOM      6  C   UNL     1      34.945 -24.256 -13.234  0.00  0.00    +0.044 C 
ATOM      7  C   UNL     1      35.017 -23.256 -15.822  0.00  0.00    +0.119 C 
ATOM      8  C   UNL     1      33.911 -24.405 -14.148  0.00  0.00    +0.183 C 
ATOM      9  C   UNL     1      37.236 -22.316 -15.523  0.00  0.00    -0.015 C 
ATOM     10  C   UNL     1      35.031 -22.763 -17.125  0.00  0.00    +0.035 C 
ATOM     11  C   UNL     1      34.862 -24.781 -11.937  0.00  0.00    +0.024 C 
ATOM     12  C   UNL     1      37.106 -23.438 -12.687  0.00  0.00    +0.095 C 
ATOM     13  C   UNL     1      36.121 -22.057 -17.632  0.00  0.00    +0.077 C 
ATOM     14  C   UNL     1      37.227 -21.833 -16.829  0.00  0.00    +0.003 C 
ATOM     15  C   UNL     1      35.933 -24.593 -11.084  0.00  0.00    +0.099 C 
ATOM     16  H   UNL     1      32.896 -25.805 -13.091  0.00  0.00    +0.155 HD
ENDROOT
BRANCH   2  18
ATOM     17 CL   UNL     1      29.177 -22.523 -16.392  0.00  0.00    -0.082 Cl
ATOM     18  C   UNL     1      31.396 -24.988 -14.157  0.00  0.00    +0.051 C 
ATOM     19  C   UNL     1      30.999 -23.934 -14.981  0.00  0.00    +0.026 C 
ATOM     20  C   UNL     1      30.460 -25.929 -13.728  0.00  0.00    +0.015 C 
ATOM     21  C   UNL     1      29.667 -23.821 -15.376  0.00  0.00    +0.059 C 
ATOM     22  C   UNL     1      29.127 -25.815 -14.123  0.00  0.00    +0.002 C 
ATOM     23  C   UNL     1      28.731 -24.762 -14.947  0.00  0.00    +0.011 C 
ENDBRANCH   2  18
BRANCH  13  25
ATOM     24  O   UNL     1      36.656 -20.531 -19.395  0.00  0.00    -0.245 OA
ATOM     25  C   UNL     1      36.095 -21.558 -18.997  0.00  0.00    +0.338 C 
BRANCH  25  26
ATOM     26  O   UNL     1      35.373 -22.357 -19.831  0.00  0.00    -0.477 OA
ATOM     27  H   UNL     1      35.266 -22.119 -20.731  0.00  0.00    +0.295 HD
ENDBRANCH  25  26
ENDBRANCH  13  25
TORSDOF 3
ENDMDL
MODEL 5
REMARK VINA RESULT:     -10.4      2.726      6.101
REMARK  Name = 24748573
REMARK  3 active torsions:
REMARK  status: ('A' for Active; 'I' for Inactive)
REMARK    1  A    between atoms: N_2  and  C_18
REMARK    2  A    between atoms: C_13  and  C_25
REMARK    3  A    between atoms: C_25  and  O_26
REMARK                            x       y       z     vdW  Elec       q    Type
REMARK                         _______ _______ _______ _____ _____    ______ ____
ROOT
ATOM      1  N   UNL     1      35.040 -23.439 -15.488  0.00  0.00    -0.391 NA
ATOM      2  N   UNL     1      34.915 -24.438 -13.366  0.00  0.00    -0.288 N 
ATOM      3  N   UNL     1      30.090 -24.292 -14.844  0.00  0.00    -0.243 NA
ATOM      4  C   UNL     1      33.066 -23.041 -16.826  0.00  0.00    +0.098 C 
ATOM      5  C   UNL     1      32.255 -23.611 -15.791  0.00  0.00    +0.011 C 
ATOM      6  C   UNL     1      32.872 -24.085 -14.619  0.00  0.00    +0.044 C 
ATOM      7  C   UNL     1      34.463 -22.984 -16.610  0.00  0.00    +0.119 C 
ATOM      8  C   UNL     1      34.252 -23.971 -14.530  0.00  0.00    +0.183 C 
ATOM      9  C   UNL     1      32.556 -22.533 -18.046  0.00  0.00    -0.015 C 
ATOM     10  C   UNL     1      35.279 -22.435 -17.595  0.00  0.00    +0.035 C 
ATOM     11  C   UNL     1      32.112 -24.649 -13.586  0.00  0.00    +0.024 C 
ATOM     12  C   UNL     1      30.854 -23.752 -15.825  0.00  0.00    +0.095 C 
ATOM     13  C   UNL     1      34.760 -21.940 -18.790  0.00  0.00    +0.077 C 
ATOM     14  C   UNL     1      33.395 -21.989 -19.016  0.00  0.00    +0.003 C 
ATOM     15  C   UNL     1      30.742 -24.727 -13.748  0.00  0.00    +0.099 C 
ATOM     16  H   UNL     1      34.370 -24.379 -12.548  0.00  0.00    +0.155 HD
ENDROOT
BRANCH   2  18
ATOM     17 CL   UNL     1      39.703 -25.068 -15.080  0.00  0.00    -0.082 Cl
ATOM     18  C   UNL     1      36.198 -24.965 -13.154  0.00  0.00    +0.051 C 
ATOM     19  C   UNL     1      37.196 -24.778 -14.112  0.00  0.00    +0.026 C 
ATOM     20  C   UNL     1      36.477 -25.673 -11.985  0.00  0.00    +0.015 C 
ATOM     21  C   UNL     1      38.472 -25.299 -13.900  0.00  0.00    +0.059 C 
ATOM     22  C   UNL     1      37.754 -26.193 -11.773  0.00  0.00    +0.002 C 
ATOM     23  C   UNL     1      38.751 -26.006 -12.730  0.00  0.00    +0.011 C 
ENDBRANCH   2  18
BRANCH  13  25
ATOM     24  O   UNL     1      36.865 -21.575 -19.867  0.00  0.00    -0.245 OA
ATOM     25  C   UNL     1      35.648 -21.376 -19.794  0.00  0.00    +0.338 C 
BRANCH  25  26
ATOM     26  O   UNL     1      34.991 -20.580 -20.683  0.00  0.00    -0.477 OA
ATOM     27  H   UNL     1      35.470 -19.965 -21.202  0.00  0.00    +0.295 HD
ENDBRANCH  25  26
ENDBRANCH  13  25
TORSDOF 3
ENDMDL
MODEL 6
REMARK VINA RESULT:     -10.2     12.673     15.458
REMARK  Name = 24748573
REMARK  3 active torsions:
REMARK  status: ('A' for Active; 'I' for Inactive)
REMARK    1  A    between atoms: N_2  and  C_18
REMARK    2  A    between atoms: C_13  and  C_25
REMARK    3  A    between atoms: C_25  and  O_26
REMARK                            x       y       z     vdW  Elec       q    Type
REMARK                         _______ _______ _______ _____ _____    ______ ____
ROOT
ATOM      1  N   UNL     1      32.752  -9.920 -23.361  0.00  0.00    -0.391 NA
ATOM      2  N   UNL     1      32.499  -7.706 -22.619  0.00  0.00    -0.288 N 
ATOM      3  N   UNL     1      31.471 -10.419 -18.488  0.00  0.00    -0.243 NA
ATOM      4  C   UNL     1      32.410 -11.805 -21.886  0.00  0.00    +0.098 C 
ATOM      5  C   UNL     1      32.102 -10.904 -20.815  0.00  0.00    +0.011 C 
ATOM      6  C   UNL     1      32.130  -9.519 -21.054  0.00  0.00    +0.044 C 
ATOM      7  C   UNL     1      32.729 -11.244 -23.144  0.00  0.00    +0.119 C 
ATOM      8  C   UNL     1      32.458  -9.095 -22.334  0.00  0.00    +0.183 C 
ATOM      9  C   UNL     1      32.413 -13.216 -21.762  0.00  0.00    -0.015 C 
ATOM     10  C   UNL     1      33.033 -12.091 -24.207  0.00  0.00    +0.035 C 
ATOM     11  C   UNL     1      31.834  -8.607 -20.032  0.00  0.00    +0.024 C 
ATOM     12  C   UNL     1      31.762 -11.274 -19.499  0.00  0.00    +0.095 C 
ATOM     13  C   UNL     1      33.031 -13.478 -24.067  0.00  0.00    +0.077 C 
ATOM     14  C   UNL     1      32.721 -14.042 -22.841  0.00  0.00    +0.003 C 
ATOM     15  C   UNL     1      31.515  -9.105 -18.782  0.00  0.00    +0.099 C 
ATOM     16  H   UNL     1      31.875  -7.171 -22.077  0.00  0.00    +0.155 HD
ENDROOT
BRANCH   2  18
ATOM     17 CL   UNL     1      32.575  -4.334 -26.477  0.00  0.00    -0.082 Cl
ATOM     18  C   UNL     1      33.255  -6.948 -23.526  0.00  0.00    +0.051 C 
ATOM     19  C   UNL     1      32.614  -6.117 -24.445  0.00  0.00    +0.026 C 
ATOM     20  C   UNL     1      34.648  -7.021 -23.505  0.00  0.00    +0.015 C 
ATOM     21  C   UNL     1      33.365  -5.360 -25.343  0.00  0.00    +0.059 C 
ATOM     22  C   UNL     1      35.399  -6.264 -24.404  0.00  0.00    +0.002 C 
ATOM     23  C   UNL     1      34.758  -5.433 -25.322  0.00  0.00    +0.011 C 
ENDBRANCH   2  18
BRANCH  13  25
ATOM     24  O   UNL     1      33.850 -13.942 -26.266  0.00  0.00    -0.245 OA
ATOM     25  C   UNL     1      33.355 -14.327 -25.201  0.00  0.00    +0.338 C 
BRANCH  25  26
ATOM     26  O   UNL     1      33.056 -15.636 -24.975  0.00  0.00    -0.477 OA
ATOM     27  H   UNL     1      33.511 -16.308 -25.443  0.00  0.00    +0.295 HD
ENDBRANCH  25  26
ENDBRANCH  13  25
TORSDOF 3
ENDMDL
MODEL 7
REMARK VINA RESULT:     -10.2      3.155      4.953
REMARK  Name = 24748573
REMARK  3 active torsions:
REMARK  status: ('A' for Active; 'I' for Inactive)
REMARK    1  A    between atoms: N_2  and  C_18
REMARK    2  A    between atoms: C_13  and  C_25
REMARK    3  A    between atoms: C_25  and  O_26
REMARK                            x       y       z     vdW  Elec       q    Type
REMARK                         _______ _______ _______ _____ _____    ______ ____
ROOT
ATOM      1  N   UNL     1      34.101 -23.069 -15.941  0.00  0.00    -0.391 NA
ATOM      2  N   UNL     1      36.148 -22.288 -16.787  0.00  0.00    -0.288 N 
ATOM      3  N   UNL     1      37.563 -25.589 -13.239  0.00  0.00    -0.243 NA
ATOM      4  C   UNL     1      33.998 -24.714 -14.174  0.00  0.00    +0.098 C 
ATOM      5  C   UNL     1      35.430 -24.754 -14.133  0.00  0.00    +0.011 C 
ATOM      6  C   UNL     1      36.163 -23.938 -15.012  0.00  0.00    +0.044 C 
ATOM      7  C   UNL     1      33.391 -23.844 -15.108  0.00  0.00    +0.119 C 
ATOM      8  C   UNL     1      35.448 -23.126 -15.882  0.00  0.00    +0.183 C 
ATOM      9  C   UNL     1      33.157 -25.490 -13.337  0.00  0.00    -0.015 C 
ATOM     10  C   UNL     1      32.001 -23.780 -15.172  0.00  0.00    +0.035 C 
ATOM     11  C   UNL     1      37.564 -23.950 -15.002  0.00  0.00    +0.024 C 
ATOM     12  C   UNL     1      36.208 -25.554 -13.274  0.00  0.00    +0.095 C 
ATOM     13  C   UNL     1      31.189 -24.551 -14.341  0.00  0.00    +0.077 C 
ATOM     14  C   UNL     1      31.769 -25.409 -13.421  0.00  0.00    +0.003 C 
ATOM     15  C   UNL     1      38.206 -24.783 -14.106  0.00  0.00    +0.099 C 
ATOM     16  H   UNL     1      37.024 -21.987 -16.452  0.00  0.00    +0.155 HD
ENDROOT
BRANCH   2  18
ATOM     17 CL   UNL     1      37.472 -19.373 -20.787  0.00  0.00    -0.082 Cl
ATOM     18  C   UNL     1      35.834 -21.804 -18.065  0.00  0.00    +0.051 C 
ATOM     19  C   UNL     1      36.706 -20.929 -18.714  0.00  0.00    +0.026 C 
ATOM     20  C   UNL     1      34.651 -22.200 -18.690  0.00  0.00    +0.015 C 
ATOM     21  C   UNL     1      36.396 -20.451 -19.987  0.00  0.00    +0.059 C 
ATOM     22  C   UNL     1      34.341 -21.722 -19.963  0.00  0.00    +0.002 C 
ATOM     23  C   UNL     1      35.214 -20.848 -20.611  0.00  0.00    +0.011 C 
ENDBRANCH   2  18
BRANCH  13  25
ATOM     24  O   UNL     1      29.116 -23.479 -14.866  0.00  0.00    -0.245 OA
ATOM     25  C   UNL     1      29.742 -24.456 -14.442  0.00  0.00    +0.338 C 
BRANCH  25  26
ATOM     26  O   UNL     1      29.115 -25.586 -14.012  0.00  0.00    -0.477 OA
ATOM     27  H   UNL     1      28.179 -25.623 -13.994  0.00  0.00    +0.295 HD
ENDBRANCH  25  26
ENDBRANCH  13  25
TORSDOF 3
ENDMDL
MODEL 8
REMARK VINA RESULT:     -10.0      3.545      6.825
REMARK  Name = 24748573
REMARK  3 active torsions:
REMARK  status: ('A' for Active; 'I' for Inactive)
REMARK    1  A    between atoms: N_2  and  C_18
REMARK    2  A    between atoms: C_13  and  C_25
REMARK    3  A    between atoms: C_25  and  O_26
REMARK                            x       y       z     vdW  Elec       q    Type
REMARK                         _______ _______ _______ _____ _____    ______ ____
ROOT
ATOM      1  N   UNL     1      34.341 -24.270 -15.152  0.00  0.00    -0.391 NA
ATOM      2  N   UNL     1      36.615 -23.928 -15.630  0.00  0.00    -0.288 N 
ATOM      3  N   UNL     1      34.280 -21.406 -19.328  0.00  0.00    -0.243 NA
ATOM      4  C   UNL     1      32.595 -23.331 -16.534  0.00  0.00    +0.098 C 
ATOM      5  C   UNL     1      33.588 -22.743 -17.383  0.00  0.00    +0.011 C 
ATOM      6  C   UNL     1      34.948 -22.940 -17.084  0.00  0.00    +0.044 C 
ATOM      7  C   UNL     1      33.041 -24.088 -15.427  0.00  0.00    +0.119 C 
ATOM      8  C   UNL     1      35.256 -23.705 -15.968  0.00  0.00    +0.183 C 
ATOM      9  C   UNL     1      31.199 -23.200 -16.737  0.00  0.00    -0.015 C 
ATOM     10  C   UNL     1      32.101 -24.674 -14.583  0.00  0.00    +0.035 C 
ATOM     11  C   UNL     1      35.948 -22.381 -17.891  0.00  0.00    +0.024 C 
ATOM     12  C   UNL     1      33.337 -21.960 -18.527  0.00  0.00    +0.095 C 
ATOM     13  C   UNL     1      30.731 -24.535 -14.797  0.00  0.00    +0.077 C 
ATOM     14  C   UNL     1      30.278 -23.796 -15.877  0.00  0.00    +0.003 C 
ATOM     15  C   UNL     1      35.564 -21.632 -18.987  0.00  0.00    +0.099 C 
ATOM     16  H   UNL     1      37.221 -23.937 -16.406  0.00  0.00    +0.155 HD
ENDROOT
BRANCH   2  18
ATOM     17 CL   UNL     1      36.858 -22.945 -10.607  0.00  0.00    -0.082 Cl
ATOM     18  C   UNL     1      37.263 -24.138 -14.403  0.00  0.00    +0.051 C 
ATOM     19  C   UNL     1      36.795 -23.508 -13.250  0.00  0.00    +0.026 C 
ATOM     20  C   UNL     1      38.374 -24.980 -14.336  0.00  0.00    +0.015 C 
ATOM     21  C   UNL     1      37.436 -23.721 -12.030  0.00  0.00    +0.059 C 
ATOM     22  C   UNL     1      39.015 -25.192 -13.116  0.00  0.00    +0.002 C 
ATOM     23  C   UNL     1      38.546 -24.563 -11.963  0.00  0.00    +0.011 C 
ENDBRANCH   2  18
BRANCH  13  25
ATOM     24  O   UNL     1      28.640 -25.525 -14.189  0.00  0.00    -0.245 OA
ATOM     25  C   UNL     1      29.783 -25.161 -13.891  0.00  0.00    +0.338 C 
BRANCH  25  26
ATOM     26  O   UNL     1      30.287 -25.319 -12.636  0.00  0.00    -0.477 OA
ATOM     27  H   UNL     1      30.867 -24.674 -12.280  0.00  0.00    +0.295 HD
ENDBRANCH  25  26
ENDBRANCH  13  25
TORSDOF 3
ENDMDL
MODEL 9
REMARK VINA RESULT:      -9.7      3.370      5.128
REMARK  Name = 24748573
REMARK  3 active torsions:
REMARK  status: ('A' for Active; 'I' for Inactive)
REMARK    1  A    between atoms: N_2  and  C_18
REMARK    2  A    between atoms: C_13  and  C_25
REMARK    3  A    between atoms: C_25  and  O_26
REMARK                            x       y       z     vdW  Elec       q    Type
REMARK                         _______ _______ _______ _____ _____    ______ ____
ROOT
ATOM      1  N   UNL     1      33.715 -23.146 -15.938  0.00  0.00    -0.391 NA
ATOM      2  N   UNL     1      35.829 -22.398 -16.637  0.00  0.00    -0.288 N 
ATOM      3  N   UNL     1      36.929 -25.578 -12.873  0.00  0.00    -0.243 NA
ATOM      4  C   UNL     1      33.458 -24.729 -14.130  0.00  0.00    +0.098 C 
ATOM      5  C   UNL     1      34.881 -24.770 -13.969  0.00  0.00    +0.011 C 
ATOM      6  C   UNL     1      35.689 -23.986 -14.812  0.00  0.00    +0.044 C 
ATOM      7  C   UNL     1      32.934 -23.890 -15.141  0.00  0.00    +0.119 C 
ATOM      8  C   UNL     1      35.053 -23.204 -15.766  0.00  0.00    +0.183 C 
ATOM      9  C   UNL     1      32.547 -25.473 -13.341  0.00  0.00    -0.015 C 
ATOM     10  C   UNL     1      31.555 -23.825 -15.322  0.00  0.00    +0.035 C 
ATOM     11  C   UNL     1      37.084 -24.000 -14.685  0.00  0.00    +0.024 C 
ATOM     12  C   UNL     1      35.582 -25.542 -13.022  0.00  0.00    +0.095 C 
ATOM     13  C   UNL     1      30.674 -24.565 -14.536  0.00  0.00    +0.077 C 
ATOM     14  C   UNL     1      31.171 -25.392 -13.542  0.00  0.00    +0.003 C 
ATOM     15  C   UNL     1      37.645 -24.804 -13.711  0.00  0.00    +0.099 C 
ATOM     16  H   UNL     1      36.676 -22.087 -16.241  0.00  0.00    +0.155 HD
ENDROOT
BRANCH   2  18
ATOM     17 CL   UNL     1      32.532 -20.961 -20.286  0.00  0.00    -0.082 Cl
ATOM     18  C   UNL     1      35.625 -21.958 -17.953  0.00  0.00    +0.051 C 
ATOM     19  C   UNL     1      34.331 -21.710 -18.412  0.00  0.00    +0.026 C 
ATOM     20  C   UNL     1      36.715 -21.765 -18.802  0.00  0.00    +0.015 C 
ATOM     21  C   UNL     1      34.127 -21.268 -19.719  0.00  0.00    +0.059 C 
ATOM     22  C   UNL     1      36.511 -21.324 -20.109  0.00  0.00    +0.002 C 
ATOM     23  C   UNL     1      35.218 -21.075 -20.567  0.00  0.00    +0.011 C 
ENDBRANCH   2  18
BRANCH  13  25
ATOM     24  O   UNL     1      28.421 -25.370 -14.543  0.00  0.00    -0.245 OA
ATOM     25  C   UNL     1      29.241 -24.471 -14.760  0.00  0.00    +0.338 C 
BRANCH  25  26
ATOM     26  O   UNL     1      28.868 -23.255 -15.246  0.00  0.00    -0.477 OA
ATOM     27  H   UNL     1      29.500 -22.567 -15.321  0.00  0.00    +0.295 HD
ENDBRANCH  25  26
ENDBRANCH  13  25
TORSDOF 3
ENDMDL
