MODEL 1
REMARK VINA RESULT:     -11.8      0.000      0.000
REMARK  Name = 16719221
REMARK  6 active torsions:
REMARK  status: ('A' for Active; 'I' for Inactive)
REMARK    1  A    between atoms: C_3  and  C_20
REMARK    2  A    between atoms: C_11  and  O_13
REMARK    3  A    between atoms: O_13  and  C_16
REMARK    4  A    between atoms: C_20  and  C_24
REMARK    5  A    between atoms: N_22  and  S_30
REMARK    6  A    between atoms: S_30  and  N_33
REMARK                            x       y       z     vdW  Elec       q    Type
REMARK                         _______ _______ _______ _____ _____    ______ ____
ROOT
ATOM      1  O   UNL     1      36.896 -20.451 -19.603  0.00  0.00    -0.421 OA
ATOM      2  O   UNL     1      37.947 -18.906 -20.890  0.00  0.00    -0.245 OA
ATOM      3  C   UNL     1      35.642 -19.282 -21.365  0.00  0.00    +0.054 A 
ATOM      4  C   UNL     1      34.525 -19.984 -21.080  0.00  0.00    -0.016 A 
ATOM      5  C   UNL     1      34.545 -20.962 -19.973  0.00  0.00    +0.031 A 
ATOM      6  C   UNL     1      35.732 -21.163 -19.274  0.00  0.00    +0.151 A 
ATOM      7  C   UNL     1      36.914 -19.511 -20.620  0.00  0.00    +0.342 A 
ATOM      8  C   UNL     1      33.232 -19.845 -21.844  0.00  0.00    +0.031 C 
ATOM      9  C   UNL     1      33.429 -21.708 -19.565  0.00  0.00    +0.006 C 
ATOM     10  C   UNL     1      35.838 -22.068 -18.214  0.00  0.00    +0.076 C 
ATOM     11  C   UNL     1      34.719 -22.801 -17.831  0.00  0.00    +0.162 C 
ATOM     12  C   UNL     1      33.515 -22.620 -18.505  0.00  0.00    +0.039 C 
ENDROOT
BRANCH  11  13
ATOM     13  O   UNL     1      34.801 -23.687 -16.803  0.00  0.00    -0.392 OA
BRANCH  13  16
ATOM     14  N   UNL     1      32.521 -23.593 -16.365  0.00  0.00    -0.185 NA
ATOM     15  N   UNL     1      34.127 -23.814 -14.583  0.00  0.00    -0.162 NA
ATOM     16  C   UNL     1      33.771 -23.698 -15.876  0.00  0.00    +0.196 C 
ATOM     17  C   UNL     1      31.543 -23.607 -15.436  0.00  0.00    +0.167 C 
ATOM     18  C   UNL     1      33.101 -23.821 -13.708  0.00  0.00    +0.110 C 
ATOM     19  C   UNL     1      31.776 -23.720 -14.080  0.00  0.00    +0.022 C 
ENDBRANCH  13  16
ENDBRANCH  11  13
BRANCH   3  20
ATOM     20  C   UNL     1      35.742 -18.211 -22.422  0.00  0.00    +0.061 C 
BRANCH  20  24
ATOM     21  F   UNL     1      35.275 -15.995 -24.135  0.00  0.00    -0.202 F 
ATOM     22  N   UNL     1      34.335 -13.536 -23.201  0.00  0.00    -0.187 N 
ATOM     23  N   UNL     1      34.300 -14.418 -21.015  0.00  0.00    -0.226 NA
ATOM     24  C   UNL     1      35.239 -16.885 -21.933  0.00  0.00    +0.014 C 
ATOM     25  C   UNL     1      35.031 -15.841 -22.827  0.00  0.00    +0.169 C 
ATOM     26  C   UNL     1      34.977 -16.697 -20.580  0.00  0.00    +0.019 C 
ATOM     27  C   UNL     1      34.565 -14.638 -22.322  0.00  0.00    +0.175 C 
ATOM     28  C   UNL     1      34.513 -15.456 -20.175  0.00  0.00    +0.100 C 
ATOM     29  H   UNL     1      34.972 -13.316 -23.920  0.00  0.00    +0.176 HD
BRANCH  22  30
ATOM     30  S   UNL     1      32.898 -12.603 -22.957  0.00  0.00    +0.111 S 
ATOM     31  O   UNL     1      33.037 -11.360 -23.694  0.00  0.00    -0.138 OA
ATOM     32  O   UNL     1      31.732 -13.439 -23.170  0.00  0.00    -0.138 OA
BRANCH  30  33
ATOM     33  N   UNL     1      32.998 -12.250 -21.274  0.00  0.00    -0.165 NA
ATOM     34  C   UNL     1      31.746 -11.888 -20.572  0.00  0.00    +0.112 C 
ATOM     35  H   UNL     1      33.645 -11.469 -21.164  0.00  0.00    +0.150 HD
ENDBRANCH  30  33
ENDBRANCH  22  30
ENDBRANCH  20  24
ENDBRANCH   3  20
TORSDOF 6
ENDMDL
MODEL 2
REMARK VINA RESULT:     -11.6      3.854      6.604
REMARK  Name = 16719221
REMARK  6 active torsions:
REMARK  status: ('A' for Active; 'I' for Inactive)
REMARK    1  A    between atoms: C_3  and  C_20
REMARK    2  A    between atoms: C_11  and  O_13
REMARK    3  A    between atoms: O_13  and  C_16
REMARK    4  A    between atoms: C_20  and  C_24
REMARK    5  A    between atoms: N_22  and  S_30
REMARK    6  A    between atoms: S_30  and  N_33
REMARK                            x       y       z     vdW  Elec       q    Type
REMARK                         _______ _______ _______ _____ _____    ______ ____
ROOT
ATOM      1  O   UNL     1      33.805 -14.741 -20.511  0.00  0.00    -0.421 OA
ATOM      2  O   UNL     1      32.544 -12.905 -20.074  0.00  0.00    -0.245 OA
ATOM      3  C   UNL     1      32.744 -13.525 -22.366  0.00  0.00    +0.054 A 
ATOM      4  C   UNL     1      33.290 -14.366 -23.270  0.00  0.00    -0.016 A 
ATOM      5  C   UNL     1      34.120 -15.495 -22.803  0.00  0.00    +0.031 A 
ATOM      6  C   UNL     1      34.350 -15.642 -21.438  0.00  0.00    +0.151 A 
ATOM      7  C   UNL     1      33.005 -13.681 -20.905  0.00  0.00    +0.342 A 
ATOM      8  C   UNL     1      33.119 -14.217 -24.762  0.00  0.00    +0.031 C 
ATOM      9  C   UNL     1      34.695 -16.452 -23.654  0.00  0.00    +0.006 C 
ATOM     10  C   UNL     1      35.123 -16.681 -20.912  0.00  0.00    +0.076 C 
ATOM     11  C   UNL     1      35.686 -17.614 -21.775  0.00  0.00    +0.162 C 
ATOM     12  C   UNL     1      35.471 -17.501 -23.145  0.00  0.00    +0.039 C 
ENDROOT
BRANCH  11  13
ATOM     13  O   UNL     1      36.442 -18.632 -21.283  0.00  0.00    -0.392 OA
BRANCH  13  16
ATOM     14  N   UNL     1      36.540 -20.430 -19.814  0.00  0.00    -0.185 NA
ATOM     15  N   UNL     1      34.469 -19.785 -20.864  0.00  0.00    -0.162 NA
ATOM     16  C   UNL     1      35.788 -19.662 -20.625  0.00  0.00    +0.196 C 
ATOM     17  C   UNL     1      35.872 -21.422 -19.190  0.00  0.00    +0.167 C 
ATOM     18  C   UNL     1      33.864 -20.797 -20.207  0.00  0.00    +0.110 C 
ATOM     19  C   UNL     1      34.521 -21.656 -19.349  0.00  0.00    +0.022 C 
ENDBRANCH  13  16
ENDBRANCH  11  13
BRANCH   3  20
ATOM     20  C   UNL     1      31.828 -12.375 -22.701  0.00  0.00    +0.061 C 
BRANCH  20  24
ATOM     21  F   UNL     1      30.619  -9.807 -22.757  0.00  0.00    -0.202 F 
ATOM     22  N   UNL     1      32.054  -7.475 -23.310  0.00  0.00    -0.187 N 
ATOM     23  N   UNL     1      34.007  -8.773 -23.550  0.00  0.00    -0.226 NA
ATOM     24  C   UNL     1      32.587 -11.116 -22.998  0.00  0.00    +0.014 C 
ATOM     25  C   UNL     1      31.933  -9.889 -23.008  0.00  0.00    +0.169 C 
ATOM     26  C   UNL     1      33.951 -11.173 -23.262  0.00  0.00    +0.019 C 
ATOM     27  C   UNL     1      32.681  -8.758 -23.288  0.00  0.00    +0.175 C 
ATOM     28  C   UNL     1      34.610  -9.983 -23.530  0.00  0.00    +0.100 C 
ATOM     29  H   UNL     1      31.173  -7.345 -23.731  0.00  0.00    +0.176 HD
BRANCH  22  30
ATOM     30  S   UNL     1      32.899  -6.158 -22.569  0.00  0.00    +0.111 S 
ATOM     31  O   UNL     1      33.932  -5.712 -23.487  0.00  0.00    -0.138 OA
ATOM     32  O   UNL     1      31.943  -5.201 -22.042  0.00  0.00    -0.138 OA
BRANCH  30  33
ATOM     33  N   UNL     1      33.658  -6.941 -21.236  0.00  0.00    -0.165 NA
ATOM     34  C   UNL     1      32.844  -7.173 -20.022  0.00  0.00    +0.112 C 
ATOM     35  H   UNL     1      34.458  -6.369 -20.962  0.00  0.00    +0.150 HD
ENDBRANCH  30  33
ENDBRANCH  22  30
ENDBRANCH  20  24
ENDBRANCH   3  20
TORSDOF 6
ENDMDL
MODEL 3
REMARK VINA RESULT:     -11.4      3.151      9.783
REMARK  Name = 16719221
REMARK  6 active torsions:
REMARK  status: ('A' for Active; 'I' for Inactive)
REMARK    1  A    between atoms: C_3  and  C_20
REMARK    2  A    between atoms: C_11  and  O_13
REMARK    3  A    between atoms: O_13  and  C_16
REMARK    4  A    between atoms: C_20  and  C_24
REMARK    5  A    between atoms: N_22  and  S_30
REMARK    6  A    between atoms: S_30  and  N_33
REMARK                            x       y       z     vdW  Elec       q    Type
REMARK                         _______ _______ _______ _____ _____    ______ ____
ROOT
ATOM      1  O   UNL     1      35.348 -16.345 -21.431  0.00  0.00    -0.421 OA
ATOM      2  O   UNL     1      36.187 -17.983 -20.103  0.00  0.00    -0.245 OA
ATOM      3  C   UNL     1      35.255 -18.685 -22.181  0.00  0.00    +0.054 A 
ATOM      4  C   UNL     1      34.620 -18.328 -23.317  0.00  0.00    -0.016 A 
ATOM      5  C   UNL     1      34.347 -16.900 -23.579  0.00  0.00    +0.031 A 
ATOM      6  C   UNL     1      34.719 -15.957 -22.624  0.00  0.00    +0.151 A 
ATOM      7  C   UNL     1      35.640 -17.671 -21.156  0.00  0.00    +0.342 A 
ATOM      8  C   UNL     1      34.145 -19.314 -24.356  0.00  0.00    +0.031 C 
ATOM      9  C   UNL     1      33.736 -16.418 -24.747  0.00  0.00    +0.006 C 
ATOM     10  C   UNL     1      34.499 -14.588 -22.791  0.00  0.00    +0.076 C 
ATOM     11  C   UNL     1      33.887 -14.134 -23.955  0.00  0.00    +0.162 C 
ATOM     12  C   UNL     1      33.507 -15.048 -24.933  0.00  0.00    +0.039 C 
ENDROOT
BRANCH  11  13
ATOM     13  O   UNL     1      33.663 -12.806 -24.138  0.00  0.00    -0.392 OA
BRANCH  13  16
ATOM     14  N   UNL     1      32.974 -10.797 -23.194  0.00  0.00    -0.185 NA
ATOM     15  N   UNL     1      32.180 -12.910 -22.351  0.00  0.00    -0.162 NA
ATOM     16  C   UNL     1      32.906 -12.142 -23.185  0.00  0.00    +0.196 C 
ATOM     17  C   UNL     1      32.225 -10.183 -22.254  0.00  0.00    +0.167 C 
ATOM     18  C   UNL     1      31.457 -12.232 -21.437  0.00  0.00    +0.110 C 
ATOM     19  C   UNL     1      31.439 -10.856 -21.340  0.00  0.00    +0.022 C 
ENDBRANCH  13  16
ENDBRANCH  11  13
BRANCH   3  20
ATOM     20  C   UNL     1      35.651 -20.094 -21.821  0.00  0.00    +0.061 C 
BRANCH  20  24
ATOM     21  F   UNL     1      36.445 -22.190 -20.078  0.00  0.00    -0.202 F 
ATOM     22  N   UNL     1      34.738 -23.281 -18.155  0.00  0.00    -0.187 N 
ATOM     23  N   UNL     1      33.050 -21.793 -18.856  0.00  0.00    -0.226 NA
ATOM     24  C   UNL     1      34.744 -20.689 -20.785  0.00  0.00    +0.014 C 
ATOM     25  C   UNL     1      35.197 -21.715 -19.962  0.00  0.00    +0.169 C 
ATOM     26  C   UNL     1      33.444 -20.214 -20.644  0.00  0.00    +0.019 C 
ATOM     27  C   UNL     1      34.319 -22.228 -19.023  0.00  0.00    +0.175 C 
ATOM     28  C   UNL     1      32.644 -20.795 -19.673  0.00  0.00    +0.100 C 
ATOM     29  H   UNL     1      35.269 -24.039 -18.491  0.00  0.00    +0.176 HD
BRANCH  22  30
ATOM     30  S   UNL     1      34.279 -23.177 -16.489  0.00  0.00    +0.111 S 
ATOM     31  O   UNL     1      35.110 -22.170 -15.854  0.00  0.00    -0.138 OA
ATOM     32  O   UNL     1      32.834 -23.086 -16.386  0.00  0.00    -0.138 OA
BRANCH  30  33
ATOM     33  N   UNL     1      34.757 -24.724 -15.901  0.00  0.00    -0.165 NA
ATOM     34  C   UNL     1      34.846 -24.904 -14.435  0.00  0.00    +0.112 C 
ATOM     35  H   UNL     1      35.679 -24.926 -16.289  0.00  0.00    +0.150 HD
ENDBRANCH  30  33
ENDBRANCH  22  30
ENDBRANCH  20  24
ENDBRANCH   3  20
TORSDOF 6
ENDMDL
MODEL 4
REMARK VINA RESULT:     -11.3      2.024      2.717
REMARK  Name = 16719221
REMARK  6 active torsions:
REMARK  status: ('A' for Active; 'I' for Inactive)
REMARK    1  A    between atoms: C_3  and  C_20
REMARK    2  A    between atoms: C_11  and  O_13
REMARK    3  A    between atoms: O_13  and  C_16
REMARK    4  A    between atoms: C_20  and  C_24
REMARK    5  A    between atoms: N_22  and  S_30
REMARK    6  A    between atoms: S_30  and  N_33
REMARK                            x       y       z     vdW  Elec       q    Type
REMARK                         _______ _______ _______ _____ _____    ______ ____
ROOT
ATOM      1  O   UNL     1      33.260 -21.307 -19.906  0.00  0.00    -0.421 OA
ATOM      2  O   UNL     1      32.766 -20.160 -21.801  0.00  0.00    -0.245 OA
ATOM      3  C   UNL     1      35.045 -20.116 -21.106  0.00  0.00    +0.054 A 
ATOM      4  C   UNL     1      35.956 -20.484 -20.181  0.00  0.00    -0.016 A 
ATOM      5  C   UNL     1      35.540 -21.346 -19.055  0.00  0.00    +0.031 A 
ATOM      6  C   UNL     1      34.204 -21.726 -18.956  0.00  0.00    +0.151 A 
ATOM      7  C   UNL     1      33.612 -20.516 -20.987  0.00  0.00    +0.342 A 
ATOM      8  C   UNL     1      37.401 -20.053 -20.211  0.00  0.00    +0.031 C 
ATOM      9  C   UNL     1      36.415 -21.824 -18.067  0.00  0.00    +0.006 C 
ATOM     10  C   UNL     1      33.727 -22.539 -17.924  0.00  0.00    +0.076 C 
ATOM     11  C   UNL     1      34.611 -22.996 -16.953  0.00  0.00    +0.162 C 
ATOM     12  C   UNL     1      35.955 -22.640 -17.025  0.00  0.00    +0.039 C 
ENDROOT
BRANCH  11  13
ATOM     13  O   UNL     1      34.167 -23.787 -15.941  0.00  0.00    -0.392 OA
BRANCH  13  16
ATOM     14  N   UNL     1      35.418 -23.468 -14.009  0.00  0.00    -0.185 NA
ATOM     15  N   UNL     1      35.600 -25.498 -15.294  0.00  0.00    -0.162 NA
ATOM     16  C   UNL     1      35.104 -24.272 -15.042  0.00  0.00    +0.196 C 
ATOM     17  C   UNL     1      36.332 -23.971 -13.153  0.00  0.00    +0.167 C 
ATOM     18  C   UNL     1      36.509 -25.939 -14.399  0.00  0.00    +0.110 C 
ATOM     19  C   UNL     1      36.917 -25.213 -13.299  0.00  0.00    +0.022 C 
ENDBRANCH  13  16
ENDBRANCH  11  13
BRANCH   3  20
ATOM     20  C   UNL     1      35.346 -19.295 -22.334  0.00  0.00    +0.061 C 
BRANCH  20  24
ATOM     21  F   UNL     1      35.051 -17.428 -24.453  0.00  0.00    -0.202 F 
ATOM     22  N   UNL     1      34.588 -14.709 -24.015  0.00  0.00    -0.187 N 
ATOM     23  N   UNL     1      34.635 -15.109 -21.692  0.00  0.00    -0.226 NA
ATOM     24  C   UNL     1      35.099 -17.832 -22.112  0.00  0.00    +0.014 C 
ATOM     25  C   UNL     1      34.963 -16.972 -23.196  0.00  0.00    +0.169 C 
ATOM     26  C   UNL     1      35.003 -17.332 -20.818  0.00  0.00    +0.019 C 
ATOM     27  C   UNL     1      34.735 -15.631 -22.935  0.00  0.00    +0.175 C 
ATOM     28  C   UNL     1      34.772 -15.975 -20.663  0.00  0.00    +0.100 C 
ATOM     29  H   UNL     1      35.176 -14.749 -24.804  0.00  0.00    +0.176 HD
BRANCH  22  30
ATOM     30  S   UNL     1      33.338 -13.518 -23.886  0.00  0.00    +0.111 S 
ATOM     31  O   UNL     1      32.888 -13.190 -25.227  0.00  0.00    -0.138 OA
ATOM     32  O   UNL     1      32.373 -13.930 -22.884  0.00  0.00    -0.138 OA
BRANCH  30  33
ATOM     33  N   UNL     1      34.209 -12.169 -23.262  0.00  0.00    -0.165 NA
ATOM     34  C   UNL     1      33.534 -10.852 -23.271  0.00  0.00    +0.112 C 
ATOM     35  H   UNL     1      35.063 -12.077 -23.812  0.00  0.00    +0.150 HD
ENDBRANCH  30  33
ENDBRANCH  22  30
ENDBRANCH  20  24
ENDBRANCH   3  20
TORSDOF 6
ENDMDL
MODEL 5
REMARK VINA RESULT:     -11.3      3.289      5.743
REMARK  Name = 16719221
REMARK  6 active torsions:
REMARK  status: ('A' for Active; 'I' for Inactive)
REMARK    1  A    between atoms: C_3  and  C_20
REMARK    2  A    between atoms: C_11  and  O_13
REMARK    3  A    between atoms: O_13  and  C_16
REMARK    4  A    between atoms: C_20  and  C_24
REMARK    5  A    between atoms: N_22  and  S_30
REMARK    6  A    between atoms: S_30  and  N_33
REMARK                            x       y       z     vdW  Elec       q    Type
REMARK                         _______ _______ _______ _____ _____    ______ ____
ROOT
ATOM      1  O   UNL     1      34.094 -16.745 -24.643  0.00  0.00    -0.421 OA
ATOM      2  O   UNL     1      33.427 -15.156 -26.120  0.00  0.00    -0.245 OA
ATOM      3  C   UNL     1      34.034 -14.388 -23.947  0.00  0.00    +0.054 A 
ATOM      4  C   UNL     1      34.437 -14.713 -22.700  0.00  0.00    -0.016 A 
ATOM      5  C   UNL     1      34.731 -16.125 -22.378  0.00  0.00    +0.031 A 
ATOM      6  C   UNL     1      34.547 -17.093 -23.361  0.00  0.00    +0.151 A 
ATOM      7  C   UNL     1      33.827 -15.432 -24.993  0.00  0.00    +0.342 A 
ATOM      8  C   UNL     1      34.597 -13.712 -21.584  0.00  0.00    +0.031 C 
ATOM      9  C   UNL     1      35.200 -16.564 -21.130  0.00  0.00    +0.006 C 
ATOM     10  C   UNL     1      34.801 -18.449 -23.140  0.00  0.00    +0.076 C 
ATOM     11  C   UNL     1      35.260 -18.861 -21.894  0.00  0.00    +0.162 C 
ATOM     12  C   UNL     1      35.461 -17.919 -20.890  0.00  0.00    +0.039 C 
ENDROOT
BRANCH  11  13
ATOM     13  O   UNL     1      35.513 -20.176 -21.658  0.00  0.00    -0.392 OA
BRANCH  13  16
ATOM     14  N   UNL     1      33.493 -20.509 -20.559  0.00  0.00    -0.185 NA
ATOM     15  N   UNL     1      35.504 -21.627 -19.844  0.00  0.00    -0.162 NA
ATOM     16  C   UNL     1      34.806 -20.797 -20.642  0.00  0.00    +0.196 C 
ATOM     17  C   UNL     1      32.835 -21.131 -19.559  0.00  0.00    +0.167 C 
ATOM     18  C   UNL     1      34.785 -22.215 -18.866  0.00  0.00    +0.110 C 
ATOM     19  C   UNL     1      33.435 -22.004 -18.673  0.00  0.00    +0.022 C 
ENDBRANCH  13  16
ENDBRANCH  11  13
BRANCH   3  20
ATOM     20  C   UNL     1      33.764 -12.985 -24.427  0.00  0.00    +0.061 C 
BRANCH  20  24
ATOM     21  F   UNL     1      34.490 -10.325 -23.748  0.00  0.00    -0.202 F 
ATOM     22  N   UNL     1      33.109  -8.823 -21.840  0.00  0.00    -0.187 N 
ATOM     23  N   UNL     1      31.662 -10.652 -21.496  0.00  0.00    -0.226 NA
ATOM     24  C   UNL     1      33.031 -12.169 -23.403  0.00  0.00    +0.014 C 
ATOM     25  C   UNL     1      33.440 -10.870 -23.119  0.00  0.00    +0.169 C 
ATOM     26  C   UNL     1      31.938 -12.710 -22.735  0.00  0.00    +0.019 C 
ATOM     27  C   UNL     1      32.729 -10.160 -22.165  0.00  0.00    +0.175 C 
ATOM     28  C   UNL     1      31.293 -11.917 -21.799  0.00  0.00    +0.100 C 
ATOM     29  H   UNL     1      34.056  -8.574 -21.732  0.00  0.00    +0.176 HD
BRANCH  22  30
ATOM     30  S   UNL     1      31.846  -7.656 -21.642  0.00  0.00    +0.111 S 
ATOM     31  O   UNL     1      30.813  -7.940 -22.621  0.00  0.00    -0.138 OA
ATOM     32  O   UNL     1      31.496  -7.550 -20.238  0.00  0.00    -0.138 OA
BRANCH  30  33
ATOM     33  N   UNL     1      32.645  -6.201 -22.102  0.00  0.00    -0.165 NA
ATOM     34  C   UNL     1      33.645  -6.281 -23.189  0.00  0.00    +0.112 C 
ATOM     35  H   UNL     1      33.122  -5.841 -21.275  0.00  0.00    +0.150 HD
ENDBRANCH  30  33
ENDBRANCH  22  30
ENDBRANCH  20  24
ENDBRANCH   3  20
TORSDOF 6
ENDMDL
MODEL 6
REMARK VINA RESULT:     -11.2      1.678      2.289
REMARK  Name = 16719221
REMARK  6 active torsions:
REMARK  status: ('A' for Active; 'I' for Inactive)
REMARK    1  A    between atoms: C_3  and  C_20
REMARK    2  A    between atoms: C_11  and  O_13
REMARK    3  A    between atoms: O_13  and  C_16
REMARK    4  A    between atoms: C_20  and  C_24
REMARK    5  A    between atoms: N_22  and  S_30
REMARK    6  A    between atoms: S_30  and  N_33
REMARK                            x       y       z     vdW  Elec       q    Type
REMARK                         _______ _______ _______ _____ _____    ______ ____
ROOT
ATOM      1  O   UNL     1      36.705 -20.654 -19.343  0.00  0.00    -0.421 OA
ATOM      2  O   UNL     1      37.907 -19.206 -20.612  0.00  0.00    -0.245 OA
ATOM      3  C   UNL     1      35.619 -19.490 -21.217  0.00  0.00    +0.054 A 
ATOM      4  C   UNL     1      34.454 -20.128 -20.979  0.00  0.00    -0.016 A 
ATOM      5  C   UNL     1      34.359 -21.066 -19.842  0.00  0.00    +0.031 A 
ATOM      6  C   UNL     1      35.490 -21.298 -19.064  0.00  0.00    +0.151 A 
ATOM      7  C   UNL     1      36.831 -19.752 -20.387  0.00  0.00    +0.342 A 
ATOM      8  C   UNL     1      33.217 -19.956 -21.825  0.00  0.00    +0.031 C 
ATOM      9  C   UNL     1      33.185 -21.745 -19.480  0.00  0.00    +0.006 C 
ATOM     10  C   UNL     1      35.487 -22.169 -17.971  0.00  0.00    +0.076 C 
ATOM     11  C   UNL     1      34.314 -22.834 -17.634  0.00  0.00    +0.162 C 
ATOM     12  C   UNL     1      33.163 -22.621 -18.387  0.00  0.00    +0.039 C 
ENDROOT
BRANCH  11  13
ATOM     13  O   UNL     1      34.290 -23.686 -16.575  0.00  0.00    -0.392 OA
BRANCH  13  16
ATOM     14  N   UNL     1      35.777 -25.052 -15.425  0.00  0.00    -0.185 NA
ATOM     15  N   UNL     1      36.113 -22.669 -15.555  0.00  0.00    -0.162 NA
ATOM     16  C   UNL     1      35.443 -23.808 -15.818  0.00  0.00    +0.196 C 
ATOM     17  C   UNL     1      36.905 -25.134 -14.690  0.00  0.00    +0.167 C 
ATOM     18  C   UNL     1      37.230 -22.824 -14.816  0.00  0.00    +0.110 C 
ATOM     19  C   UNL     1      37.681 -24.043 -14.351  0.00  0.00    +0.022 C 
ENDBRANCH  13  16
ENDBRANCH  11  13
BRANCH   3  20
ATOM     20  C   UNL     1      35.835 -18.463 -22.300  0.00  0.00    +0.061 C 
BRANCH  20  24
ATOM     21  F   UNL     1      35.569 -16.307 -24.128  0.00  0.00    -0.202 F 
ATOM     22  N   UNL     1      34.606 -13.796 -23.372  0.00  0.00    -0.187 N 
ATOM     23  N   UNL     1      34.359 -14.592 -21.167  0.00  0.00    -0.226 NA
ATOM     24  C   UNL     1      35.320 -17.110 -21.906  0.00  0.00    +0.014 C 
ATOM     25  C   UNL     1      35.214 -16.097 -22.853  0.00  0.00    +0.169 C 
ATOM     26  C   UNL     1      34.945 -16.865 -20.589  0.00  0.00    +0.019 C 
ATOM     27  C   UNL     1      34.733 -14.867 -22.437  0.00  0.00    +0.175 C 
ATOM     28  C   UNL     1      34.475 -15.600 -20.274  0.00  0.00    +0.100 C 
ATOM     29  H   UNL     1      35.307 -13.616 -24.040  0.00  0.00    +0.176 HD
BRANCH  22  30
ATOM     30  S   UNL     1      33.174 -12.827 -23.291  0.00  0.00    +0.111 S 
ATOM     31  O   UNL     1      32.242 -13.475 -22.385  0.00  0.00    -0.138 OA
ATOM     32  O   UNL     1      33.537 -11.438 -23.078  0.00  0.00    -0.138 OA
BRANCH  30  33
ATOM     33  N   UNL     1      32.563 -12.977 -24.895  0.00  0.00    -0.165 NA
ATOM     34  C   UNL     1      33.222 -13.953 -25.792  0.00  0.00    +0.112 C 
ATOM     35  H   UNL     1      32.637 -12.060 -25.336  0.00  0.00    +0.150 HD
ENDBRANCH  30  33
ENDBRANCH  22  30
ENDBRANCH  20  24
ENDBRANCH   3  20
TORSDOF 6
ENDMDL
MODEL 7
REMARK VINA RESULT:     -11.1      1.642      2.280
REMARK  Name = 16719221
REMARK  6 active torsions:
REMARK  status: ('A' for Active; 'I' for Inactive)
REMARK    1  A    between atoms: C_3  and  C_20
REMARK    2  A    between atoms: C_11  and  O_13
REMARK    3  A    between atoms: O_13  and  C_16
REMARK    4  A    between atoms: C_20  and  C_24
REMARK    5  A    between atoms: N_22  and  S_30
REMARK    6  A    between atoms: S_30  and  N_33
REMARK                            x       y       z     vdW  Elec       q    Type
REMARK                         _______ _______ _______ _____ _____    ______ ____
ROOT
ATOM      1  O   UNL     1      33.244 -21.129 -20.311  0.00  0.00    -0.421 OA
ATOM      2  O   UNL     1      32.991 -19.830 -22.155  0.00  0.00    -0.245 OA
ATOM      3  C   UNL     1      35.171 -19.886 -21.196  0.00  0.00    +0.054 A 
ATOM      4  C   UNL     1      35.962 -20.343 -20.202  0.00  0.00    -0.016 A 
ATOM      5  C   UNL     1      35.405 -21.280 -19.204  0.00  0.00    +0.031 A 
ATOM      6  C   UNL     1      34.063 -21.639 -19.293  0.00  0.00    +0.151 A 
ATOM      7  C   UNL     1      33.731 -20.265 -21.278  0.00  0.00    +0.342 A 
ATOM      8  C   UNL     1      37.405 -19.941 -20.028  0.00  0.00    +0.031 C 
ATOM      9  C   UNL     1      36.151 -21.850 -18.160  0.00  0.00    +0.006 C 
ATOM     10  C   UNL     1      33.458 -22.518 -18.391  0.00  0.00    +0.076 C 
ATOM     11  C   UNL     1      34.215 -23.066 -17.362  0.00  0.00    +0.162 C 
ATOM     12  C   UNL     1      35.562 -22.734 -17.247  0.00  0.00    +0.039 C 
ENDROOT
BRANCH  11  13
ATOM     13  O   UNL     1      33.645 -23.924 -16.474  0.00  0.00    -0.392 OA
BRANCH  13  16
ATOM     14  N   UNL     1      32.515 -23.213 -14.572  0.00  0.00    -0.185 NA
ATOM     15  N   UNL     1      31.364 -23.528 -16.665  0.00  0.00    -0.162 NA
ATOM     16  C   UNL     1      32.456 -23.538 -15.877  0.00  0.00    +0.196 C 
ATOM     17  C   UNL     1      31.340 -22.842 -14.023  0.00  0.00    +0.167 C 
ATOM     18  C   UNL     1      30.224 -23.148 -16.052  0.00  0.00    +0.110 C 
ATOM     19  C   UNL     1      30.150 -22.791 -14.722  0.00  0.00    +0.022 C 
ENDBRANCH  13  16
ENDBRANCH  11  13
BRANCH   3  20
ATOM     20  C   UNL     1      35.626 -18.980 -22.312  0.00  0.00    +0.061 C 
BRANCH  20  24
ATOM     21  F   UNL     1      35.279 -17.084 -24.397  0.00  0.00    -0.202 F 
ATOM     22  N   UNL     1      34.578 -14.424 -23.916  0.00  0.00    -0.187 N 
ATOM     23  N   UNL     1      34.552 -14.883 -21.604  0.00  0.00    -0.226 NA
ATOM     24  C   UNL     1      35.252 -17.549 -22.067  0.00  0.00    +0.014 C 
ATOM     25  C   UNL     1      35.097 -16.672 -23.135  0.00  0.00    +0.169 C 
ATOM     26  C   UNL     1      35.056 -17.094 -20.767  0.00  0.00    +0.019 C 
ATOM     27  C   UNL     1      34.750 -15.361 -22.853  0.00  0.00    +0.175 C 
ATOM     28  C   UNL     1      34.710 -15.764 -20.591  0.00  0.00    +0.100 C 
ATOM     29  H   UNL     1      35.203 -14.395 -24.676  0.00  0.00    +0.176 HD
BRANCH  22  30
ATOM     30  S   UNL     1      33.232 -13.340 -23.819  0.00  0.00    +0.111 S 
ATOM     31  O   UNL     1      32.743 -13.106 -25.165  0.00  0.00    -0.138 OA
ATOM     32  O   UNL     1      32.315 -13.793 -22.789  0.00  0.00    -0.138 OA
BRANCH  30  33
ATOM     33  N   UNL     1      33.989 -11.897 -23.259  0.00  0.00    -0.165 NA
ATOM     34  C   UNL     1      33.172 -10.665 -23.215  0.00  0.00    +0.112 C 
ATOM     35  H   UNL     1      34.785 -11.714 -23.871  0.00  0.00    +0.150 HD
ENDBRANCH  30  33
ENDBRANCH  22  30
ENDBRANCH  20  24
ENDBRANCH   3  20
TORSDOF 6
ENDMDL
MODEL 8
REMARK VINA RESULT:     -11.1      4.224     10.233
REMARK  Name = 16719221
REMARK  6 active torsions:
REMARK  status: ('A' for Active; 'I' for Inactive)
REMARK    1  A    between atoms: C_3  and  C_20
REMARK    2  A    between atoms: C_11  and  O_13
REMARK    3  A    between atoms: O_13  and  C_16
REMARK    4  A    between atoms: C_20  and  C_24
REMARK    5  A    between atoms: N_22  and  S_30
REMARK    6  A    between atoms: S_30  and  N_33
REMARK                            x       y       z     vdW  Elec       q    Type
REMARK                         _______ _______ _______ _____ _____    ______ ____
ROOT
ATOM      1  O   UNL     1      33.344 -20.192 -20.252  0.00  0.00    -0.421 OA
ATOM      2  O   UNL     1      32.231 -21.764 -19.052  0.00  0.00    -0.245 OA
ATOM      3  C   UNL     1      34.602 -21.981 -19.130  0.00  0.00    +0.054 A 
ATOM      4  C   UNL     1      35.769 -21.507 -19.615  0.00  0.00    -0.016 A 
ATOM      5  C   UNL     1      35.768 -20.282 -20.442  0.00  0.00    +0.031 A 
ATOM      6  C   UNL     1      34.553 -19.668 -20.734  0.00  0.00    +0.151 A 
ATOM      7  C   UNL     1      33.303 -21.325 -19.456  0.00  0.00    +0.342 A 
ATOM      8  C   UNL     1      37.105 -22.166 -19.376  0.00  0.00    +0.031 C 
ATOM      9  C   UNL     1      36.927 -19.680 -20.955  0.00  0.00    +0.006 C 
ATOM     10  C   UNL     1      34.462 -18.509 -21.508  0.00  0.00    +0.076 C 
ATOM     11  C   UNL     1      35.624 -17.933 -22.010  0.00  0.00    +0.162 C 
ATOM     12  C   UNL     1      36.856 -18.517 -21.733  0.00  0.00    +0.039 C 
ENDROOT
BRANCH  11  13
ATOM     13  O   UNL     1      35.557 -16.805 -22.766  0.00  0.00    -0.392 OA
BRANCH  13  16
ATOM     14  N   UNL     1      34.748 -15.529 -21.000  0.00  0.00    -0.185 NA
ATOM     15  N   UNL     1      34.020 -15.135 -23.263  0.00  0.00    -0.162 NA
ATOM     16  C   UNL     1      34.739 -15.778 -22.324  0.00  0.00    +0.196 C 
ATOM     17  C   UNL     1      33.940 -14.524 -20.604  0.00  0.00    +0.167 C 
ATOM     18  C   UNL     1      33.234 -14.142 -22.798  0.00  0.00    +0.110 C 
ATOM     19  C   UNL     1      33.153 -13.788 -21.467  0.00  0.00    +0.022 C 
ENDBRANCH  13  16
ENDBRANCH  11  13
BRANCH   3  20
ATOM     20  C   UNL     1      34.468 -23.178 -18.224  0.00  0.00    +0.061 C 
BRANCH  20  24
ATOM     21  F   UNL     1      33.315 -23.932 -15.741  0.00  0.00    -0.202 F 
ATOM     22  N   UNL     1      34.603 -23.532 -13.295  0.00  0.00    -0.187 N 
ATOM     23  N   UNL     1      36.423 -22.574 -14.448  0.00  0.00    -0.226 NA
ATOM     24  C   UNL     1      35.149 -22.968 -16.904  0.00  0.00    +0.014 C 
ATOM     25  C   UNL     1      34.528 -23.362 -15.724  0.00  0.00    +0.169 C 
ATOM     26  C   UNL     1      36.408 -22.378 -16.857  0.00  0.00    +0.019 C 
ATOM     27  C   UNL     1      35.200 -23.144 -14.533  0.00  0.00    +0.175 C 
ATOM     28  C   UNL     1      36.997 -22.205 -15.615  0.00  0.00    +0.100 C 
ATOM     29  H   UNL     1      33.648 -23.370 -13.116  0.00  0.00    +0.176 HD
BRANCH  22  30
ATOM     30  S   UNL     1      35.620 -24.298 -12.121  0.00  0.00    +0.111 S 
ATOM     31  O   UNL     1      36.406 -23.269 -11.466  0.00  0.00    -0.138 OA
ATOM     32  O   UNL     1      34.833 -25.219 -11.323  0.00  0.00    -0.138 OA
BRANCH  30  33
ATOM     33  N   UNL     1      36.668 -25.226 -13.125  0.00  0.00    -0.165 NA
ATOM     34  C   UNL     1      37.183 -26.503 -12.585  0.00  0.00    +0.112 C 
ATOM     35  H   UNL     1      37.475 -24.641 -13.346  0.00  0.00    +0.150 HD
ENDBRANCH  30  33
ENDBRANCH  22  30
ENDBRANCH  20  24
ENDBRANCH   3  20
TORSDOF 6
ENDMDL
MODEL 9
REMARK VINA RESULT:     -10.8      2.295      2.817
REMARK  Name = 16719221
REMARK  6 active torsions:
REMARK  status: ('A' for Active; 'I' for Inactive)
REMARK    1  A    between atoms: C_3  and  C_20
REMARK    2  A    between atoms: C_11  and  O_13
REMARK    3  A    between atoms: O_13  and  C_16
REMARK    4  A    between atoms: C_20  and  C_24
REMARK    5  A    between atoms: N_22  and  S_30
REMARK    6  A    between atoms: S_30  and  N_33
REMARK                            x       y       z     vdW  Elec       q    Type
REMARK                         _______ _______ _______ _____ _____    ______ ____
ROOT
ATOM      1  O   UNL     1      37.282 -20.573 -19.040  0.00  0.00    -0.421 OA
ATOM      2  O   UNL     1      37.599 -19.410 -20.963  0.00  0.00    -0.245 OA
ATOM      3  C   UNL     1      35.455 -20.409 -20.677  0.00  0.00    +0.054 A 
ATOM      4  C   UNL     1      34.656 -21.181 -19.909  0.00  0.00    -0.016 A 
ATOM      5  C   UNL     1      35.152 -21.666 -18.605  0.00  0.00    +0.031 A 
ATOM      6  C   UNL     1      36.450 -21.347 -18.217  0.00  0.00    +0.151 A 
ATOM      7  C   UNL     1      36.849 -20.081 -20.261  0.00  0.00    +0.342 A 
ATOM      8  C   UNL     1      33.264 -21.603 -20.309  0.00  0.00    +0.031 C 
ATOM      9  C   UNL     1      34.389 -22.434 -17.711  0.00  0.00    +0.006 C 
ATOM     10  C   UNL     1      36.997 -21.766 -17.001  0.00  0.00    +0.076 C 
ATOM     11  C   UNL     1      36.224 -22.529 -16.134  0.00  0.00    +0.162 C 
ATOM     12  C   UNL     1      34.920 -22.862 -16.488  0.00  0.00    +0.039 C 
ENDROOT
BRANCH  11  13
ATOM     13  O   UNL     1      36.737 -22.947 -14.946  0.00  0.00    -0.392 OA
BRANCH  13  16
ATOM     14  N   UNL     1      36.093 -25.179 -15.009  0.00  0.00    -0.185 NA
ATOM     15  N   UNL     1      38.371 -24.549 -14.542  0.00  0.00    -0.162 NA
ATOM     16  C   UNL     1      37.082 -24.284 -14.827  0.00  0.00    +0.196 C 
ATOM     17  C   UNL     1      36.464 -26.471 -14.886  0.00  0.00    +0.167 C 
ATOM     18  C   UNL     1      38.672 -25.859 -14.432  0.00  0.00    +0.110 C 
ATOM     19  C   UNL     1      37.752 -26.874 -14.596  0.00  0.00    +0.022 C 
ENDBRANCH  13  16
ENDBRANCH  11  13
BRANCH   3  20
ATOM     20  C   UNL     1      35.053 -19.796 -21.994  0.00  0.00    +0.061 C 
BRANCH  20  24
ATOM     21  F   UNL     1      34.837 -18.126 -24.281  0.00  0.00    -0.202 F 
ATOM     22  N   UNL     1      34.643 -15.346 -24.107  0.00  0.00    -0.187 N 
ATOM     23  N   UNL     1      34.756 -15.518 -21.758  0.00  0.00    -0.226 NA
ATOM     24  C   UNL     1      34.950 -18.301 -21.914  0.00  0.00    +0.014 C 
ATOM     25  C   UNL     1      34.845 -17.543 -23.075  0.00  0.00    +0.169 C 
ATOM     26  C   UNL     1      34.957 -17.670 -20.675  0.00  0.00    +0.019 C 
ATOM     27  C   UNL     1      34.753 -16.167 -22.944  0.00  0.00    +0.175 C 
ATOM     28  C   UNL     1      34.858 -16.288 -20.652  0.00  0.00    +0.100 C 
ATOM     29  H   UNL     1      35.190 -15.519 -24.907  0.00  0.00    +0.176 HD
BRANCH  22  30
ATOM     30  S   UNL     1      33.514 -14.034 -24.057  0.00  0.00    +0.111 S 
ATOM     31  O   UNL     1      33.140 -13.710 -25.422  0.00  0.00    -0.138 OA
ATOM     32  O   UNL     1      32.483 -14.316 -23.076  0.00  0.00    -0.138 OA
BRANCH  30  33
ATOM     33  N   UNL     1      34.495 -12.757 -23.445  0.00  0.00    -0.165 NA
ATOM     34  C   UNL     1      33.871 -11.424 -23.293  0.00  0.00    +0.112 C 
ATOM     35  H   UNL     1      35.288 -12.652 -24.078  0.00  0.00    +0.150 HD
ENDBRANCH  30  33
ENDBRANCH  22  30
ENDBRANCH  20  24
ENDBRANCH   3  20
TORSDOF 6
ENDMDL
