MODEL 1
REMARK VINA RESULT:     -12.1      0.000      0.000
REMARK  Name = 448903
REMARK  11 active torsions:
REMARK  status: ('A' for Active; 'I' for Inactive)
REMARK    1  A    between atoms: N_1  and  C_22
REMARK    2  A    between atoms: C_8  and  N_11
REMARK    3  A    between atoms: C_12  and  C_14
REMARK    4  A    between atoms: C_14  and  C_15
REMARK    5  A    between atoms: C_15  and  C_16
REMARK    6  A    between atoms: C_22  and  C_23
REMARK    7  A    between atoms: C_23  and  C_24
REMARK    8  A    between atoms: C_24  and  N_25
REMARK    9  A    between atoms: C_24  and  C_35
REMARK   10  A    between atoms: C_29  and  C_32
REMARK   11  A    between atoms: C_35  and  O_36
REMARK                            x       y       z     vdW  Elec       q    Type
REMARK                         _______ _______ _______ _____ _____    ______ ____
ROOT
ATOM      1  N   UNL     1      33.618 -23.639 -15.835  0.00  0.00    -0.286 N 
ATOM      2  C   UNL     1      34.382 -22.985 -16.776  0.00  0.00    +0.053 C 
ATOM      3  C   UNL     1      35.697 -22.982 -16.305  0.00  0.00    +0.015 C 
ATOM      4  C   UNL     1      34.402 -24.048 -14.791  0.00  0.00    +0.065 C 
ATOM      5  C   UNL     1      35.694 -23.657 -15.053  0.00  0.00    +0.017 C 
ATOM      6  C   UNL     1      34.013 -22.403 -17.994  0.00  0.00    +0.029 C 
ATOM      7  C   UNL     1      36.696 -22.368 -17.088  0.00  0.00    +0.003 C 
ATOM      8  C   UNL     1      35.021 -21.800 -18.753  0.00  0.00    +0.052 C 
ATOM      9  C   UNL     1      36.342 -21.782 -18.309  0.00  0.00    +0.015 C 
ENDROOT
BRANCH   8  11
ATOM     10  O   UNL     1      36.306 -19.508 -20.214  0.00  0.00    -0.275 OA
ATOM     11  N   UNL     1      34.697 -21.209 -19.975  0.00  0.00    -0.284 N 
ATOM     12  C   UNL     1      35.340 -20.146 -20.621  0.00  0.00    +0.226 C 
ATOM     13  H   UNL     1      33.916 -21.586 -20.442  0.00  0.00    +0.155 HD
BRANCH  12  14
ATOM     14  C   UNL     1      34.683 -19.785 -21.944  0.00  0.00    +0.090 C 
BRANCH  14  15
ATOM     15  C   UNL     1      35.607 -18.938 -22.820  0.00  0.00    +0.036 C 
BRANCH  15  16
ATOM     16  C   UNL     1      35.027 -17.588 -23.170  0.00  0.00    -0.022 C 
ATOM     17  C   UNL     1      34.433 -17.386 -24.415  0.00  0.00    -0.004 C 
ATOM     18  C   UNL     1      35.086 -16.544 -22.247  0.00  0.00    -0.004 C 
ATOM     19  C   UNL     1      33.898 -16.139 -24.738  0.00  0.00    -0.000 C 
ATOM     20  C   UNL     1      34.550 -15.297 -22.570  0.00  0.00    -0.000 C 
ATOM     21  C   UNL     1      33.956 -15.094 -23.816  0.00  0.00    -0.000 C 
ENDBRANCH  15  16
ENDBRANCH  14  15
ENDBRANCH  12  14
ENDBRANCH   8  11
BRANCH   1  22
ATOM     22  C   UNL     1      32.191 -23.867 -15.922  0.00  0.00    +0.097 C 
BRANCH  22  23
ATOM     23  C   UNL     1      31.362 -23.084 -14.897  0.00  0.00    +0.040 C 
BRANCH  23  24
ATOM     24  C   UNL     1      30.027 -23.747 -14.487  0.00  0.00    +0.091 C 
BRANCH  24  25
ATOM     25  N   UNL     1      28.982 -23.653 -15.520  0.00  0.00    -0.246 NA
ATOM     26  N   UNL     1      27.529 -24.135 -17.129  0.00  0.00    -0.251 NA
ATOM     27  C   UNL     1      28.293 -22.524 -15.888  0.00  0.00    +0.125 C 
ATOM     28  C   UNL     1      28.497 -24.605 -16.285  0.00  0.00    +0.201 C 
ATOM     29  C   UNL     1      27.387 -22.798 -16.885  0.00  0.00    +0.124 C 
BRANCH  29  32
ATOM     30  O   UNL     1      26.211 -20.765 -17.158  0.00  0.00    -0.269 OA
ATOM     31  N   UNL     1      25.865 -22.385 -18.723  0.00  0.00    -0.324 N 
ATOM     32  C   UNL     1      26.478 -21.926 -17.551  0.00  0.00    +0.257 C 
ATOM     33  H   UNL     1      25.232 -21.807 -19.207  0.00  0.00    +0.145 HD
ATOM     34  H   UNL     1      26.067 -23.287 -19.064  0.00  0.00    +0.145 HD
ENDBRANCH  29  32
ENDBRANCH  24  25
BRANCH  24  35
ATOM     35  C   UNL     1      30.253 -25.214 -14.085  0.00  0.00    +0.153 C 
BRANCH  35  36
ATOM     36  O   UNL     1      30.577 -25.287 -12.701  0.00  0.00    -0.381 OA
ATOM     37  H   UNL     1      30.379 -24.437 -12.277  0.00  0.00    +0.210 HD
ENDBRANCH  35  36
ENDBRANCH  24  35
ENDBRANCH  23  24
ENDBRANCH  22  23
ENDBRANCH   1  22
TORSDOF 11
ENDMDL
MODEL 2
REMARK VINA RESULT:     -12.0      3.526      7.441
REMARK  Name = 448903
REMARK  11 active torsions:
REMARK  status: ('A' for Active; 'I' for Inactive)
REMARK    1  A    between atoms: N_1  and  C_22
REMARK    2  A    between atoms: C_8  and  N_11
REMARK    3  A    between atoms: C_12  and  C_14
REMARK    4  A    between atoms: C_14  and  C_15
REMARK    5  A    between atoms: C_15  and  C_16
REMARK    6  A    between atoms: C_22  and  C_23
REMARK    7  A    between atoms: C_23  and  C_24
REMARK    8  A    between atoms: C_24  and  N_25
REMARK    9  A    between atoms: C_24  and  C_35
REMARK   10  A    between atoms: C_29  and  C_32
REMARK   11  A    between atoms: C_35  and  O_36
REMARK                            x       y       z     vdW  Elec       q    Type
REMARK                         _______ _______ _______ _____ _____    ______ ____
ROOT
ATOM      1  N   UNL     1      32.632 -25.006 -13.612  0.00  0.00    -0.286 N 
ATOM      2  C   UNL     1      32.037 -24.299 -14.633  0.00  0.00    +0.053 C 
ATOM      3  C   UNL     1      30.658 -24.344 -14.413  0.00  0.00    +0.015 C 
ATOM      4  C   UNL     1      31.681 -25.493 -12.758  0.00  0.00    +0.065 C 
ATOM      5  C   UNL     1      30.449 -25.101 -13.226  0.00  0.00    +0.017 C 
ATOM      6  C   UNL     1      32.607 -23.630 -15.722  0.00  0.00    +0.029 C 
ATOM      7  C   UNL     1      29.804 -23.691 -15.325  0.00  0.00    +0.003 C 
ATOM      8  C   UNL     1      31.740 -22.989 -16.613  0.00  0.00    +0.052 C 
ATOM      9  C   UNL     1      30.360 -23.017 -16.418  0.00  0.00    +0.015 C 
ENDROOT
BRANCH   8  11
ATOM     10  O   UNL     1      33.815 -23.834 -18.617  0.00  0.00    -0.275 OA
ATOM     11  N   UNL     1      32.267 -22.309 -17.712  0.00  0.00    -0.284 N 
ATOM     12  C   UNL     1      33.228 -22.756 -18.627  0.00  0.00    +0.226 C 
ATOM     13  H   UNL     1      31.920 -21.400 -17.862  0.00  0.00    +0.155 HD
BRANCH  12  14
ATOM     14  C   UNL     1      33.545 -21.718 -19.692  0.00  0.00    +0.090 C 
BRANCH  14  15
ATOM     15  C   UNL     1      35.014 -21.295 -19.649  0.00  0.00    +0.036 C 
BRANCH  15  16
ATOM     16  C   UNL     1      35.361 -20.231 -20.662  0.00  0.00    -0.022 C 
ATOM     17  C   UNL     1      34.450 -19.899 -21.664  0.00  0.00    -0.004 C 
ATOM     18  C   UNL     1      36.592 -19.578 -20.593  0.00  0.00    -0.004 C 
ATOM     19  C   UNL     1      34.770 -18.916 -22.600  0.00  0.00    -0.000 C 
ATOM     20  C   UNL     1      36.912 -18.594 -21.529  0.00  0.00    -0.000 C 
ATOM     21  C   UNL     1      36.001 -18.263 -22.533  0.00  0.00    -0.000 C 
ENDBRANCH  15  16
ENDBRANCH  14  15
ENDBRANCH  12  14
ENDBRANCH   8  11
BRANCH   1  22
ATOM     22  C   UNL     1      34.056 -25.212 -13.452  0.00  0.00    +0.097 C 
BRANCH  22  23
ATOM     23  C   UNL     1      34.703 -24.337 -12.371  0.00  0.00    +0.040 C 
BRANCH  23  24
ATOM     24  C   UNL     1      36.044 -24.867 -11.814  0.00  0.00    +0.091 C 
BRANCH  24  25
ATOM     25  N   UNL     1      37.136 -24.861 -12.802  0.00  0.00    -0.246 NA
ATOM     26  N   UNL     1      38.499 -24.305 -14.466  0.00  0.00    -0.251 NA
ATOM     27  C   UNL     1      38.120 -25.807 -12.943  0.00  0.00    +0.125 C 
ATOM     28  C   UNL     1      37.393 -23.970 -13.734  0.00  0.00    +0.201 C 
ATOM     29  C   UNL     1      38.977 -25.485 -13.968  0.00  0.00    +0.124 C 
BRANCH  29  32
ATOM     30  O   UNL     1      40.488 -26.180 -15.648  0.00  0.00    -0.269 OA
ATOM     31  N   UNL     1      40.897 -26.892 -13.522  0.00  0.00    -0.324 N 
ATOM     32  C   UNL     1      40.123 -26.182 -14.448  0.00  0.00    +0.257 C 
ATOM     33  H   UNL     1      41.695 -27.384 -13.822  0.00  0.00    +0.145 HD
ATOM     34  H   UNL     1      40.643 -26.898 -12.570  0.00  0.00    +0.145 HD
ENDBRANCH  29  32
ENDBRANCH  24  25
BRANCH  24  35
ATOM     35  C   UNL     1      36.455 -24.083 -10.556  0.00  0.00    +0.153 C 
BRANCH  35  36
ATOM     36  O   UNL     1      35.749 -24.585  -9.427  0.00  0.00    -0.381 OA
ATOM     37  H   UNL     1      35.737 -25.554  -9.457  0.00  0.00    +0.210 HD
ENDBRANCH  35  36
ENDBRANCH  24  35
ENDBRANCH  23  24
ENDBRANCH  22  23
ENDBRANCH   1  22
TORSDOF 11
ENDMDL
MODEL 3
REMARK VINA RESULT:     -11.5      4.100      6.729
REMARK  Name = 448903
REMARK  11 active torsions:
REMARK  status: ('A' for Active; 'I' for Inactive)
REMARK    1  A    between atoms: N_1  and  C_22
REMARK    2  A    between atoms: C_8  and  N_11
REMARK    3  A    between atoms: C_12  and  C_14
REMARK    4  A    between atoms: C_14  and  C_15
REMARK    5  A    between atoms: C_15  and  C_16
REMARK    6  A    between atoms: C_22  and  C_23
REMARK    7  A    between atoms: C_23  and  C_24
REMARK    8  A    between atoms: C_24  and  N_25
REMARK    9  A    between atoms: C_24  and  C_35
REMARK   10  A    between atoms: C_29  and  C_32
REMARK   11  A    between atoms: C_35  and  O_36
REMARK                            x       y       z     vdW  Elec       q    Type
REMARK                         _______ _______ _______ _____ _____    ______ ____
ROOT
ATOM      1  N   UNL     1      36.218 -23.381 -15.548  0.00  0.00    -0.286 N 
ATOM      2  C   UNL     1      35.624 -22.890 -16.690  0.00  0.00    +0.053 C 
ATOM      3  C   UNL     1      34.305 -23.348 -16.695  0.00  0.00    +0.015 C 
ATOM      4  C   UNL     1      35.322 -24.129 -14.834  0.00  0.00    +0.065 C 
ATOM      5  C   UNL     1      34.128 -24.128 -15.518  0.00  0.00    +0.017 C 
ATOM      6  C   UNL     1      36.149 -22.085 -17.707  0.00  0.00    +0.029 C 
ATOM      7  C   UNL     1      33.466 -22.986 -17.769  0.00  0.00    +0.003 C 
ATOM      8  C   UNL     1      35.298 -21.739 -18.761  0.00  0.00    +0.052 C 
ATOM      9  C   UNL     1      33.977 -22.181 -18.792  0.00  0.00    +0.015 C 
ENDROOT
BRANCH   8  11
ATOM     10  O   UNL     1      33.829 -20.068 -20.784  0.00  0.00    -0.275 OA
ATOM     11  N   UNL     1      35.781 -20.936 -19.795  0.00  0.00    -0.284 N 
ATOM     12  C   UNL     1      35.051 -20.163 -20.706  0.00  0.00    +0.226 C 
ATOM     13  H   UNL     1      36.761 -20.910 -19.898  0.00  0.00    +0.155 HD
BRANCH  12  14
ATOM     14  C   UNL     1      35.943 -19.424 -21.691  0.00  0.00    +0.090 C 
BRANCH  14  15
ATOM     15  C   UNL     1      35.215 -19.134 -23.004  0.00  0.00    +0.036 C 
BRANCH  15  16
ATOM     16  C   UNL     1      34.885 -17.674 -23.196  0.00  0.00    -0.022 C 
ATOM     17  C   UNL     1      35.036 -16.780 -22.137  0.00  0.00    -0.004 C 
ATOM     18  C   UNL     1      34.429 -17.219 -24.433  0.00  0.00    -0.004 C 
ATOM     19  C   UNL     1      34.730 -15.430 -22.314  0.00  0.00    -0.000 C 
ATOM     20  C   UNL     1      34.123 -15.869 -24.610  0.00  0.00    -0.000 C 
ATOM     21  C   UNL     1      34.273 -14.975 -23.550  0.00  0.00    -0.000 C 
ENDBRANCH  15  16
ENDBRANCH  14  15
ENDBRANCH  12  14
ENDBRANCH   8  11
BRANCH   1  22
ATOM     22  C   UNL     1      37.589 -23.148 -15.147  0.00  0.00    +0.097 C 
BRANCH  22  23
ATOM     23  C   UNL     1      38.526 -24.340 -15.378  0.00  0.00    +0.040 C 
BRANCH  23  24
ATOM     24  C   UNL     1      39.173 -24.924 -14.102  0.00  0.00    +0.091 C 
BRANCH  24  25
ATOM     25  N   UNL     1      38.201 -25.252 -13.046  0.00  0.00    -0.246 NA
ATOM     26  N   UNL     1      36.755 -26.319 -11.741  0.00  0.00    -0.251 NA
ATOM     27  C   UNL     1      37.734 -24.408 -12.071  0.00  0.00    +0.125 C 
ATOM     28  C   UNL     1      37.593 -26.395 -12.819  0.00  0.00    +0.201 C 
ATOM     29  C   UNL     1      36.835 -25.047 -11.249  0.00  0.00    +0.124 C 
BRANCH  29  32
ATOM     30  O   UNL     1      35.267 -25.213  -9.487  0.00  0.00    -0.269 OA
ATOM     31  N   UNL     1      36.402 -23.247  -9.688  0.00  0.00    -0.324 N 
ATOM     32  C   UNL     1      36.120 -24.547 -10.123  0.00  0.00    +0.257 C 
ATOM     33  H   UNL     1      35.925 -22.872  -8.912  0.00  0.00    +0.145 HD
ATOM     34  H   UNL     1      37.078 -22.706 -10.158  0.00  0.00    +0.145 HD
ENDBRANCH  29  32
ENDBRANCH  24  25
BRANCH  24  35
ATOM     35  C   UNL     1      40.031 -26.154 -14.444  0.00  0.00    +0.153 C 
BRANCH  35  36
ATOM     36  O   UNL     1      40.332 -26.156 -15.835  0.00  0.00    -0.381 OA
ATOM     37  H   UNL     1      41.257 -26.416 -15.965  0.00  0.00    +0.210 HD
ENDBRANCH  35  36
ENDBRANCH  24  35
ENDBRANCH  23  24
ENDBRANCH  22  23
ENDBRANCH   1  22
TORSDOF 11
ENDMDL
MODEL 4
REMARK VINA RESULT:     -11.4      1.840      2.962
REMARK  Name = 448903
REMARK  11 active torsions:
REMARK  status: ('A' for Active; 'I' for Inactive)
REMARK    1  A    between atoms: N_1  and  C_22
REMARK    2  A    between atoms: C_8  and  N_11
REMARK    3  A    between atoms: C_12  and  C_14
REMARK    4  A    between atoms: C_14  and  C_15
REMARK    5  A    between atoms: C_15  and  C_16
REMARK    6  A    between atoms: C_22  and  C_23
REMARK    7  A    between atoms: C_23  and  C_24
REMARK    8  A    between atoms: C_24  and  N_25
REMARK    9  A    between atoms: C_24  and  C_35
REMARK   10  A    between atoms: C_29  and  C_32
REMARK   11  A    between atoms: C_35  and  O_36
REMARK                            x       y       z     vdW  Elec       q    Type
REMARK                         _______ _______ _______ _____ _____    ______ ____
ROOT
ATOM      1  N   UNL     1      34.686 -22.157 -18.441  0.00  0.00    -0.286 N 
ATOM      2  C   UNL     1      35.145 -21.228 -19.347  0.00  0.00    +0.053 C 
ATOM      3  C   UNL     1      36.499 -21.021 -19.072  0.00  0.00    +0.015 C 
ATOM      4  C   UNL     1      35.699 -22.544 -17.606  0.00  0.00    +0.065 C 
ATOM      5  C   UNL     1      36.834 -21.859 -17.971  0.00  0.00    +0.017 C 
ATOM      6  C   UNL     1      34.473 -20.562 -20.378  0.00  0.00    +0.029 C 
ATOM      7  C   UNL     1      37.219 -20.104 -19.864  0.00  0.00    +0.003 C 
ATOM      8  C   UNL     1      35.209 -19.658 -21.151  0.00  0.00    +0.052 C 
ATOM      9  C   UNL     1      36.561 -19.432 -20.899  0.00  0.00    +0.015 C 
ENDROOT
BRANCH   8  11
ATOM     10  O   UNL     1      34.937 -20.354 -24.063  0.00  0.00    -0.275 OA
ATOM     11  N   UNL     1      34.577 -18.974 -22.191  0.00  0.00    -0.284 N 
ATOM     12  C   UNL     1      34.467 -19.351 -23.535  0.00  0.00    +0.226 C 
ATOM     13  H   UNL     1      34.156 -18.117 -21.948  0.00  0.00    +0.155 HD
BRANCH  12  14
ATOM     14  C   UNL     1      33.699 -18.333 -24.364  0.00  0.00    +0.090 C 
BRANCH  14  15
ATOM     15  C   UNL     1      34.595 -17.178 -24.812  0.00  0.00    +0.036 C 
BRANCH  15  16
ATOM     16  C   UNL     1      34.265 -15.869 -24.138  0.00  0.00    -0.022 C 
ATOM     17  C   UNL     1      33.480 -14.923 -24.797  0.00  0.00    -0.004 C 
ATOM     18  C   UNL     1      34.745 -15.605 -22.854  0.00  0.00    -0.004 C 
ATOM     19  C   UNL     1      33.175 -13.713 -24.173  0.00  0.00    -0.000 C 
ATOM     20  C   UNL     1      34.440 -14.394 -22.231  0.00  0.00    -0.000 C 
ATOM     21  C   UNL     1      33.655 -13.448 -22.891  0.00  0.00    -0.000 C 
ENDBRANCH  15  16
ENDBRANCH  14  15
ENDBRANCH  12  14
ENDBRANCH   8  11
BRANCH   1  22
ATOM     22  C   UNL     1      33.331 -22.662 -18.368  0.00  0.00    +0.097 C 
BRANCH  22  23
ATOM     23  C   UNL     1      33.121 -23.758 -17.314  0.00  0.00    +0.040 C 
BRANCH  23  24
ATOM     24  C   UNL     1      32.546 -23.269 -15.965  0.00  0.00    +0.091 C 
BRANCH  24  25
ATOM     25  N   UNL     1      31.114 -23.564 -15.795  0.00  0.00    -0.246 NA
ATOM     26  N   UNL     1      29.186 -24.451 -15.139  0.00  0.00    -0.251 NA
ATOM     27  C   UNL     1      30.066 -22.925 -16.410  0.00  0.00    +0.125 C 
ATOM     28  C   UNL     1      30.549 -24.477 -15.036  0.00  0.00    +0.201 C 
ATOM     29  C   UNL     1      28.860 -23.457 -16.019  0.00  0.00    +0.124 C 
BRANCH  29  32
ATOM     30  O   UNL     1      27.061 -23.319 -17.546  0.00  0.00    -0.269 OA
ATOM     31  N   UNL     1      26.720 -22.474 -15.456  0.00  0.00    -0.324 N 
ATOM     32  C   UNL     1      27.539 -23.095 -16.407  0.00  0.00    +0.257 C 
ATOM     33  H   UNL     1      25.801 -22.212 -15.694  0.00  0.00    +0.145 HD
ATOM     34  H   UNL     1      27.062 -22.300 -14.550  0.00  0.00    +0.145 HD
ENDBRANCH  29  32
ENDBRANCH  24  25
BRANCH  24  35
ATOM     35  C   UNL     1      33.356 -23.845 -14.792  0.00  0.00    +0.153 C 
BRANCH  35  36
ATOM     36  O   UNL     1      34.365 -22.918 -14.406  0.00  0.00    -0.381 OA
ATOM     37  H   UNL     1      34.892 -23.296 -13.684  0.00  0.00    +0.210 HD
ENDBRANCH  35  36
ENDBRANCH  24  35
ENDBRANCH  23  24
ENDBRANCH  22  23
ENDBRANCH   1  22
TORSDOF 11
ENDMDL
MODEL 5
REMARK VINA RESULT:     -10.9      7.250     12.569
REMARK  Name = 448903
REMARK  11 active torsions:
REMARK  status: ('A' for Active; 'I' for Inactive)
REMARK    1  A    between atoms: N_1  and  C_22
REMARK    2  A    between atoms: C_8  and  N_11
REMARK    3  A    between atoms: C_12  and  C_14
REMARK    4  A    between atoms: C_14  and  C_15
REMARK    5  A    between atoms: C_15  and  C_16
REMARK    6  A    between atoms: C_22  and  C_23
REMARK    7  A    between atoms: C_23  and  C_24
REMARK    8  A    between atoms: C_24  and  N_25
REMARK    9  A    between atoms: C_24  and  C_35
REMARK   10  A    between atoms: C_29  and  C_32
REMARK   11  A    between atoms: C_35  and  O_36
REMARK                            x       y       z     vdW  Elec       q    Type
REMARK                         _______ _______ _______ _____ _____    ______ ____
ROOT
ATOM      1  N   UNL     1      32.678 -13.348 -21.972  0.00  0.00    -0.286 N 
ATOM      2  C   UNL     1      32.345 -12.017 -21.850  0.00  0.00    +0.053 C 
ATOM      3  C   UNL     1      31.915 -11.822 -20.535  0.00  0.00    +0.015 C 
ATOM      4  C   UNL     1      32.474 -13.997 -20.785  0.00  0.00    +0.065 C 
ATOM      5  C   UNL     1      32.002 -13.080 -19.876  0.00  0.00    +0.017 C 
ATOM      6  C   UNL     1      32.392 -10.983 -22.791  0.00  0.00    +0.029 C 
ATOM      7  C   UNL     1      31.510 -10.531 -20.139  0.00  0.00    +0.003 C 
ATOM      8  C   UNL     1      31.987  -9.711 -22.374  0.00  0.00    +0.052 C 
ATOM      9  C   UNL     1      31.552  -9.487 -21.069  0.00  0.00    +0.015 C 
ENDROOT
BRANCH   8  11
ATOM     10  O   UNL     1      34.289  -8.029 -23.327  0.00  0.00    -0.275 OA
ATOM     11  N   UNL     1      32.019  -8.651 -23.282  0.00  0.00    -0.284 N 
ATOM     12  C   UNL     1      33.127  -7.905 -23.703  0.00  0.00    +0.226 C 
ATOM     13  H   UNL     1      31.154  -8.394 -23.675  0.00  0.00    +0.155 HD
BRANCH  12  14
ATOM     14  C   UNL     1      32.755  -6.826 -24.708  0.00  0.00    +0.090 C 
BRANCH  14  15
ATOM     15  C   UNL     1      31.421  -6.166 -24.359  0.00  0.00    +0.036 C 
BRANCH  15  16
ATOM     16  C   UNL     1      31.572  -4.911 -23.534  0.00  0.00    -0.022 C 
ATOM     17  C   UNL     1      31.509  -4.979 -22.142  0.00  0.00    -0.004 C 
ATOM     18  C   UNL     1      31.776  -3.683 -24.163  0.00  0.00    -0.004 C 
ATOM     19  C   UNL     1      31.648  -3.820 -21.380  0.00  0.00    -0.000 C 
ATOM     20  C   UNL     1      31.915  -2.523 -23.400  0.00  0.00    -0.000 C 
ATOM     21  C   UNL     1      31.851  -2.592 -22.008  0.00  0.00    -0.000 C 
ENDBRANCH  15  16
ENDBRANCH  14  15
ENDBRANCH  12  14
ENDBRANCH   8  11
BRANCH   1  22
ATOM     22  C   UNL     1      33.173 -13.983 -23.175  0.00  0.00    +0.097 C 
BRANCH  22  23
ATOM     23  C   UNL     1      34.469 -14.781 -22.981  0.00  0.00    +0.040 C 
BRANCH  23  24
ATOM     24  C   UNL     1      34.669 -15.957 -23.964  0.00  0.00    +0.091 C 
BRANCH  24  25
ATOM     25  N   UNL     1      34.917 -17.245 -23.297  0.00  0.00    -0.246 NA
ATOM     26  N   UNL     1      34.959 -19.408 -22.791  0.00  0.00    -0.251 NA
ATOM     27  C   UNL     1      35.613 -17.444 -22.131  0.00  0.00    +0.125 C 
ATOM     28  C   UNL     1      34.537 -18.447 -23.669  0.00  0.00    +0.201 C 
ATOM     29  C   UNL     1      35.652 -18.778 -21.796  0.00  0.00    +0.124 C 
BRANCH  29  32
ATOM     30  O   UNL     1      37.387 -19.096 -20.222  0.00  0.00    -0.269 OA
ATOM     31  N   UNL     1      35.559 -20.445 -20.043  0.00  0.00    -0.324 N 
ATOM     32  C   UNL     1      36.264 -19.416 -20.680  0.00  0.00    +0.257 C 
ATOM     33  H   UNL     1      35.954 -20.906 -19.268  0.00  0.00    +0.145 HD
ATOM     34  H   UNL     1      34.668 -20.707 -20.370  0.00  0.00    +0.145 HD
ENDBRANCH  29  32
ENDBRANCH  24  25
BRANCH  24  35
ATOM     35  C   UNL     1      33.472 -16.070 -24.923  0.00  0.00    +0.153 C 
BRANCH  35  36
ATOM     36  O   UNL     1      33.712 -15.284 -26.084  0.00  0.00    -0.381 OA
ATOM     37  H   UNL     1      34.476 -15.640 -26.564  0.00  0.00    +0.210 HD
ENDBRANCH  35  36
ENDBRANCH  24  35
ENDBRANCH  23  24
ENDBRANCH  22  23
ENDBRANCH   1  22
TORSDOF 11
ENDMDL
MODEL 6
REMARK VINA RESULT:     -10.9      4.883      9.934
REMARK  Name = 448903
REMARK  11 active torsions:
REMARK  status: ('A' for Active; 'I' for Inactive)
REMARK    1  A    between atoms: N_1  and  C_22
REMARK    2  A    between atoms: C_8  and  N_11
REMARK    3  A    between atoms: C_12  and  C_14
REMARK    4  A    between atoms: C_14  and  C_15
REMARK    5  A    between atoms: C_15  and  C_16
REMARK    6  A    between atoms: C_22  and  C_23
REMARK    7  A    between atoms: C_23  and  C_24
REMARK    8  A    between atoms: C_24  and  N_25
REMARK    9  A    between atoms: C_24  and  C_35
REMARK   10  A    between atoms: C_29  and  C_32
REMARK   11  A    between atoms: C_35  and  O_36
REMARK                            x       y       z     vdW  Elec       q    Type
REMARK                         _______ _______ _______ _____ _____    ______ ____
ROOT
ATOM      1  N   UNL     1      34.743 -16.519 -22.959  0.00  0.00    -0.286 N 
ATOM      2  C   UNL     1      34.237 -15.357 -23.498  0.00  0.00    +0.053 C 
ATOM      3  C   UNL     1      33.889 -15.636 -24.822  0.00  0.00    +0.015 C 
ATOM      4  C   UNL     1      34.725 -17.519 -23.893  0.00  0.00    +0.065 C 
ATOM      5  C   UNL     1      34.202 -17.005 -25.056  0.00  0.00    +0.017 C 
ATOM      6  C   UNL     1      34.064 -14.093 -22.921  0.00  0.00    +0.029 C 
ATOM      7  C   UNL     1      33.340 -14.605 -25.610  0.00  0.00    +0.003 C 
ATOM      8  C   UNL     1      33.517 -13.086 -23.723  0.00  0.00    +0.052 C 
ATOM      9  C   UNL     1      33.160 -13.337 -25.047  0.00  0.00    +0.015 C 
ENDROOT
BRANCH   8  11
ATOM     10  O   UNL     1      31.298 -12.005 -22.007  0.00  0.00    -0.275 OA
ATOM     11  N   UNL     1      33.326 -11.812 -23.186  0.00  0.00    -0.284 N 
ATOM     12  C   UNL     1      32.276 -11.362 -22.377  0.00  0.00    +0.226 C 
ATOM     13  H   UNL     1      34.017 -11.145 -23.405  0.00  0.00    +0.155 HD
BRANCH  12  14
ATOM     14  C   UNL     1      32.423  -9.898 -21.992  0.00  0.00    +0.090 C 
BRANCH  14  15
ATOM     15  C   UNL     1      32.001  -8.969 -23.131  0.00  0.00    +0.036 C 
BRANCH  15  16
ATOM     16  C   UNL     1      33.077  -7.989 -23.533  0.00  0.00    -0.022 C 
ATOM     17  C   UNL     1      34.391  -8.182 -23.109  0.00  0.00    -0.004 C 
ATOM     18  C   UNL     1      32.756  -6.890 -24.331  0.00  0.00    -0.004 C 
ATOM     19  C   UNL     1      35.384  -7.276 -23.480  0.00  0.00    -0.000 C 
ATOM     20  C   UNL     1      33.749  -5.984 -24.702  0.00  0.00    -0.000 C 
ATOM     21  C   UNL     1      35.064  -6.177 -24.277  0.00  0.00    -0.000 C 
ENDBRANCH  15  16
ENDBRANCH  14  15
ENDBRANCH  12  14
ENDBRANCH   8  11
BRANCH   1  22
ATOM     22  C   UNL     1      35.227 -16.676 -21.604  0.00  0.00    +0.097 C 
BRANCH  22  23
ATOM     23  C   UNL     1      34.959 -18.058 -20.994  0.00  0.00    +0.040 C 
BRANCH  23  24
ATOM     24  C   UNL     1      36.221 -18.884 -20.660  0.00  0.00    +0.091 C 
BRANCH  24  25
ATOM     25  N   UNL     1      35.929 -20.156 -19.978  0.00  0.00    -0.246 NA
ATOM     26  N   UNL     1      36.102 -22.019 -18.782  0.00  0.00    -0.251 NA
ATOM     27  C   UNL     1      34.727 -20.819 -19.959  0.00  0.00    +0.125 C 
ATOM     28  C   UNL     1      36.735 -20.905 -19.260  0.00  0.00    +0.201 C 
ATOM     29  C   UNL     1      34.810 -21.978 -19.224  0.00  0.00    +0.124 C 
BRANCH  29  32
ATOM     30  O   UNL     1      33.909 -24.163 -19.263  0.00  0.00    -0.269 OA
ATOM     31  N   UNL     1      32.658 -22.539 -18.267  0.00  0.00    -0.324 N 
ATOM     32  C   UNL     1      33.809 -22.953 -18.949  0.00  0.00    +0.257 C 
ATOM     33  H   UNL     1      31.947 -23.189 -18.061  0.00  0.00    +0.145 HD
ATOM     34  H   UNL     1      32.559 -21.598 -17.993  0.00  0.00    +0.145 HD
ENDBRANCH  29  32
ENDBRANCH  24  25
BRANCH  24  35
ATOM     35  C   UNL     1      37.054 -19.134 -21.928  0.00  0.00    +0.153 C 
BRANCH  35  36
ATOM     36  O   UNL     1      38.405 -18.750 -21.697  0.00  0.00    -0.381 OA
ATOM     37  H   UNL     1      38.568 -17.883 -22.100  0.00  0.00    +0.210 HD
ENDBRANCH  35  36
ENDBRANCH  24  35
ENDBRANCH  23  24
ENDBRANCH  22  23
ENDBRANCH   1  22
TORSDOF 11
ENDMDL
MODEL 7
REMARK VINA RESULT:     -10.8      2.689      4.839
REMARK  Name = 448903
REMARK  11 active torsions:
REMARK  status: ('A' for Active; 'I' for Inactive)
REMARK    1  A    between atoms: N_1  and  C_22
REMARK    2  A    between atoms: C_8  and  N_11
REMARK    3  A    between atoms: C_12  and  C_14
REMARK    4  A    between atoms: C_14  and  C_15
REMARK    5  A    between atoms: C_15  and  C_16
REMARK    6  A    between atoms: C_22  and  C_23
REMARK    7  A    between atoms: C_23  and  C_24
REMARK    8  A    between atoms: C_24  and  N_25
REMARK    9  A    between atoms: C_24  and  C_35
REMARK   10  A    between atoms: C_29  and  C_32
REMARK   11  A    between atoms: C_35  and  O_36
REMARK                            x       y       z     vdW  Elec       q    Type
REMARK                         _______ _______ _______ _____ _____    ______ ____
ROOT
ATOM      1  N   UNL     1      34.481 -22.326 -18.335  0.00  0.00    -0.286 N 
ATOM      2  C   UNL     1      34.982 -21.406 -19.228  0.00  0.00    +0.053 C 
ATOM      3  C   UNL     1      36.331 -21.223 -18.914  0.00  0.00    +0.015 C 
ATOM      4  C   UNL     1      35.462 -22.730 -17.471  0.00  0.00    +0.065 C 
ATOM      5  C   UNL     1      36.619 -22.066 -17.804  0.00  0.00    +0.017 C 
ATOM      6  C   UNL     1      34.353 -20.728 -20.278  0.00  0.00    +0.029 C 
ATOM      7  C   UNL     1      37.090 -20.319 -19.685  0.00  0.00    +0.003 C 
ATOM      8  C   UNL     1      35.127 -19.838 -21.030  0.00  0.00    +0.052 C 
ATOM      9  C   UNL     1      36.474 -19.636 -20.739  0.00  0.00    +0.015 C 
ENDROOT
BRANCH   8  11
ATOM     10  O   UNL     1      35.058 -20.455 -23.971  0.00  0.00    -0.275 OA
ATOM     11  N   UNL     1      34.538 -19.144 -22.087  0.00  0.00    -0.284 N 
ATOM     12  C   UNL     1      34.523 -19.483 -23.446  0.00  0.00    +0.226 C 
ATOM     13  H   UNL     1      34.073 -18.308 -21.848  0.00  0.00    +0.155 HD
BRANCH  12  14
ATOM     14  C   UNL     1      33.774 -18.466 -24.293  0.00  0.00    +0.090 C 
BRANCH  14  15
ATOM     15  C   UNL     1      34.677 -17.305 -24.711  0.00  0.00    +0.036 C 
BRANCH  15  16
ATOM     16  C   UNL     1      34.300 -15.992 -24.069  0.00  0.00    -0.022 C 
ATOM     17  C   UNL     1      33.465 -15.101 -24.742  0.00  0.00    -0.004 C 
ATOM     18  C   UNL     1      34.785 -15.671 -22.801  0.00  0.00    -0.004 C 
ATOM     19  C   UNL     1      33.116 -13.887 -24.149  0.00  0.00    -0.000 C 
ATOM     20  C   UNL     1      34.436 -14.458 -22.208  0.00  0.00    -0.000 C 
ATOM     21  C   UNL     1      33.602 -13.566 -22.882  0.00  0.00    -0.000 C 
ENDBRANCH  15  16
ENDBRANCH  14  15
ENDBRANCH  12  14
ENDBRANCH   8  11
BRANCH   1  22
ATOM     22  C   UNL     1      33.116 -22.806 -18.301  0.00  0.00    +0.097 C 
BRANCH  22  23
ATOM     23  C   UNL     1      32.379 -22.525 -16.985  0.00  0.00    +0.040 C 
BRANCH  23  24
ATOM     24  C   UNL     1      31.901 -23.780 -16.220  0.00  0.00    +0.091 C 
BRANCH  24  25
ATOM     25  N   UNL     1      32.530 -23.939 -14.898  0.00  0.00    -0.246 NA
ATOM     26  N   UNL     1      32.882 -24.064 -12.709  0.00  0.00    -0.251 NA
ATOM     27  C   UNL     1      33.851 -24.216 -14.647  0.00  0.00    +0.125 C 
ATOM     28  C   UNL     1      31.975 -23.855 -13.710  0.00  0.00    +0.201 C 
ATOM     29  C   UNL     1      34.094 -24.298 -13.296  0.00  0.00    +0.124 C 
BRANCH  29  32
ATOM     30  O   UNL     1      35.810 -23.796 -11.749  0.00  0.00    -0.269 OA
ATOM     31  N   UNL     1      35.977 -25.764 -12.887  0.00  0.00    -0.324 N 
ATOM     32  C   UNL     1      35.311 -24.564 -12.607  0.00  0.00    +0.257 C 
ATOM     33  H   UNL     1      36.820 -25.978 -12.427  0.00  0.00    +0.145 HD
ATOM     34  H   UNL     1      35.601 -26.394 -13.544  0.00  0.00    +0.145 HD
ENDBRANCH  29  32
ENDBRANCH  24  25
BRANCH  24  35
ATOM     35  C   UNL     1      30.369 -23.782 -16.088  0.00  0.00    +0.153 C 
BRANCH  35  36
ATOM     36  O   UNL     1      29.825 -22.674 -16.796  0.00  0.00    -0.381 OA
ATOM     37  H   UNL     1      28.864 -22.779 -16.873  0.00  0.00    +0.210 HD
ENDBRANCH  35  36
ENDBRANCH  24  35
ENDBRANCH  23  24
ENDBRANCH  22  23
ENDBRANCH   1  22
TORSDOF 11
ENDMDL
MODEL 8
REMARK VINA RESULT:     -10.6      3.668      6.796
REMARK  Name = 448903
REMARK  11 active torsions:
REMARK  status: ('A' for Active; 'I' for Inactive)
REMARK    1  A    between atoms: N_1  and  C_22
REMARK    2  A    between atoms: C_8  and  N_11
REMARK    3  A    between atoms: C_12  and  C_14
REMARK    4  A    between atoms: C_14  and  C_15
REMARK    5  A    between atoms: C_15  and  C_16
REMARK    6  A    between atoms: C_22  and  C_23
REMARK    7  A    between atoms: C_23  and  C_24
REMARK    8  A    between atoms: C_24  and  N_25
REMARK    9  A    between atoms: C_24  and  C_35
REMARK   10  A    between atoms: C_29  and  C_32
REMARK   11  A    between atoms: C_35  and  O_36
REMARK                            x       y       z     vdW  Elec       q    Type
REMARK                         _______ _______ _______ _____ _____    ______ ____
ROOT
ATOM      1  N   UNL     1      34.669 -22.990 -16.768  0.00  0.00    -0.286 N 
ATOM      2  C   UNL     1      34.341 -22.296 -17.912  0.00  0.00    +0.053 C 
ATOM      3  C   UNL     1      32.973 -22.481 -18.125  0.00  0.00    +0.015 C 
ATOM      4  C   UNL     1      33.559 -23.603 -16.253  0.00  0.00    +0.065 C 
ATOM      5  C   UNL     1      32.494 -23.307 -17.070  0.00  0.00    +0.017 C 
ATOM      6  C   UNL     1      35.142 -21.529 -18.764  0.00  0.00    +0.029 C 
ATOM      7  C   UNL     1      32.373 -21.870 -19.244  0.00  0.00    +0.003 C 
ATOM      8  C   UNL     1      34.525 -20.932 -19.868  0.00  0.00    +0.052 C 
ATOM      9  C   UNL     1      33.162 -21.098 -20.105  0.00  0.00    +0.015 C 
ENDROOT
BRANCH   8  11
ATOM     10  O   UNL     1      37.169 -19.561 -19.459  0.00  0.00    -0.275 OA
ATOM     11  N   UNL     1      35.287 -20.156 -20.742  0.00  0.00    -0.284 N 
ATOM     12  C   UNL     1      36.526 -19.548 -20.505  0.00  0.00    +0.226 C 
ATOM     13  H   UNL     1      34.906 -20.019 -21.640  0.00  0.00    +0.155 HD
BRANCH  12  14
ATOM     14  C   UNL     1      37.040 -18.782 -21.714  0.00  0.00    +0.090 C 
BRANCH  14  15
ATOM     15  C   UNL     1      35.899 -18.346 -22.633  0.00  0.00    +0.036 C 
BRANCH  15  16
ATOM     16  C   UNL     1      35.320 -17.000 -22.272  0.00  0.00    -0.022 C 
ATOM     17  C   UNL     1      35.005 -16.084 -23.275  0.00  0.00    -0.004 C 
ATOM     18  C   UNL     1      35.099 -16.672 -20.934  0.00  0.00    -0.004 C 
ATOM     19  C   UNL     1      34.470 -14.839 -22.941  0.00  0.00    -0.000 C 
ATOM     20  C   UNL     1      34.564 -15.428 -20.600  0.00  0.00    -0.000 C 
ATOM     21  C   UNL     1      34.250 -14.511 -21.603  0.00  0.00    -0.000 C 
ENDBRANCH  15  16
ENDBRANCH  14  15
ENDBRANCH  12  14
ENDBRANCH   8  11
BRANCH   1  22
ATOM     22  C   UNL     1      35.991 -23.069 -16.183  0.00  0.00    +0.097 C 
BRANCH  22  23
ATOM     23  C   UNL     1      36.003 -23.064 -14.648  0.00  0.00    +0.040 C 
BRANCH  23  24
ATOM     24  C   UNL     1      35.767 -24.440 -13.986  0.00  0.00    +0.091 C 
BRANCH  24  25
ATOM     25  N   UNL     1      36.926 -25.344 -14.074  0.00  0.00    -0.246 NA
ATOM     26  N   UNL     1      38.213 -27.145 -14.253  0.00  0.00    -0.251 NA
ATOM     27  C   UNL     1      38.250 -24.984 -14.039  0.00  0.00    +0.125 C 
ATOM     28  C   UNL     1      36.938 -26.651 -14.204  0.00  0.00    +0.201 C 
ATOM     29  C   UNL     1      39.068 -26.085 -14.148  0.00  0.00    +0.124 C 
BRANCH  29  32
ATOM     30  O   UNL     1      41.234 -25.266 -14.623  0.00  0.00    -0.269 OA
ATOM     31  N   UNL     1      41.090 -27.295 -13.594  0.00  0.00    -0.324 N 
ATOM     32  C   UNL     1      40.490 -26.162 -14.158  0.00  0.00    +0.257 C 
ATOM     33  H   UNL     1      42.071 -27.378 -13.584  0.00  0.00    +0.145 HD
ATOM     34  H   UNL     1      40.532 -28.007 -13.207  0.00  0.00    +0.145 HD
ENDBRANCH  29  32
ENDBRANCH  24  25
BRANCH  24  35
ATOM     35  C   UNL     1      35.331 -24.268 -12.521  0.00  0.00    +0.153 C 
BRANCH  35  36
ATOM     36  O   UNL     1      33.959 -23.892 -12.470  0.00  0.00    -0.381 OA
ATOM     37  H   UNL     1      33.424 -24.559 -12.927  0.00  0.00    +0.210 HD
ENDBRANCH  35  36
ENDBRANCH  24  35
ENDBRANCH  23  24
ENDBRANCH  22  23
ENDBRANCH   1  22
TORSDOF 11
ENDMDL
MODEL 9
REMARK VINA RESULT:     -10.6      8.499     13.996
REMARK  Name = 448903
REMARK  11 active torsions:
REMARK  status: ('A' for Active; 'I' for Inactive)
REMARK    1  A    between atoms: N_1  and  C_22
REMARK    2  A    between atoms: C_8  and  N_11
REMARK    3  A    between atoms: C_12  and  C_14
REMARK    4  A    between atoms: C_14  and  C_15
REMARK    5  A    between atoms: C_15  and  C_16
REMARK    6  A    between atoms: C_22  and  C_23
REMARK    7  A    between atoms: C_23  and  C_24
REMARK    8  A    between atoms: C_24  and  N_25
REMARK    9  A    between atoms: C_24  and  C_35
REMARK   10  A    between atoms: C_29  and  C_32
REMARK   11  A    between atoms: C_35  and  O_36
REMARK                            x       y       z     vdW  Elec       q    Type
REMARK                         _______ _______ _______ _____ _____    ______ ____
ROOT
ATOM      1  N   UNL     1      32.184 -10.771 -22.264  0.00  0.00    -0.286 N 
ATOM      2  C   UNL     1      32.517 -12.047 -21.868  0.00  0.00    +0.053 C 
ATOM      3  C   UNL     1      31.939 -12.250 -20.612  0.00  0.00    +0.015 C 
ATOM      4  C   UNL     1      31.418 -10.163 -21.307  0.00  0.00    +0.065 C 
ATOM      5  C   UNL     1      31.248 -11.053 -20.272  0.00  0.00    +0.017 C 
ATOM      6  C   UNL     1      33.278 -13.026 -22.517  0.00  0.00    +0.029 C 
ATOM      7  C   UNL     1      32.129 -13.491 -19.972  0.00  0.00    +0.003 C 
ATOM      8  C   UNL     1      33.451 -14.249 -21.862  0.00  0.00    +0.052 C 
ATOM      9  C   UNL     1      32.886 -14.480 -20.609  0.00  0.00    +0.015 C 
ENDROOT
BRANCH   8  11
ATOM     10  O   UNL     1      33.276 -15.398 -24.635  0.00  0.00    -0.275 OA
ATOM     11  N   UNL     1      34.202 -15.253 -22.475  0.00  0.00    -0.284 N 
ATOM     12  C   UNL     1      34.088 -15.745 -23.782  0.00  0.00    +0.226 C 
ATOM     13  H   UNL     1      34.900 -15.670 -21.919  0.00  0.00    +0.155 HD
BRANCH  12  14
ATOM     14  C   UNL     1      35.091 -16.847 -24.079  0.00  0.00    +0.090 C 
BRANCH  14  15
ATOM     15  C   UNL     1      34.529 -18.229 -23.741  0.00  0.00    +0.036 C 
BRANCH  15  16
ATOM     16  C   UNL     1      35.163 -18.850 -22.519  0.00  0.00    -0.022 C 
ATOM     17  C   UNL     1      36.452 -18.478 -22.137  0.00  0.00    -0.004 C 
ATOM     18  C   UNL     1      34.459 -19.795 -21.772  0.00  0.00    -0.004 C 
ATOM     19  C   UNL     1      37.037 -19.052 -21.009  0.00  0.00    -0.000 C 
ATOM     20  C   UNL     1      35.045 -20.368 -20.644  0.00  0.00    -0.000 C 
ATOM     21  C   UNL     1      36.334 -19.997 -20.262  0.00  0.00    -0.000 C 
ENDBRANCH  15  16
ENDBRANCH  14  15
ENDBRANCH  12  14
ENDBRANCH   8  11
BRANCH   1  22
ATOM     22  C   UNL     1      32.580 -10.148 -23.509  0.00  0.00    +0.097 C 
BRANCH  22  23
ATOM     23  C   UNL     1      31.935  -8.779 -23.763  0.00  0.00    +0.040 C 
BRANCH  23  24
ATOM     24  C   UNL     1      32.894  -7.571 -23.657  0.00  0.00    +0.091 C 
BRANCH  24  25
ATOM     25  N   UNL     1      32.202  -6.283 -23.491  0.00  0.00    -0.246 NA
ATOM     26  N   UNL     1      30.940  -4.486 -23.822  0.00  0.00    -0.251 NA
ATOM     27  C   UNL     1      32.269  -5.451 -22.401  0.00  0.00    +0.125 C 
ATOM     28  C   UNL     1      31.393  -5.673 -24.328  0.00  0.00    +0.201 C 
ATOM     29  C   UNL     1      31.495  -4.329 -22.584  0.00  0.00    +0.124 C 
BRANCH  29  32
ATOM     30  O   UNL     1      32.145  -2.780 -20.920  0.00  0.00    -0.269 OA
ATOM     31  N   UNL     1      30.037  -2.579 -21.762  0.00  0.00    -0.324 N 
ATOM     32  C   UNL     1      31.279  -3.223 -21.713  0.00  0.00    +0.257 C 
ATOM     33  H   UNL     1      29.857  -1.811 -21.173  0.00  0.00    +0.145 HD
ATOM     34  H   UNL     1      29.343  -2.894 -22.386  0.00  0.00    +0.145 HD
ENDBRANCH  29  32
ENDBRANCH  24  25
BRANCH  24  35
ATOM     35  C   UNL     1      33.910  -7.786 -22.523  0.00  0.00    +0.153 C 
BRANCH  35  36
ATOM     36  O   UNL     1      35.212  -7.424 -22.971  0.00  0.00    -0.381 OA
ATOM     37  H   UNL     1      35.461  -7.980 -23.726  0.00  0.00    +0.210 HD
ENDBRANCH  35  36
ENDBRANCH  24  35
ENDBRANCH  23  24
ENDBRANCH  22  23
ENDBRANCH   1  22
TORSDOF 11
ENDMDL
