MODEL 1
REMARK VINA RESULT:     -13.5      0.000      0.000
REMARK  Name = 11581936
REMARK  5 active torsions:
REMARK  status: ('A' for Active; 'I' for Inactive)
REMARK    1  A    between atoms: C_1  and  C_9
REMARK    2  A    between atoms: C_4  and  O_19
REMARK    3  A    between atoms: C_10  and  C_14
REMARK    4  A    between atoms: O_19  and  C_20
REMARK    5  A    between atoms: C_20  and  C_22
REMARK                            x       y       z     vdW  Elec       q    Type
REMARK                         _______ _______ _______ _____ _____    ______ ____
ROOT
ATOM      1  C   UNL     1      33.730 -22.136 -18.396  0.00  0.00    +0.019 C 
ATOM      2  C   UNL     1      35.079 -22.317 -18.703  0.00  0.00    +0.005 C 
ATOM      3  C   UNL     1      32.949 -21.273 -19.164  0.00  0.00    +0.005 C 
ATOM      4  C   UNL     1      34.861 -20.776 -20.541  0.00  0.00    +0.139 C 
ATOM      5  C   UNL     1      35.645 -21.634 -19.779  0.00  0.00    +0.037 C 
ATOM      6  C   UNL     1      33.516 -20.591 -20.241  0.00  0.00    +0.037 C 
ENDROOT
BRANCH   1   9
ATOM      7  N   UNL     1      31.656 -23.713 -16.087  0.00  0.00    -0.208 N 
ATOM      8  N   UNL     1      31.823 -23.042 -17.239  0.00  0.00    -0.178 NA
ATOM      9  C   UNL     1      33.146 -22.838 -17.288  0.00  0.00    +0.100 C 
ATOM     10  C   UNL     1      33.813 -23.379 -16.169  0.00  0.00    +0.036 C 
ATOM     11  C   UNL     1      32.817 -23.941 -15.408  0.00  0.00    +0.086 C 
ATOM     12  C   UNL     1      30.332 -24.118 -15.680  0.00  0.00    +0.140 C 
BRANCH  10  14
ATOM     13  N   UNL     1      37.900 -23.442 -15.077  0.00  0.00    -0.242 NA
ATOM     14  C   UNL     1      35.196 -23.401 -15.800  0.00  0.00    +0.006 C 
ATOM     15  C   UNL     1      36.007 -22.297 -16.051  0.00  0.00    +0.021 C 
ATOM     16  C   UNL     1      35.742 -24.525 -15.187  0.00  0.00    +0.021 C 
ATOM     17  C   UNL     1      37.338 -22.367 -15.674  0.00  0.00    +0.099 C 
ATOM     18  C   UNL     1      37.085 -24.496 -14.848  0.00  0.00    +0.099 C 
ENDBRANCH  10  14
ENDBRANCH   1   9
BRANCH   4  19
ATOM     19  O   UNL     1      35.418 -20.106 -21.599  0.00  0.00    -0.468 OA
BRANCH  19  20
ATOM     20  C   UNL     1      35.854 -18.775 -21.356  0.00  0.00    +0.264 C 
BRANCH  20  22
ATOM     21  N   UNL     1      35.140 -16.559 -22.021  0.00  0.00    -0.406 NA
ATOM     22  C   UNL     1      35.243 -17.863 -22.368  0.00  0.00    +0.152 C 
ATOM     23  C   UNL     1      34.135 -16.138 -24.171  0.00  0.00    +0.026 C 
ATOM     24  C   UNL     1      34.594 -15.706 -22.909  0.00  0.00    +0.113 C 
ATOM     25  C   UNL     1      34.823 -18.377 -23.577  0.00  0.00    +0.031 C 
ATOM     26  C   UNL     1      34.261 -17.496 -24.490  0.00  0.00    +0.005 C 
ATOM     27  C   UNL     1      33.570 -15.220 -25.072  0.00  0.00    +0.002 C 
ATOM     28  C   UNL     1      34.469 -14.356 -22.593  0.00  0.00    +0.085 C 
ATOM     29  C   UNL     1      33.456 -13.874 -24.731  0.00  0.00    -0.004 C 
ATOM     30  C   UNL     1      33.907 -13.443 -23.489  0.00  0.00    -0.019 C 
ENDBRANCH  20  22
ENDBRANCH  19  20
ENDBRANCH   4  19
TORSDOF 5
ENDMDL
MODEL 2
REMARK VINA RESULT:     -13.2      1.508      2.454
REMARK  Name = 11581936
REMARK  5 active torsions:
REMARK  status: ('A' for Active; 'I' for Inactive)
REMARK    1  A    between atoms: C_1  and  C_9
REMARK    2  A    between atoms: C_4  and  O_19
REMARK    3  A    between atoms: C_10  and  C_14
REMARK    4  A    between atoms: O_19  and  C_20
REMARK    5  A    between atoms: C_20  and  C_22
REMARK                            x       y       z     vdW  Elec       q    Type
REMARK                         _______ _______ _______ _____ _____    ______ ____
ROOT
ATOM      1  C   UNL     1      34.313 -23.154 -16.548  0.00  0.00    +0.019 C 
ATOM      2  C   UNL     1      33.582 -23.129 -17.735  0.00  0.00    +0.005 C 
ATOM      3  C   UNL     1      35.607 -22.636 -16.513  0.00  0.00    +0.005 C 
ATOM      4  C   UNL     1      35.438 -22.069 -18.847  0.00  0.00    +0.139 C 
ATOM      5  C   UNL     1      34.148 -22.584 -18.889  0.00  0.00    +0.037 C 
ATOM      6  C   UNL     1      36.172 -22.091 -17.666  0.00  0.00    +0.037 C 
ENDROOT
BRANCH   1   9
ATOM      7  N   UNL     1      32.274 -24.142 -13.904  0.00  0.00    -0.208 N 
ATOM      8  N   UNL     1      32.451 -23.468 -15.053  0.00  0.00    -0.178 NA
ATOM      9  C   UNL     1      33.731 -23.714 -15.360  0.00  0.00    +0.100 C 
ATOM     10  C   UNL     1      34.361 -24.543 -14.407  0.00  0.00    +0.036 C 
ATOM     11  C   UNL     1      33.387 -24.803 -13.475  0.00  0.00    +0.086 C 
ATOM     12  C   UNL     1      30.988 -24.115 -13.250  0.00  0.00    +0.140 C 
BRANCH  10  14
ATOM     13  N   UNL     1      38.300 -26.064 -14.151  0.00  0.00    -0.242 NA
ATOM     14  C   UNL     1      35.694 -25.057 -14.321  0.00  0.00    +0.006 C 
ATOM     15  C   UNL     1      36.684 -24.336 -13.659  0.00  0.00    +0.021 C 
ATOM     16  C   UNL     1      36.011 -26.284 -14.897  0.00  0.00    +0.021 C 
ATOM     17  C   UNL     1      37.958 -24.877 -13.603  0.00  0.00    +0.099 C 
ATOM     18  C   UNL     1      37.315 -26.739 -14.786  0.00  0.00    +0.099 C 
ENDBRANCH  10  14
ENDBRANCH   1   9
BRANCH   4  19
ATOM     19  O   UNL     1      35.993 -21.534 -19.980  0.00  0.00    -0.468 OA
BRANCH  19  20
ATOM     20  C   UNL     1      36.321 -20.151 -19.940  0.00  0.00    +0.264 C 
BRANCH  20  22
ATOM     21  N   UNL     1      35.710 -18.124 -21.115  0.00  0.00    -0.406 NA
ATOM     22  C   UNL     1      35.761 -19.475 -21.148  0.00  0.00    +0.152 C 
ATOM     23  C   UNL     1      34.747 -18.173 -23.323  0.00  0.00    +0.026 C 
ATOM     24  C   UNL     1      35.211 -17.479 -22.187  0.00  0.00    +0.113 C 
ATOM     25  C   UNL     1      35.331 -20.240 -22.214  0.00  0.00    +0.031 C 
ATOM     26  C   UNL     1      34.817 -19.573 -23.317  0.00  0.00    +0.005 C 
ATOM     27  C   UNL     1      34.231 -17.468 -24.423  0.00  0.00    +0.002 C 
ATOM     28  C   UNL     1      35.141 -16.089 -22.194  0.00  0.00    +0.085 C 
ATOM     29  C   UNL     1      34.172 -16.077 -24.405  0.00  0.00    -0.004 C 
ATOM     30  C   UNL     1      34.627 -15.387 -23.289  0.00  0.00    -0.019 C 
ENDBRANCH  20  22
ENDBRANCH  19  20
ENDBRANCH   4  19
TORSDOF 5
ENDMDL
MODEL 3
REMARK VINA RESULT:     -12.8      1.632      3.999
REMARK  Name = 11581936
REMARK  5 active torsions:
REMARK  status: ('A' for Active; 'I' for Inactive)
REMARK    1  A    between atoms: C_1  and  C_9
REMARK    2  A    between atoms: C_4  and  O_19
REMARK    3  A    between atoms: C_10  and  C_14
REMARK    4  A    between atoms: O_19  and  C_20
REMARK    5  A    between atoms: C_20  and  C_22
REMARK                            x       y       z     vdW  Elec       q    Type
REMARK                         _______ _______ _______ _____ _____    ______ ____
ROOT
ATOM      1  C   UNL     1      34.509 -23.242 -16.239  0.00  0.00    +0.019 C 
ATOM      2  C   UNL     1      33.410 -23.252 -17.097  0.00  0.00    +0.005 C 
ATOM      3  C   UNL     1      35.701 -22.637 -16.639  0.00  0.00    +0.005 C 
ATOM      4  C   UNL     1      34.693 -22.056 -18.747  0.00  0.00    +0.139 C 
ATOM      5  C   UNL     1      33.503 -22.657 -18.355  0.00  0.00    +0.037 C 
ATOM      6  C   UNL     1      35.793 -22.041 -17.897  0.00  0.00    +0.037 C 
ENDROOT
BRANCH   1   9
ATOM      7  N   UNL     1      35.047 -24.714 -13.130  0.00  0.00    -0.208 N 
ATOM      8  N   UNL     1      35.524 -24.177 -14.266  0.00  0.00    -0.178 NA
ATOM      9  C   UNL     1      34.415 -23.854 -14.944  0.00  0.00    +0.100 C 
ATOM     10  C   UNL     1      33.239 -24.186 -14.237  0.00  0.00    +0.036 C 
ATOM     11  C   UNL     1      33.685 -24.742 -13.063  0.00  0.00    +0.086 C 
ATOM     12  C   UNL     1      35.965 -25.193 -12.125  0.00  0.00    +0.140 C 
BRANCH  10  14
ATOM     13  N   UNL     1      29.144 -23.728 -15.194  0.00  0.00    -0.242 NA
ATOM     14  C   UNL     1      31.854 -24.031 -14.562  0.00  0.00    +0.006 C 
ATOM     15  C   UNL     1      31.115 -25.117 -15.021  0.00  0.00    +0.021 C 
ATOM     16  C   UNL     1      31.234 -22.792 -14.419  0.00  0.00    +0.021 C 
ATOM     17  C   UNL     1      29.777 -24.915 -15.320  0.00  0.00    +0.099 C 
ATOM     18  C   UNL     1      29.891 -22.694 -14.746  0.00  0.00    +0.099 C 
ENDBRANCH  10  14
ENDBRANCH   1   9
BRANCH   4  19
ATOM     19  O   UNL     1      34.784 -21.470 -19.983  0.00  0.00    -0.468 OA
BRANCH  19  20
ATOM     20  C   UNL     1      35.748 -20.436 -20.132  0.00  0.00    +0.264 C 
BRANCH  20  22
ATOM     21  N   UNL     1      35.363 -18.236 -21.067  0.00  0.00    -0.406 NA
ATOM     22  C   UNL     1      35.369 -19.571 -21.288  0.00  0.00    +0.152 C 
ATOM     23  C   UNL     1      34.684 -17.928 -23.359  0.00  0.00    +0.026 C 
ATOM     24  C   UNL     1      35.026 -17.424 -22.087  0.00  0.00    +0.113 C 
ATOM     25  C   UNL     1      35.050 -20.156 -22.497  0.00  0.00    +0.031 C 
ATOM     26  C   UNL     1      34.703 -19.317 -23.545  0.00  0.00    +0.005 C 
ATOM     27  C   UNL     1      34.336 -17.051 -24.400  0.00  0.00    +0.002 C 
ATOM     28  C   UNL     1      35.007 -16.044 -21.903  0.00  0.00    +0.085 C 
ATOM     29  C   UNL     1      34.325 -15.675 -24.189  0.00  0.00    -0.004 C 
ATOM     30  C   UNL     1      34.661 -15.171 -22.938  0.00  0.00    -0.019 C 
ENDBRANCH  20  22
ENDBRANCH  19  20
ENDBRANCH   4  19
TORSDOF 5
ENDMDL
MODEL 4
REMARK VINA RESULT:     -12.7      1.491      3.628
REMARK  Name = 11581936
REMARK  5 active torsions:
REMARK  status: ('A' for Active; 'I' for Inactive)
REMARK    1  A    between atoms: C_1  and  C_9
REMARK    2  A    between atoms: C_4  and  O_19
REMARK    3  A    between atoms: C_10  and  C_14
REMARK    4  A    between atoms: O_19  and  C_20
REMARK    5  A    between atoms: C_20  and  C_22
REMARK                            x       y       z     vdW  Elec       q    Type
REMARK                         _______ _______ _______ _____ _____    ______ ____
ROOT
ATOM      1  C   UNL     1      34.931 -23.052 -16.932  0.00  0.00    +0.019 C 
ATOM      2  C   UNL     1      33.789 -23.009 -17.732  0.00  0.00    +0.005 C 
ATOM      3  C   UNL     1      36.070 -22.337 -17.301  0.00  0.00    +0.005 C 
ATOM      4  C   UNL     1      34.926 -21.539 -19.263  0.00  0.00    +0.139 C 
ATOM      5  C   UNL     1      33.788 -22.249 -18.902  0.00  0.00    +0.037 C 
ATOM      6  C   UNL     1      36.068 -21.577 -18.470  0.00  0.00    +0.037 C 
ENDROOT
BRANCH   1   9
ATOM      7  N   UNL     1      35.677 -25.056 -14.184  0.00  0.00    -0.208 N 
ATOM      8  N   UNL     1      36.056 -24.435 -15.313  0.00  0.00    -0.178 NA
ATOM      9  C   UNL     1      34.933 -23.834 -15.727  0.00  0.00    +0.100 C 
ATOM     10  C   UNL     1      33.846 -24.075 -14.860  0.00  0.00    +0.036 C 
ATOM     11  C   UNL     1      34.363 -24.872 -13.868  0.00  0.00    +0.086 C 
ATOM     12  C   UNL     1      36.638 -25.828 -13.434  0.00  0.00    +0.140 C 
BRANCH  10  14
ATOM     13  N   UNL     1      29.811 -22.810 -14.977  0.00  0.00    -0.242 NA
ATOM     14  C   UNL     1      32.480 -23.648 -14.900  0.00  0.00    +0.006 C 
ATOM     15  C   UNL     1      31.895 -23.066 -13.778  0.00  0.00    +0.021 C 
ATOM     16  C   UNL     1      31.727 -23.809 -16.060  0.00  0.00    +0.021 C 
ATOM     17  C   UNL     1      30.570 -22.669 -13.868  0.00  0.00    +0.099 C 
ATOM     18  C   UNL     1      30.411 -23.378 -16.047  0.00  0.00    +0.099 C 
ENDBRANCH  10  14
ENDBRANCH   1   9
BRANCH   4  19
ATOM     19  O   UNL     1      34.924 -20.792 -20.413  0.00  0.00    -0.468 OA
BRANCH  19  20
ATOM     20  C   UNL     1      36.043 -19.940 -20.625  0.00  0.00    +0.264 C 
BRANCH  20  22
ATOM     21  N   UNL     1      35.330 -17.627 -20.648  0.00  0.00    -0.406 NA
ATOM     22  C   UNL     1      35.606 -18.730 -21.381  0.00  0.00    +0.152 C 
ATOM     23  C   UNL     1      34.799 -16.479 -22.699  0.00  0.00    +0.026 C 
ATOM     24  C   UNL     1      34.932 -16.515 -21.296  0.00  0.00    +0.113 C 
ATOM     25  C   UNL     1      35.504 -18.789 -22.756  0.00  0.00    +0.031 C 
ATOM     26  C   UNL     1      35.094 -17.642 -23.420  0.00  0.00    +0.005 C 
ATOM     27  C   UNL     1      34.380 -15.301 -23.341  0.00  0.00    +0.002 C 
ATOM     28  C   UNL     1      34.639 -15.358 -20.579  0.00  0.00    +0.085 C 
ATOM     29  C   UNL     1      34.093 -14.158 -22.601  0.00  0.00    -0.004 C 
ATOM     30  C   UNL     1      34.222 -14.186 -21.218  0.00  0.00    -0.019 C 
ENDBRANCH  20  22
ENDBRANCH  19  20
ENDBRANCH   4  19
TORSDOF 5
ENDMDL
MODEL 5
REMARK VINA RESULT:     -12.1      7.893     14.523
REMARK  Name = 11581936
REMARK  5 active torsions:
REMARK  status: ('A' for Active; 'I' for Inactive)
REMARK    1  A    between atoms: C_1  and  C_9
REMARK    2  A    between atoms: C_4  and  O_19
REMARK    3  A    between atoms: C_10  and  C_14
REMARK    4  A    between atoms: O_19  and  C_20
REMARK    5  A    between atoms: C_20  and  C_22
REMARK                            x       y       z     vdW  Elec       q    Type
REMARK                         _______ _______ _______ _____ _____    ______ ____
ROOT
ATOM      1  C   UNL     1      31.746  -6.944 -21.619  0.00  0.00    +0.019 C 
ATOM      2  C   UNL     1      32.231  -7.198 -20.337  0.00  0.00    +0.005 C 
ATOM      3  C   UNL     1      31.310  -7.998 -22.422  0.00  0.00    +0.005 C 
ATOM      4  C   UNL     1      31.845  -9.553 -20.663  0.00  0.00    +0.139 C 
ATOM      5  C   UNL     1      32.281  -8.508 -19.857  0.00  0.00    +0.037 C 
ATOM      6  C   UNL     1      31.359  -9.307 -21.943  0.00  0.00    +0.037 C 
ENDROOT
BRANCH   1   9
ATOM      7  N   UNL     1      31.133  -3.572 -22.233  0.00  0.00    -0.208 N 
ATOM      8  N   UNL     1      30.928  -4.683 -21.505  0.00  0.00    -0.178 NA
ATOM      9  C   UNL     1      31.694  -5.597 -22.113  0.00  0.00    +0.100 C 
ATOM     10  C   UNL     1      32.383  -5.065 -23.224  0.00  0.00    +0.036 C 
ATOM     11  C   UNL     1      31.998  -3.748 -23.274  0.00  0.00    +0.086 C 
ATOM     12  C   UNL     1      30.460  -2.347 -21.876  0.00  0.00    +0.140 C 
BRANCH  10  14
ATOM     13  N   UNL     1      35.075  -6.818 -25.977  0.00  0.00    -0.242 NA
ATOM     14  C   UNL     1      33.295  -5.657 -24.156  0.00  0.00    +0.006 C 
ATOM     15  C   UNL     1      34.453  -6.284 -23.703  0.00  0.00    +0.021 C 
ATOM     16  C   UNL     1      33.029  -5.613 -25.521  0.00  0.00    +0.021 C 
ATOM     17  C   UNL     1      35.302  -6.842 -24.644  0.00  0.00    +0.099 C 
ATOM     18  C   UNL     1      33.942  -6.202 -26.382  0.00  0.00    +0.099 C 
ENDBRANCH  10  14
ENDBRANCH   1   9
BRANCH   4  19
ATOM     19  O   UNL     1      31.893 -10.839 -20.191  0.00  0.00    -0.468 OA
BRANCH  19  20
ATOM     20  C   UNL     1      31.223 -11.829 -20.962  0.00  0.00    +0.264 C 
BRANCH  20  22
ATOM     21  N   UNL     1      32.230 -13.228 -22.661  0.00  0.00    -0.406 NA
ATOM     22  C   UNL     1      32.194 -12.893 -21.351  0.00  0.00    +0.152 C 
ATOM     23  C   UNL     1      33.947 -14.835 -22.134  0.00  0.00    +0.026 C 
ATOM     24  C   UNL     1      33.095 -14.185 -23.050  0.00  0.00    +0.113 C 
ATOM     25  C   UNL     1      32.989 -13.472 -20.383  0.00  0.00    +0.031 C 
ATOM     26  C   UNL     1      33.878 -14.458 -20.787  0.00  0.00    +0.005 C 
ATOM     27  C   UNL     1      34.836 -15.830 -22.575  0.00  0.00    +0.002 C 
ATOM     28  C   UNL     1      33.164 -14.560 -24.389  0.00  0.00    +0.085 C 
ATOM     29  C   UNL     1      34.885 -16.186 -23.920  0.00  0.00    -0.004 C 
ATOM     30  C   UNL     1      34.048 -15.550 -24.828  0.00  0.00    -0.019 C 
ENDBRANCH  20  22
ENDBRANCH  19  20
ENDBRANCH   4  19
TORSDOF 5
ENDMDL
MODEL 6
REMARK VINA RESULT:     -12.1      2.044      4.408
REMARK  Name = 11581936
REMARK  5 active torsions:
REMARK  status: ('A' for Active; 'I' for Inactive)
REMARK    1  A    between atoms: C_1  and  C_9
REMARK    2  A    between atoms: C_4  and  O_19
REMARK    3  A    between atoms: C_10  and  C_14
REMARK    4  A    between atoms: O_19  and  C_20
REMARK    5  A    between atoms: C_20  and  C_22
REMARK                            x       y       z     vdW  Elec       q    Type
REMARK                         _______ _______ _______ _____ _____    ______ ____
ROOT
ATOM      1  C   UNL     1      34.364 -23.394 -15.841  0.00  0.00    +0.019 C 
ATOM      2  C   UNL     1      35.550 -22.767 -16.222  0.00  0.00    +0.005 C 
ATOM      3  C   UNL     1      33.305 -23.493 -16.743  0.00  0.00    +0.005 C 
ATOM      4  C   UNL     1      34.617 -22.339 -18.401  0.00  0.00    +0.139 C 
ATOM      5  C   UNL     1      35.676 -22.237 -17.507  0.00  0.00    +0.037 C 
ATOM      6  C   UNL     1      33.432 -22.964 -18.028  0.00  0.00    +0.037 C 
ENDROOT
BRANCH   1   9
ATOM      7  N   UNL     1      34.815 -24.674 -12.635  0.00  0.00    -0.208 N 
ATOM      8  N   UNL     1      35.322 -24.180 -13.777  0.00  0.00    -0.178 NA
ATOM      9  C   UNL     1      34.234 -23.939 -14.519  0.00  0.00    +0.100 C 
ATOM     10  C   UNL     1      33.041 -24.280 -13.847  0.00  0.00    +0.036 C 
ATOM     11  C   UNL     1      33.453 -24.754 -12.625  0.00  0.00    +0.086 C 
ATOM     12  C   UNL     1      35.703 -25.060 -11.565  0.00  0.00    +0.140 C 
BRANCH  10  14
ATOM     13  N   UNL     1      28.981 -24.040 -15.011  0.00  0.00    -0.242 NA
ATOM     14  C   UNL     1      31.667 -24.199 -14.240  0.00  0.00    +0.006 C 
ATOM     15  C   UNL     1      31.047 -22.960 -14.372  0.00  0.00    +0.021 C 
ATOM     16  C   UNL     1      30.940 -25.359 -14.495  0.00  0.00    +0.021 C 
ATOM     17  C   UNL     1      29.716 -22.935 -14.756  0.00  0.00    +0.099 C 
ATOM     18  C   UNL     1      29.614 -25.227 -14.873  0.00  0.00    +0.099 C 
ENDBRANCH  10  14
ENDBRANCH   1   9
BRANCH   4  19
ATOM     19  O   UNL     1      34.741 -21.820 -19.663  0.00  0.00    -0.468 OA
BRANCH  19  20
ATOM     20  C   UNL     1      35.986 -21.213 -19.986  0.00  0.00    +0.264 C 
BRANCH  20  22
ATOM     21  N   UNL     1      34.954 -20.232 -21.944  0.00  0.00    -0.406 NA
ATOM     22  C   UNL     1      35.746 -20.031 -20.865  0.00  0.00    +0.152 C 
ATOM     23  C   UNL     1      35.264 -17.912 -22.519  0.00  0.00    +0.026 C 
ATOM     24  C   UNL     1      34.715 -19.188 -22.761  0.00  0.00    +0.113 C 
ATOM     25  C   UNL     1      36.327 -18.820 -20.547  0.00  0.00    +0.031 C 
ATOM     26  C   UNL     1      36.078 -17.747 -21.391  0.00  0.00    +0.005 C 
ATOM     27  C   UNL     1      34.994 -16.846 -23.394  0.00  0.00    +0.002 C 
ATOM     28  C   UNL     1      33.906 -19.352 -23.882  0.00  0.00    +0.085 C 
ATOM     29  C   UNL     1      34.182 -17.036 -24.508  0.00  0.00    -0.004 C 
ATOM     30  C   UNL     1      33.637 -18.291 -24.753  0.00  0.00    -0.019 C 
ENDBRANCH  20  22
ENDBRANCH  19  20
ENDBRANCH   4  19
TORSDOF 5
ENDMDL
MODEL 7
REMARK VINA RESULT:     -11.8      1.133      3.454
REMARK  Name = 11581936
REMARK  5 active torsions:
REMARK  status: ('A' for Active; 'I' for Inactive)
REMARK    1  A    between atoms: C_1  and  C_9
REMARK    2  A    between atoms: C_4  and  O_19
REMARK    3  A    between atoms: C_10  and  C_14
REMARK    4  A    between atoms: O_19  and  C_20
REMARK    5  A    between atoms: C_20  and  C_22
REMARK                            x       y       z     vdW  Elec       q    Type
REMARK                         _______ _______ _______ _____ _____    ______ ____
ROOT
ATOM      1  C   UNL     1      35.544 -22.300 -17.687  0.00  0.00    +0.019 C 
ATOM      2  C   UNL     1      36.559 -21.524 -18.247  0.00  0.00    +0.005 C 
ATOM      3  C   UNL     1      34.292 -22.358 -18.299  0.00  0.00    +0.005 C 
ATOM      4  C   UNL     1      35.070 -20.869 -20.023  0.00  0.00    +0.139 C 
ATOM      5  C   UNL     1      36.320 -20.806 -19.419  0.00  0.00    +0.037 C 
ATOM      6  C   UNL     1      34.054 -21.641 -19.471  0.00  0.00    +0.037 C 
ENDROOT
BRANCH   1   9
ATOM      7  N   UNL     1      36.870 -24.059 -14.992  0.00  0.00    -0.208 N 
ATOM      8  N   UNL     1      37.036 -23.402 -16.152  0.00  0.00    -0.178 NA
ATOM      9  C   UNL     1      35.789 -23.039 -16.481  0.00  0.00    +0.100 C 
ATOM     10  C   UNL     1      34.838 -23.467 -15.530  0.00  0.00    +0.036 C 
ATOM     11  C   UNL     1      35.573 -24.125 -14.575  0.00  0.00    +0.086 C 
ATOM     12  C   UNL     1      38.017 -24.614 -14.313  0.00  0.00    +0.140 C 
BRANCH  10  14
ATOM     13  N   UNL     1      30.637 -23.007 -15.340  0.00  0.00    -0.242 NA
ATOM     14  C   UNL     1      33.417 -23.312 -15.466  0.00  0.00    +0.006 C 
ATOM     15  C   UNL     1      32.806 -22.922 -14.277  0.00  0.00    +0.021 C 
ATOM     16  C   UNL     1      32.633 -23.549 -16.592  0.00  0.00    +0.021 C 
ATOM     17  C   UNL     1      31.428 -22.786 -14.266  0.00  0.00    +0.099 C 
ATOM     18  C   UNL     1      31.262 -23.384 -16.478  0.00  0.00    +0.099 C 
ENDBRANCH  10  14
ENDBRANCH   1   9
BRANCH   4  19
ATOM     19  O   UNL     1      34.836 -20.164 -21.175  0.00  0.00    -0.468 OA
BRANCH  19  20
ATOM     20  C   UNL     1      35.892 -19.335 -21.644  0.00  0.00    +0.264 C 
BRANCH  20  22
ATOM     21  N   UNL     1      35.018 -17.719 -23.221  0.00  0.00    -0.406 NA
ATOM     22  C   UNL     1      35.357 -17.972 -21.936  0.00  0.00    +0.152 C 
ATOM     23  C   UNL     1      34.373 -15.499 -22.543  0.00  0.00    +0.026 C 
ATOM     24  C   UNL     1      34.532 -16.500 -23.523  0.00  0.00    +0.113 C 
ATOM     25  C   UNL     1      35.237 -17.057 -20.910  0.00  0.00    +0.031 C 
ATOM     26  C   UNL     1      34.736 -15.802 -21.224  0.00  0.00    +0.005 C 
ATOM     27  C   UNL     1      33.863 -14.237 -22.894  0.00  0.00    +0.002 C 
ATOM     28  C   UNL     1      34.170 -16.198 -24.833  0.00  0.00    +0.085 C 
ATOM     29  C   UNL     1      33.509 -13.961 -24.212  0.00  0.00    -0.004 C 
ATOM     30  C   UNL     1      33.664 -14.943 -25.182  0.00  0.00    -0.019 C 
ENDBRANCH  20  22
ENDBRANCH  19  20
ENDBRANCH   4  19
TORSDOF 5
ENDMDL
MODEL 8
REMARK VINA RESULT:     -11.8      7.297     14.807
REMARK  Name = 11581936
REMARK  5 active torsions:
REMARK  status: ('A' for Active; 'I' for Inactive)
REMARK    1  A    between atoms: C_1  and  C_9
REMARK    2  A    between atoms: C_4  and  O_19
REMARK    3  A    between atoms: C_10  and  C_14
REMARK    4  A    between atoms: O_19  and  C_20
REMARK    5  A    between atoms: C_20  and  C_22
REMARK                            x       y       z     vdW  Elec       q    Type
REMARK                         _______ _______ _______ _____ _____    ______ ____
ROOT
ATOM      1  C   UNL     1      31.787  -6.635 -21.824  0.00  0.00    +0.019 C 
ATOM      2  C   UNL     1      32.273  -6.860 -20.536  0.00  0.00    +0.005 C 
ATOM      3  C   UNL     1      31.360  -7.709 -22.605  0.00  0.00    +0.005 C 
ATOM      4  C   UNL     1      31.906  -9.223 -20.815  0.00  0.00    +0.139 C 
ATOM      5  C   UNL     1      32.333  -8.158 -20.031  0.00  0.00    +0.037 C 
ATOM      6  C   UNL     1      31.419  -9.008 -22.099  0.00  0.00    +0.037 C 
ENDROOT
BRANCH   1   9
ATOM      7  N   UNL     1      31.160  -3.277 -22.496  0.00  0.00    -0.208 N 
ATOM      8  N   UNL     1      30.970  -4.372 -21.741  0.00  0.00    -0.178 NA
ATOM      9  C   UNL     1      31.725  -5.299 -22.345  0.00  0.00    +0.100 C 
ATOM     10  C   UNL     1      32.391  -4.790 -23.480  0.00  0.00    +0.036 C 
ATOM     11  C   UNL     1      32.004  -3.474 -23.550  0.00  0.00    +0.086 C 
ATOM     12  C   UNL     1      30.494  -2.045 -22.152  0.00  0.00    +0.140 C 
BRANCH  10  14
ATOM     13  N   UNL     1      35.031  -6.600 -26.247  0.00  0.00    -0.242 NA
ATOM     14  C   UNL     1      33.285  -5.402 -24.416  0.00  0.00    +0.006 C 
ATOM     15  C   UNL     1      34.452  -6.017 -23.973  0.00  0.00    +0.021 C 
ATOM     16  C   UNL     1      32.993  -5.387 -25.777  0.00  0.00    +0.021 C 
ATOM     17  C   UNL     1      35.283  -6.595 -24.919  0.00  0.00    +0.099 C 
ATOM     18  C   UNL     1      33.888  -5.993 -26.643  0.00  0.00    +0.099 C 
ENDBRANCH  10  14
ENDBRANCH   1   9
BRANCH   4  19
ATOM     19  O   UNL     1      31.964 -10.499 -20.318  0.00  0.00    -0.468 OA
BRANCH  19  20
ATOM     20  C   UNL     1      31.174 -11.480 -20.978  0.00  0.00    +0.264 C 
BRANCH  20  22
ATOM     21  N   UNL     1      32.645 -13.383 -20.701  0.00  0.00    -0.406 NA
ATOM     22  C   UNL     1      32.069 -12.519 -21.568  0.00  0.00    +0.152 C 
ATOM     23  C   UNL     1      33.721 -14.445 -22.579  0.00  0.00    +0.026 C 
ATOM     24  C   UNL     1      33.459 -14.335 -21.198  0.00  0.00    +0.113 C 
ATOM     25  C   UNL     1      32.265 -12.548 -22.934  0.00  0.00    +0.031 C 
ATOM     26  C   UNL     1      33.105 -13.529 -23.442  0.00  0.00    +0.005 C 
ATOM     27  C   UNL     1      34.577 -15.449 -23.061  0.00  0.00    +0.002 C 
ATOM     28  C   UNL     1      34.071 -15.245 -20.340  0.00  0.00    +0.085 C 
ATOM     29  C   UNL     1      35.177 -16.347 -22.182  0.00  0.00    -0.004 C 
ATOM     30  C   UNL     1      34.923 -16.244 -20.820  0.00  0.00    -0.019 C 
ENDBRANCH  20  22
ENDBRANCH  19  20
ENDBRANCH   4  19
TORSDOF 5
ENDMDL
MODEL 9
REMARK VINA RESULT:     -11.4      3.233      5.623
REMARK  Name = 11581936
REMARK  5 active torsions:
REMARK  status: ('A' for Active; 'I' for Inactive)
REMARK    1  A    between atoms: C_1  and  C_9
REMARK    2  A    between atoms: C_4  and  O_19
REMARK    3  A    between atoms: C_10  and  C_14
REMARK    4  A    between atoms: O_19  and  C_20
REMARK    5  A    between atoms: C_20  and  C_22
REMARK                            x       y       z     vdW  Elec       q    Type
REMARK                         _______ _______ _______ _____ _____    ______ ____
ROOT
ATOM      1  C   UNL     1      34.840 -24.109 -13.658  0.00  0.00    +0.019 C 
ATOM      2  C   UNL     1      33.487 -24.362 -13.884  0.00  0.00    +0.005 C 
ATOM      3  C   UNL     1      35.607 -23.487 -14.642  0.00  0.00    +0.005 C 
ATOM      4  C   UNL     1      33.673 -23.372 -16.071  0.00  0.00    +0.139 C 
ATOM      5  C   UNL     1      32.902 -23.992 -15.095  0.00  0.00    +0.037 C 
ATOM      6  C   UNL     1      35.023 -23.116 -15.853  0.00  0.00    +0.037 C 
ENDROOT
BRANCH   1   9
ATOM      7  N   UNL     1      35.663 -24.730 -10.332  0.00  0.00    -0.208 N 
ATOM      8  N   UNL     1      34.813 -24.247 -11.254  0.00  0.00    -0.178 NA
ATOM      9  C   UNL     1      35.442 -24.490 -12.411  0.00  0.00    +0.100 C 
ATOM     10  C   UNL     1      36.687 -25.127 -12.220  0.00  0.00    +0.036 C 
ATOM     11  C   UNL     1      36.799 -25.269 -10.859  0.00  0.00    +0.086 C 
ATOM     12  C   UNL     1      35.323 -24.647  -8.932  0.00  0.00    +0.140 C 
BRANCH  10  14
ATOM     13  N   UNL     1      39.636 -26.431 -14.959  0.00  0.00    -0.242 NA
ATOM     14  C   UNL     1      37.685 -25.569 -13.146  0.00  0.00    +0.006 C 
ATOM     15  C   UNL     1      37.415 -26.617 -14.022  0.00  0.00    +0.021 C 
ATOM     16  C   UNL     1      38.933 -24.953 -13.180  0.00  0.00    +0.021 C 
ATOM     17  C   UNL     1      38.414 -27.006 -14.900  0.00  0.00    +0.099 C 
ATOM     18  C   UNL     1      39.865 -25.417 -14.094  0.00  0.00    +0.099 C 
ENDBRANCH  10  14
ENDBRANCH   1   9
BRANCH   4  19
ATOM     19  O   UNL     1      33.098 -23.007 -17.261  0.00  0.00    -0.468 OA
BRANCH  19  20
ATOM     20  C   UNL     1      33.804 -23.354 -18.445  0.00  0.00    +0.264 C 
BRANCH  20  22
ATOM     21  N   UNL     1      35.365 -21.766 -19.396  0.00  0.00    -0.406 NA
ATOM     22  C   UNL     1      34.068 -22.119 -19.242  0.00  0.00    +0.152 C 
ATOM     23  C   UNL     1      34.624 -19.870 -20.687  0.00  0.00    +0.026 C 
ATOM     24  C   UNL     1      35.641 -20.657 -20.109  0.00  0.00    +0.113 C 
ATOM     25  C   UNL     1      33.006 -21.413 -19.770  0.00  0.00    +0.031 C 
ATOM     26  C   UNL     1      33.294 -20.272 -20.503  0.00  0.00    +0.005 C 
ATOM     27  C   UNL     1      34.949 -18.719 -21.424  0.00  0.00    +0.002 C 
ATOM     28  C   UNL     1      36.963 -20.258 -20.292  0.00  0.00    +0.085 C 
ATOM     29  C   UNL     1      36.279 -18.341 -21.592  0.00  0.00    -0.004 C 
ATOM     30  C   UNL     1      37.287 -19.112 -21.025  0.00  0.00    -0.019 C 
ENDBRANCH  20  22
ENDBRANCH  19  20
ENDBRANCH   4  19
TORSDOF 5
ENDMDL
