MODEL 1
REMARK VINA RESULT:     -11.7      0.000      0.000
REMARK  Name = 11712628
REMARK  7 active torsions:
REMARK  status: ('A' for Active; 'I' for Inactive)
REMARK    1  A    between atoms: C_1  and  C_10
REMARK    2  A    between atoms: C_2  and  C_16
REMARK    3  A    between atoms: C_3  and  C_14
REMARK    4  A    between atoms: C_4  and  S_25
REMARK    5  A    between atoms: C_15  and  C_24
REMARK    6  A    between atoms: S_25  and  C_26
REMARK    7  A    between atoms: C_29  and  N_32
REMARK                            x       y       z     vdW  Elec       q    Type
REMARK                         _______ _______ _______ _____ _____    ______ ____
ROOT
ATOM      1  C   UNL     1      34.149 -15.142 -22.633  0.00  0.00    +0.076 C 
ATOM      2  C   UNL     1      34.176 -14.798 -21.290  0.00  0.00    +0.004 C 
ATOM      3  C   UNL     1      34.591 -16.404 -23.028  0.00  0.00    +0.081 C 
ATOM      4  C   UNL     1      35.055 -17.310 -22.074  0.00  0.00    +0.033 C 
ATOM      5  C   UNL     1      34.636 -15.689 -20.331  0.00  0.00    +0.000 C 
ATOM      6  C   UNL     1      35.077 -16.952 -20.725  0.00  0.00    +0.006 C 
ENDROOT
BRANCH   1  10
ATOM      7  F   UNL     1      34.107 -12.903 -23.477  0.00  0.00    -0.166 F 
ATOM      8  F   UNL     1      34.009 -14.506 -24.936  0.00  0.00    -0.166 F 
ATOM      9  F   UNL     1      32.291 -14.082 -23.672  0.00  0.00    -0.166 F 
ATOM     10  C   UNL     1      33.650 -14.174 -23.663  0.00  0.00    +0.419 C 
ENDBRANCH   1  10
BRANCH   3  14
ATOM     11  F   UNL     1      34.699 -18.105 -24.706  0.00  0.00    -0.166 F 
ATOM     12  F   UNL     1      33.393 -16.418 -25.098  0.00  0.00    -0.166 F 
ATOM     13  F   UNL     1      35.550 -16.164 -25.190  0.00  0.00    -0.166 F 
ATOM     14  C   UNL     1      34.557 -16.768 -24.480  0.00  0.00    +0.419 C 
ENDBRANCH   3  14
BRANCH   2  16
ATOM     15  C   UNL     1      32.440 -13.156 -20.620  0.00  0.00    +0.058 C 
ATOM     16  C   UNL     1      33.717 -13.474 -20.838  0.00  0.00    +0.005 C 
BRANCH  15  24
ATOM     17  O   UNL     1      32.033  -8.641 -22.929  0.00  0.00    -0.350 OA
ATOM     18  O   UNL     1      32.147 -11.557 -18.966  0.00  0.00    -0.270 OA
ATOM     19  N   UNL     1      31.863 -10.827 -21.154  0.00  0.00    -0.271 N 
ATOM     20  C   UNL     1      31.410  -9.496 -20.748  0.00  0.00    +0.126 C 
ATOM     21  C   UNL     1      31.839 -11.037 -22.607  0.00  0.00    +0.126 C 
ATOM     22  C   UNL     1      32.167  -8.425 -21.523  0.00  0.00    +0.164 C 
ATOM     23  C   UNL     1      32.582  -9.906 -23.311  0.00  0.00    +0.164 C 
ATOM     24  C   UNL     1      32.138 -11.781 -20.178  0.00  0.00    +0.249 C 
ENDBRANCH  15  24
ENDBRANCH   2  16
BRANCH   4  25
ATOM     25  S   UNL     1      35.635 -18.942 -22.522  0.00  0.00    -0.087 S 
BRANCH  25  26
ATOM     26  C   UNL     1      34.898 -19.933 -21.234  0.00  0.00    +0.031 C 
ATOM     27  C   UNL     1      35.711 -20.629 -20.341  0.00  0.00    +0.021 C 
ATOM     28  C   UNL     1      33.511 -20.009 -21.125  0.00  0.00    +0.007 C 
ATOM     29  C   UNL     1      35.134 -21.404 -19.335  0.00  0.00    +0.042 C 
ATOM     30  C   UNL     1      32.934 -20.784 -20.119  0.00  0.00    +0.002 C 
ATOM     31  C   UNL     1      33.746 -21.481 -19.224  0.00  0.00    +0.014 C 
BRANCH  29  32
ATOM     32  N   UNL     1      35.953 -22.110 -18.430  0.00  0.00    -0.357 N 
ATOM     33  H   UNL     1      35.562 -22.804 -17.851  0.00  0.00    +0.142 HD
ATOM     34  H   UNL     1      36.915 -21.909 -18.376  0.00  0.00    +0.142 HD
ENDBRANCH  29  32
ENDBRANCH  25  26
ENDBRANCH   4  25
TORSDOF 7
ENDMDL
MODEL 2
REMARK VINA RESULT:     -10.6      7.745     11.047
REMARK  Name = 11712628
REMARK  7 active torsions:
REMARK  status: ('A' for Active; 'I' for Inactive)
REMARK    1  A    between atoms: C_1  and  C_10
REMARK    2  A    between atoms: C_2  and  C_16
REMARK    3  A    between atoms: C_3  and  C_14
REMARK    4  A    between atoms: C_4  and  S_25
REMARK    5  A    between atoms: C_15  and  C_24
REMARK    6  A    between atoms: S_25  and  C_26
REMARK    7  A    between atoms: C_29  and  N_32
REMARK                            x       y       z     vdW  Elec       q    Type
REMARK                         _______ _______ _______ _____ _____    ______ ____
ROOT
ATOM      1  C   UNL     1      32.205 -23.496 -15.701  0.00  0.00    +0.076 C 
ATOM      2  C   UNL     1      33.284 -23.126 -16.489  0.00  0.00    +0.004 C 
ATOM      3  C   UNL     1      32.430 -24.181 -14.507  0.00  0.00    +0.081 C 
ATOM      4  C   UNL     1      33.733 -24.487 -14.114  0.00  0.00    +0.033 C 
ATOM      5  C   UNL     1      34.585 -23.425 -16.110  0.00  0.00    +0.000 C 
ATOM      6  C   UNL     1      34.810 -24.109 -14.915  0.00  0.00    +0.006 C 
ENDROOT
BRANCH   1  10
ATOM      7  F   UNL     1      30.052 -24.271 -16.400  0.00  0.00    -0.166 F 
ATOM      8  F   UNL     1      30.103 -22.485 -15.168  0.00  0.00    -0.166 F 
ATOM      9  F   UNL     1      30.763 -22.395 -17.238  0.00  0.00    -0.166 F 
ATOM     10  C   UNL     1      30.803 -23.169 -16.118  0.00  0.00    +0.419 C 
ENDBRANCH   1  10
BRANCH   3  14
ATOM     11  F   UNL     1      30.217 -25.079 -14.382  0.00  0.00    -0.166 F 
ATOM     12  F   UNL     1      31.558 -25.535 -12.739  0.00  0.00    -0.166 F 
ATOM     13  F   UNL     1      30.751 -23.528 -12.955  0.00  0.00    -0.166 F 
ATOM     14  C   UNL     1      31.259 -24.576 -13.661  0.00  0.00    +0.419 C 
ENDBRANCH   3  14
BRANCH   2  16
ATOM     15  C   UNL     1      34.073 -21.972 -18.540  0.00  0.00    +0.058 C 
ATOM     16  C   UNL     1      33.084 -22.402 -17.756  0.00  0.00    +0.005 C 
BRANCH  15  24
ATOM     17  O   UNL     1      36.491 -18.804 -21.702  0.00  0.00    -0.350 OA
ATOM     18  O   UNL     1      32.517 -21.214 -20.082  0.00  0.00    -0.270 OA
ATOM     19  N   UNL     1      34.733 -20.662 -20.512  0.00  0.00    -0.271 N 
ATOM     20  C   UNL     1      34.429 -20.074 -21.817  0.00  0.00    +0.126 C 
ATOM     21  C   UNL     1      36.167 -20.676 -20.194  0.00  0.00    +0.126 C 
ATOM     22  C   UNL     1      35.085 -18.705 -21.942  0.00  0.00    +0.164 C 
ATOM     23  C   UNL     1      36.755 -19.281 -20.380  0.00  0.00    +0.164 C 
ATOM     24  C   UNL     1      33.710 -21.251 -19.775  0.00  0.00    +0.249 C 
ENDBRANCH  15  24
ENDBRANCH   2  16
BRANCH   4  25
ATOM     25  S   UNL     1      34.080 -25.364 -12.593  0.00  0.00    -0.087 S 
BRANCH  25  26
ATOM     26  C   UNL     1      35.783 -24.907 -12.316  0.00  0.00    +0.031 C 
ATOM     27  C   UNL     1      36.808 -25.732 -12.775  0.00  0.00    +0.021 C 
ATOM     28  C   UNL     1      36.083 -23.726 -11.640  0.00  0.00    +0.007 C 
ATOM     29  C   UNL     1      38.138 -25.374 -12.557  0.00  0.00    +0.042 C 
ATOM     30  C   UNL     1      37.413 -23.368 -11.422  0.00  0.00    +0.002 C 
ATOM     31  C   UNL     1      38.441 -24.192 -11.880  0.00  0.00    +0.014 C 
BRANCH  29  32
ATOM     32  N   UNL     1      39.178 -26.206 -13.020  0.00  0.00    -0.357 N 
ATOM     33  H   UNL     1      38.969 -26.993 -13.574  0.00  0.00    +0.142 HD
ATOM     34  H   UNL     1      40.113 -26.001 -12.790  0.00  0.00    +0.142 HD
ENDBRANCH  29  32
ENDBRANCH  25  26
ENDBRANCH   4  25
TORSDOF 7
ENDMDL
MODEL 3
REMARK VINA RESULT:     -10.5      4.667     10.396
REMARK  Name = 11712628
REMARK  7 active torsions:
REMARK  status: ('A' for Active; 'I' for Inactive)
REMARK    1  A    between atoms: C_1  and  C_10
REMARK    2  A    between atoms: C_2  and  C_16
REMARK    3  A    between atoms: C_3  and  C_14
REMARK    4  A    between atoms: C_4  and  S_25
REMARK    5  A    between atoms: C_15  and  C_24
REMARK    6  A    between atoms: S_25  and  C_26
REMARK    7  A    between atoms: C_29  and  N_32
REMARK                            x       y       z     vdW  Elec       q    Type
REMARK                         _______ _______ _______ _____ _____    ______ ____
ROOT
ATOM      1  C   UNL     1      32.178 -10.754 -21.412  0.00  0.00    +0.076 C 
ATOM      2  C   UNL     1      32.704 -10.807 -22.693  0.00  0.00    +0.004 C 
ATOM      3  C   UNL     1      32.195  -9.548 -20.712  0.00  0.00    +0.081 C 
ATOM      4  C   UNL     1      32.740  -8.407 -21.304  0.00  0.00    +0.033 C 
ATOM      5  C   UNL     1      33.249  -9.681 -23.293  0.00  0.00    +0.000 C 
ATOM      6  C   UNL     1      33.266  -8.474 -22.594  0.00  0.00    +0.006 C 
ENDROOT
BRANCH   1  10
ATOM      7  F   UNL     1      31.795 -13.115 -21.493  0.00  0.00    -0.166 F 
ATOM      8  F   UNL     1      32.099 -12.233 -19.533  0.00  0.00    -0.166 F 
ATOM      9  F   UNL     1      30.242 -11.877 -20.607  0.00  0.00    -0.166 F 
ATOM     10  C   UNL     1      31.591 -11.975 -20.772  0.00  0.00    +0.419 C 
ENDBRANCH   1  10
BRANCH   3  14
ATOM     11  F   UNL     1      31.416  -8.229 -18.875  0.00  0.00    -0.166 F 
ATOM     12  F   UNL     1      30.418 -10.123 -19.220  0.00  0.00    -0.166 F 
ATOM     13  F   UNL     1      32.435 -10.093 -18.411  0.00  0.00    -0.166 F 
ATOM     14  C   UNL     1      31.624  -9.498 -19.329  0.00  0.00    +0.419 C 
ENDBRANCH   3  14
BRANCH   2  16
ATOM     15  C   UNL     1      33.791 -12.625 -23.987  0.00  0.00    +0.058 C 
ATOM     16  C   UNL     1      32.702 -12.065 -23.461  0.00  0.00    +0.005 C 
BRANCH  15  24
ATOM     17  O   UNL     1      34.800 -17.528 -23.076  0.00  0.00    -0.350 OA
ATOM     18  O   UNL     1      33.347 -13.797 -25.938  0.00  0.00    -0.270 OA
ATOM     19  N   UNL     1      33.788 -15.082 -24.053  0.00  0.00    -0.271 N 
ATOM     20  C   UNL     1      33.479 -16.343 -24.728  0.00  0.00    +0.126 C 
ATOM     21  C   UNL     1      34.118 -15.243 -22.631  0.00  0.00    +0.126 C 
ATOM     22  C   UNL     1      34.588 -17.358 -24.480  0.00  0.00    +0.164 C 
ATOM     23  C   UNL     1      35.204 -16.299 -22.463  0.00  0.00    +0.164 C 
ATOM     24  C   UNL     1      33.624 -13.883 -24.740  0.00  0.00    +0.249 C 
ENDBRANCH  15  24
ENDBRANCH   2  16
BRANCH   4  25
ATOM     25  S   UNL     1      32.790  -6.833 -20.453  0.00  0.00    -0.087 S 
BRANCH  25  26
ATOM     26  C   UNL     1      32.488  -5.705 -21.803  0.00  0.00    +0.031 C 
ATOM     27  C   UNL     1      31.536  -4.697 -21.667  0.00  0.00    +0.021 C 
ATOM     28  C   UNL     1      33.205  -5.837 -22.991  0.00  0.00    +0.007 C 
ATOM     29  C   UNL     1      31.300  -3.817 -22.722  0.00  0.00    +0.042 C 
ATOM     30  C   UNL     1      32.969  -4.956 -24.047  0.00  0.00    +0.002 C 
ATOM     31  C   UNL     1      32.017  -3.946 -23.912  0.00  0.00    +0.014 C 
BRANCH  29  32
ATOM     32  N   UNL     1      30.337  -2.795 -22.588  0.00  0.00    -0.357 N 
ATOM     33  H   UNL     1      29.455  -2.999 -22.201  0.00  0.00    +0.142 HD
ATOM     34  H   UNL     1      30.547  -1.878 -22.880  0.00  0.00    +0.142 HD
ENDBRANCH  29  32
ENDBRANCH  25  26
ENDBRANCH   4  25
TORSDOF 7
ENDMDL
MODEL 4
REMARK VINA RESULT:     -10.5      6.142      9.060
REMARK  Name = 11712628
REMARK  7 active torsions:
REMARK  status: ('A' for Active; 'I' for Inactive)
REMARK    1  A    between atoms: C_1  and  C_10
REMARK    2  A    between atoms: C_2  and  C_16
REMARK    3  A    between atoms: C_3  and  C_14
REMARK    4  A    between atoms: C_4  and  S_25
REMARK    5  A    between atoms: C_15  and  C_24
REMARK    6  A    between atoms: S_25  and  C_26
REMARK    7  A    between atoms: C_29  and  N_32
REMARK                            x       y       z     vdW  Elec       q    Type
REMARK                         _______ _______ _______ _____ _____    ______ ____
ROOT
ATOM      1  C   UNL     1      35.397 -22.209 -17.706  0.00  0.00    +0.076 C 
ATOM      2  C   UNL     1      34.401 -22.095 -18.663  0.00  0.00    +0.004 C 
ATOM      3  C   UNL     1      35.106 -22.807 -16.479  0.00  0.00    +0.081 C 
ATOM      4  C   UNL     1      33.820 -23.285 -16.225  0.00  0.00    +0.033 C 
ATOM      5  C   UNL     1      33.118 -22.566 -18.423  0.00  0.00    +0.000 C 
ATOM      6  C   UNL     1      32.826 -23.164 -17.198  0.00  0.00    +0.006 C 
ENDROOT
BRANCH   1  10
ATOM      7  F   UNL     1      37.029 -21.474 -19.294  0.00  0.00    -0.166 F 
ATOM      8  F   UNL     1      37.052 -20.518 -17.346  0.00  0.00    -0.166 F 
ATOM      9  F   UNL     1      37.743 -22.569 -17.557  0.00  0.00    -0.166 F 
ATOM     10  C   UNL     1      36.781 -21.699 -17.973  0.00  0.00    +0.419 C 
ENDBRANCH   1  10
BRANCH   3  14
ATOM     11  F   UNL     1      36.998 -21.833 -15.388  0.00  0.00    -0.166 F 
ATOM     12  F   UNL     1      35.711 -23.099 -14.184  0.00  0.00    -0.166 F 
ATOM     13  F   UNL     1      37.010 -23.987 -15.684  0.00  0.00    -0.166 F 
ATOM     14  C   UNL     1      36.187 -22.927 -15.450  0.00  0.00    +0.419 C 
ENDBRANCH   3  14
BRANCH   2  16
ATOM     15  C   UNL     1      34.336 -20.220 -20.288  0.00  0.00    +0.058 C 
ATOM     16  C   UNL     1      34.674 -21.470 -19.968  0.00  0.00    +0.005 C 
BRANCH  15  24
ATOM     17  O   UNL     1      35.222 -15.668 -22.379  0.00  0.00    -0.350 OA
ATOM     18  O   UNL     1      34.554 -20.540 -22.574  0.00  0.00    -0.270 OA
ATOM     19  N   UNL     1      35.093 -18.423 -21.783  0.00  0.00    -0.271 N 
ATOM     20  C   UNL     1      35.578 -17.960 -23.084  0.00  0.00    +0.126 C 
ATOM     21  C   UNL     1      35.248 -17.430 -20.712  0.00  0.00    +0.126 C 
ATOM     22  C   UNL     1      34.963 -16.608 -23.424  0.00  0.00    +0.164 C 
ATOM     23  C   UNL     1      34.644 -16.098 -21.143  0.00  0.00    +0.164 C 
ATOM     24  C   UNL     1      34.670 -19.741 -21.643  0.00  0.00    +0.249 C 
ENDBRANCH  15  24
ENDBRANCH   2  16
BRANCH   4  25
ATOM     25  S   UNL     1      33.388 -24.059 -14.671  0.00  0.00    -0.087 S 
BRANCH  25  26
ATOM     26  C   UNL     1      31.609 -24.114 -14.798  0.00  0.00    +0.031 C 
ATOM     27  C   UNL     1      30.917 -25.255 -14.396  0.00  0.00    +0.021 C 
ATOM     28  C   UNL     1      30.915 -23.015 -15.301  0.00  0.00    +0.007 C 
ATOM     29  C   UNL     1      29.528 -25.297 -14.496  0.00  0.00    +0.042 C 
ATOM     30  C   UNL     1      29.525 -23.056 -15.401  0.00  0.00    +0.002 C 
ATOM     31  C   UNL     1      28.831 -24.198 -14.999  0.00  0.00    +0.014 C 
BRANCH  29  32
ATOM     32  N   UNL     1      28.825 -26.449 -14.089  0.00  0.00    -0.357 N 
ATOM     33  H   UNL     1      29.093 -27.334 -14.428  0.00  0.00    +0.142 HD
ATOM     34  H   UNL     1      28.066 -26.371 -13.467  0.00  0.00    +0.142 HD
ENDBRANCH  29  32
ENDBRANCH  25  26
ENDBRANCH   4  25
TORSDOF 7
ENDMDL
MODEL 5
REMARK VINA RESULT:     -10.0      6.340      9.242
REMARK  Name = 11712628
REMARK  7 active torsions:
REMARK  status: ('A' for Active; 'I' for Inactive)
REMARK    1  A    between atoms: C_1  and  C_10
REMARK    2  A    between atoms: C_2  and  C_16
REMARK    3  A    between atoms: C_3  and  C_14
REMARK    4  A    between atoms: C_4  and  S_25
REMARK    5  A    between atoms: C_15  and  C_24
REMARK    6  A    between atoms: S_25  and  C_26
REMARK    7  A    between atoms: C_29  and  N_32
REMARK                            x       y       z     vdW  Elec       q    Type
REMARK                         _______ _______ _______ _____ _____    ______ ____
ROOT
ATOM      1  C   UNL     1      34.700 -22.465 -17.647  0.00  0.00    +0.076 C 
ATOM      2  C   UNL     1      35.756 -21.860 -18.310  0.00  0.00    +0.004 C 
ATOM      3  C   UNL     1      34.865 -22.875 -16.324  0.00  0.00    +0.081 C 
ATOM      4  C   UNL     1      36.086 -22.674 -15.678  0.00  0.00    +0.033 C 
ATOM      5  C   UNL     1      36.975 -21.654 -17.681  0.00  0.00    +0.000 C 
ATOM      6  C   UNL     1      37.140 -22.063 -16.358  0.00  0.00    +0.006 C 
ENDROOT
BRANCH   1  10
ATOM      7  F   UNL     1      32.592 -23.596 -17.704  0.00  0.00    -0.166 F 
ATOM      8  F   UNL     1      32.632 -21.552 -18.431  0.00  0.00    -0.166 F 
ATOM      9  F   UNL     1      33.537 -23.140 -19.608  0.00  0.00    -0.166 F 
ATOM     10  C   UNL     1      33.386 -22.684 -18.333  0.00  0.00    +0.419 C 
ENDBRANCH   1  10
BRANCH   3  14
ATOM     11  F   UNL     1      33.889 -23.597 -14.263  0.00  0.00    -0.166 F 
ATOM     12  F   UNL     1      32.532 -22.882 -15.796  0.00  0.00    -0.166 F 
ATOM     13  F   UNL     1      33.512 -24.808 -16.029  0.00  0.00    -0.166 F 
ATOM     14  C   UNL     1      33.719 -23.528 -15.613  0.00  0.00    +0.419 C 
ENDBRANCH   3  14
BRANCH   2  16
ATOM     15  C   UNL     1      35.200 -20.202 -20.071  0.00  0.00    +0.058 C 
ATOM     16  C   UNL     1      35.616 -21.415 -19.707  0.00  0.00    +0.005 C 
BRANCH  15  24
ATOM     17  O   UNL     1      34.991 -15.967 -22.882  0.00  0.00    -0.350 OA
ATOM     18  O   UNL     1      34.829 -20.847 -22.267  0.00  0.00    -0.270 OA
ATOM     19  N   UNL     1      35.327 -18.602 -21.933  0.00  0.00    -0.271 N 
ATOM     20  C   UNL     1      35.391 -18.308 -23.365  0.00  0.00    +0.126 C 
ATOM     21  C   UNL     1      35.656 -17.450 -21.082  0.00  0.00    +0.126 C 
ATOM     22  C   UNL     1      34.564 -17.070 -23.685  0.00  0.00    +0.164 C 
ATOM     23  C   UNL     1      34.816 -16.244 -21.490  0.00  0.00    +0.164 C 
ATOM     24  C   UNL     1      35.103 -19.910 -21.514  0.00  0.00    +0.249 C 
ENDBRANCH  15  24
ENDBRANCH   2  16
BRANCH   4  25
ATOM     25  S   UNL     1      36.354 -23.180 -13.984  0.00  0.00    -0.087 S 
BRANCH  25  26
ATOM     26  C   UNL     1      37.062 -24.801 -14.218  0.00  0.00    +0.031 C 
ATOM     27  C   UNL     1      38.419 -25.010 -13.979  0.00  0.00    +0.021 C 
ATOM     28  C   UNL     1      36.255 -25.855 -14.642  0.00  0.00    +0.007 C 
ATOM     29  C   UNL     1      38.970 -26.277 -14.164  0.00  0.00    +0.042 C 
ATOM     30  C   UNL     1      36.806 -27.123 -14.826  0.00  0.00    +0.002 C 
ATOM     31  C   UNL     1      38.164 -27.334 -14.587  0.00  0.00    +0.014 C 
BRANCH  29  32
ATOM     32  N   UNL     1      40.343 -26.492 -13.922  0.00  0.00    -0.357 N 
ATOM     33  H   UNL     1      40.963 -26.606 -14.679  0.00  0.00    +0.142 HD
ATOM     34  H   UNL     1      40.682 -26.527 -12.999  0.00  0.00    +0.142 HD
ENDBRANCH  29  32
ENDBRANCH  25  26
ENDBRANCH   4  25
TORSDOF 7
ENDMDL
MODEL 6
REMARK VINA RESULT:      -9.9      5.521      8.001
REMARK  Name = 11712628
REMARK  7 active torsions:
REMARK  status: ('A' for Active; 'I' for Inactive)
REMARK    1  A    between atoms: C_1  and  C_10
REMARK    2  A    between atoms: C_2  and  C_16
REMARK    3  A    between atoms: C_3  and  C_14
REMARK    4  A    between atoms: C_4  and  S_25
REMARK    5  A    between atoms: C_15  and  C_24
REMARK    6  A    between atoms: S_25  and  C_26
REMARK    7  A    between atoms: C_29  and  N_32
REMARK                            x       y       z     vdW  Elec       q    Type
REMARK                         _______ _______ _______ _____ _____    ______ ____
ROOT
ATOM      1  C   UNL     1      32.460  -8.346 -21.458  0.00  0.00    +0.076 C 
ATOM      2  C   UNL     1      32.790  -8.310 -22.804  0.00  0.00    +0.004 C 
ATOM      3  C   UNL     1      32.075  -9.555 -20.879  0.00  0.00    +0.081 C 
ATOM      4  C   UNL     1      32.025 -10.715 -21.653  0.00  0.00    +0.033 C 
ATOM      5  C   UNL     1      32.745  -9.454 -23.586  0.00  0.00    +0.000 C 
ATOM      6  C   UNL     1      32.360 -10.664 -23.007  0.00  0.00    +0.006 C 
ENDROOT
BRANCH   1  10
ATOM      7  F   UNL     1      33.205  -7.265 -19.458  0.00  0.00    -0.166 F 
ATOM      8  F   UNL     1      33.102  -6.051 -21.253  0.00  0.00    -0.166 F 
ATOM      9  F   UNL     1      31.272  -6.673 -20.257  0.00  0.00    -0.166 F 
ATOM     10  C   UNL     1      32.512  -7.105 -20.621  0.00  0.00    +0.419 C 
ENDBRANCH   1  10
BRANCH   3  14
ATOM     11  F   UNL     1      31.322  -8.378 -18.938  0.00  0.00    -0.166 F 
ATOM     12  F   UNL     1      30.701 -10.447 -19.136  0.00  0.00    -0.166 F 
ATOM     13  F   UNL     1      32.766  -9.976 -18.643  0.00  0.00    -0.166 F 
ATOM     14  C   UNL     1      31.720  -9.587 -19.424  0.00  0.00    +0.419 C 
ENDBRANCH   3  14
BRANCH   2  16
ATOM     15  C   UNL     1      32.583  -6.506 -24.496  0.00  0.00    +0.058 C 
ATOM     16  C   UNL     1      33.202  -7.050 -23.448  0.00  0.00    +0.005 C 
BRANCH  15  24
ATOM     17  O   UNL     1      35.975  -5.284 -28.086  0.00  0.00    -0.350 OA
ATOM     18  O   UNL     1      32.882  -4.208 -24.412  0.00  0.00    -0.270 OA
ATOM     19  N   UNL     1      33.867  -5.300 -26.210  0.00  0.00    -0.271 N 
ATOM     20  C   UNL     1      34.286  -4.055 -26.856  0.00  0.00    +0.126 C 
ATOM     21  C   UNL     1      34.184  -6.502 -26.993  0.00  0.00    +0.126 C 
ATOM     22  C   UNL     1      35.752  -4.140 -27.259  0.00  0.00    +0.164 C 
ATOM     23  C   UNL     1      35.657  -6.493 -27.389  0.00  0.00    +0.164 C 
ATOM     24  C   UNL     1      33.123  -5.243 -25.036  0.00  0.00    +0.249 C 
ENDBRANCH  15  24
ENDBRANCH   2  16
BRANCH   4  25
ATOM     25  S   UNL     1      31.537 -12.292 -20.965  0.00  0.00    -0.087 S 
BRANCH  25  26
ATOM     26  C   UNL     1      32.680 -13.392 -21.784  0.00  0.00    +0.031 C 
ATOM     27  C   UNL     1      32.515 -13.685 -23.136  0.00  0.00    +0.021 C 
ATOM     28  C   UNL     1      33.734 -13.955 -21.068  0.00  0.00    +0.007 C 
ATOM     29  C   UNL     1      33.407 -14.544 -23.775  0.00  0.00    +0.042 C 
ATOM     30  C   UNL     1      34.627 -14.815 -21.707  0.00  0.00    +0.002 C 
ATOM     31  C   UNL     1      34.464 -15.109 -23.061  0.00  0.00    +0.014 C 
BRANCH  29  32
ATOM     32  N   UNL     1      33.244 -14.843 -25.143  0.00  0.00    -0.357 N 
ATOM     33  H   UNL     1      32.484 -15.396 -25.438  0.00  0.00    +0.142 HD
ATOM     34  H   UNL     1      33.888 -14.498 -25.804  0.00  0.00    +0.142 HD
ENDBRANCH  29  32
ENDBRANCH  25  26
ENDBRANCH   4  25
TORSDOF 7
ENDMDL
MODEL 7
REMARK VINA RESULT:      -9.8      5.122      9.576
REMARK  Name = 11712628
REMARK  7 active torsions:
REMARK  status: ('A' for Active; 'I' for Inactive)
REMARK    1  A    between atoms: C_1  and  C_10
REMARK    2  A    between atoms: C_2  and  C_16
REMARK    3  A    between atoms: C_3  and  C_14
REMARK    4  A    between atoms: C_4  and  S_25
REMARK    5  A    between atoms: C_15  and  C_24
REMARK    6  A    between atoms: S_25  and  C_26
REMARK    7  A    between atoms: C_29  and  N_32
REMARK                            x       y       z     vdW  Elec       q    Type
REMARK                         _______ _______ _______ _____ _____    ______ ____
ROOT
ATOM      1  C   UNL     1      35.345 -20.887 -19.724  0.00  0.00    +0.076 C 
ATOM      2  C   UNL     1      34.054 -21.348 -19.516  0.00  0.00    +0.004 C 
ATOM      3  C   UNL     1      35.598 -20.003 -20.773  0.00  0.00    +0.081 C 
ATOM      4  C   UNL     1      34.554 -19.588 -21.602  0.00  0.00    +0.033 C 
ATOM      5  C   UNL     1      33.008 -20.944 -20.332  0.00  0.00    +0.000 C 
ATOM      6  C   UNL     1      33.260 -20.059 -21.381  0.00  0.00    +0.006 C 
ENDROOT
BRANCH   1  10
ATOM      7  F   UNL     1      37.200 -20.292 -18.334  0.00  0.00    -0.166 F 
ATOM      8  F   UNL     1      36.054 -22.041 -17.751  0.00  0.00    -0.166 F 
ATOM      9  F   UNL     1      37.360 -22.128 -19.488  0.00  0.00    -0.166 F 
ATOM     10  C   UNL     1      36.470 -21.328 -18.837  0.00  0.00    +0.419 C 
ENDBRANCH   1  10
BRANCH   3  14
ATOM     11  F   UNL     1      37.948 -20.435 -20.689  0.00  0.00    -0.166 F 
ATOM     12  F   UNL     1      37.242 -19.142 -22.280  0.00  0.00    -0.166 F 
ATOM     13  F   UNL     1      37.283 -18.416 -20.231  0.00  0.00    -0.166 F 
ATOM     14  C   UNL     1      36.995 -19.509 -20.991  0.00  0.00    +0.419 C 
ENDBRANCH   3  14
BRANCH   2  16
ATOM     15  C   UNL     1      32.586 -22.331 -17.773  0.00  0.00    +0.058 C 
ATOM     16  C   UNL     1      33.752 -22.282 -18.418  0.00  0.00    +0.005 C 
BRANCH  15  24
ATOM     17  O   UNL     1      28.768 -23.842 -14.769  0.00  0.00    -0.350 OA
ATOM     18  O   UNL     1      33.472 -23.806 -16.218  0.00  0.00    -0.270 OA
ATOM     19  N   UNL     1      31.155 -23.636 -16.260  0.00  0.00    -0.271 N 
ATOM     20  C   UNL     1      30.966 -24.719 -15.295  0.00  0.00    +0.126 C 
ATOM     21  C   UNL     1      29.895 -23.087 -16.780  0.00  0.00    +0.126 C 
ATOM     22  C   UNL     1      30.002 -24.285 -14.198  0.00  0.00    +0.164 C 
ATOM     23  C   UNL     1      28.972 -22.714 -15.625  0.00  0.00    +0.164 C 
ATOM     24  C   UNL     1      32.441 -23.318 -16.686  0.00  0.00    +0.249 C 
ENDBRANCH  15  24
ENDBRANCH   2  16
BRANCH   4  25
ATOM     25  S   UNL     1      34.819 -18.457 -22.962  0.00  0.00    -0.087 S 
BRANCH  25  26
ATOM     26  C   UNL     1      34.688 -16.884 -22.129  0.00  0.00    +0.031 C 
ATOM     27  C   UNL     1      34.582 -15.710 -22.872  0.00  0.00    +0.021 C 
ATOM     28  C   UNL     1      34.695 -16.834 -20.737  0.00  0.00    +0.007 C 
ATOM     29  C   UNL     1      34.480 -14.482 -22.220  0.00  0.00    +0.042 C 
ATOM     30  C   UNL     1      34.593 -15.605 -20.084  0.00  0.00    +0.002 C 
ATOM     31  C   UNL     1      34.486 -14.429 -20.827  0.00  0.00    +0.014 C 
BRANCH  29  32
ATOM     32  N   UNL     1      34.372 -13.292 -22.969  0.00  0.00    -0.357 N 
ATOM     33  H   UNL     1      33.681 -13.210 -23.666  0.00  0.00    +0.142 HD
ATOM     34  H   UNL     1      34.987 -12.542 -22.796  0.00  0.00    +0.142 HD
ENDBRANCH  29  32
ENDBRANCH  25  26
ENDBRANCH   4  25
TORSDOF 7
ENDMDL
MODEL 8
REMARK VINA RESULT:      -9.8      3.183      8.275
REMARK  Name = 11712628
REMARK  7 active torsions:
REMARK  status: ('A' for Active; 'I' for Inactive)
REMARK    1  A    between atoms: C_1  and  C_10
REMARK    2  A    between atoms: C_2  and  C_16
REMARK    3  A    between atoms: C_3  and  C_14
REMARK    4  A    between atoms: C_4  and  S_25
REMARK    5  A    between atoms: C_15  and  C_24
REMARK    6  A    between atoms: S_25  and  C_26
REMARK    7  A    between atoms: C_29  and  N_32
REMARK                            x       y       z     vdW  Elec       q    Type
REMARK                         _______ _______ _______ _____ _____    ______ ____
ROOT
ATOM      1  C   UNL     1      34.432 -15.662 -23.388  0.00  0.00    +0.076 C 
ATOM      2  C   UNL     1      34.806 -15.755 -22.057  0.00  0.00    +0.004 C 
ATOM      3  C   UNL     1      33.802 -14.504 -23.845  0.00  0.00    +0.081 C 
ATOM      4  C   UNL     1      33.555 -13.451 -22.963  0.00  0.00    +0.033 C 
ATOM      5  C   UNL     1      34.566 -14.716 -21.169  0.00  0.00    +0.000 C 
ATOM      6  C   UNL     1      33.938 -13.557 -21.626  0.00  0.00    +0.006 C 
ENDROOT
BRANCH   1  10
ATOM      7  F   UNL     1      35.385 -16.408 -25.452  0.00  0.00    -0.166 F 
ATOM      8  F   UNL     1      35.423 -17.803 -23.789  0.00  0.00    -0.166 F 
ATOM      9  F   UNL     1      33.545 -17.362 -24.795  0.00  0.00    -0.166 F 
ATOM     10  C   UNL     1      34.695 -16.789 -24.340  0.00  0.00    +0.419 C 
ENDBRANCH   1  10
BRANCH   3  14
ATOM     11  F   UNL     1      33.107 -15.619 -25.843  0.00  0.00    -0.166 F 
ATOM     12  F   UNL     1      32.296 -13.640 -25.488  0.00  0.00    -0.166 F 
ATOM     13  F   UNL     1      34.380 -13.870 -26.062  0.00  0.00    -0.166 F 
ATOM     14  C   UNL     1      33.401 -14.411 -25.285  0.00  0.00    +0.419 C 
ENDBRANCH   3  14
BRANCH   2  16
ATOM     15  C   UNL     1      34.831 -18.014 -21.031  0.00  0.00    +0.058 C 
ATOM     16  C   UNL     1      35.473 -16.963 -21.540  0.00  0.00    +0.005 C 
BRANCH  15  24
ATOM     17  O   UNL     1      33.808 -22.572 -19.014  0.00  0.00    -0.350 OA
ATOM     18  O   UNL     1      36.851 -18.958 -20.393  0.00  0.00    -0.270 OA
ATOM     19  N   UNL     1      34.995 -20.352 -20.287  0.00  0.00    -0.271 N 
ATOM     20  C   UNL     1      35.788 -21.535 -19.953  0.00  0.00    +0.126 C 
ATOM     21  C   UNL     1      33.562 -20.632 -20.449  0.00  0.00    +0.126 C 
ATOM     22  C   UNL     1      35.178 -22.256 -18.757  0.00  0.00    +0.164 C 
ATOM     23  C   UNL     1      33.038 -21.387 -19.233  0.00  0.00    +0.164 C 
ATOM     24  C   UNL     1      35.643 -19.147 -20.544  0.00  0.00    +0.249 C 
ENDBRANCH  15  24
ENDBRANCH   2  16
BRANCH   4  25
ATOM     25  S   UNL     1      32.751 -11.943 -23.493  0.00  0.00    -0.087 S 
BRANCH  25  26
ATOM     26  C   UNL     1      32.269 -11.243 -21.924  0.00  0.00    +0.031 C 
ATOM     27  C   UNL     1      32.303  -9.862 -21.739  0.00  0.00    +0.021 C 
ATOM     28  C   UNL     1      31.862 -12.079 -20.887  0.00  0.00    +0.007 C 
ATOM     29  C   UNL     1      31.927  -9.316 -20.513  0.00  0.00    +0.042 C 
ATOM     30  C   UNL     1      31.486 -11.533 -19.659  0.00  0.00    +0.002 C 
ATOM     31  C   UNL     1      31.519 -10.151 -19.473  0.00  0.00    +0.014 C 
BRANCH  29  32
ATOM     32  N   UNL     1      31.960  -7.919 -20.322  0.00  0.00    -0.357 N 
ATOM     33  H   UNL     1      31.342  -7.339 -20.824  0.00  0.00    +0.142 HD
ATOM     34  H   UNL     1      32.600  -7.522 -19.687  0.00  0.00    +0.142 HD
ENDBRANCH  29  32
ENDBRANCH  25  26
ENDBRANCH   4  25
TORSDOF 7
ENDMDL
MODEL 9
REMARK VINA RESULT:      -9.8      5.464      7.942
REMARK  Name = 11712628
REMARK  7 active torsions:
REMARK  status: ('A' for Active; 'I' for Inactive)
REMARK    1  A    between atoms: C_1  and  C_10
REMARK    2  A    between atoms: C_2  and  C_16
REMARK    3  A    between atoms: C_3  and  C_14
REMARK    4  A    between atoms: C_4  and  S_25
REMARK    5  A    between atoms: C_15  and  C_24
REMARK    6  A    between atoms: S_25  and  C_26
REMARK    7  A    between atoms: C_29  and  N_32
REMARK                            x       y       z     vdW  Elec       q    Type
REMARK                         _______ _______ _______ _____ _____    ______ ____
ROOT
ATOM      1  C   UNL     1      32.474  -8.412 -21.609  0.00  0.00    +0.076 C 
ATOM      2  C   UNL     1      32.754  -8.450 -22.966  0.00  0.00    +0.004 C 
ATOM      3  C   UNL     1      32.081  -9.581 -20.957  0.00  0.00    +0.081 C 
ATOM      4  C   UNL     1      31.973 -10.775 -21.671  0.00  0.00    +0.033 C 
ATOM      5  C   UNL     1      32.650  -9.629 -23.688  0.00  0.00    +0.000 C 
ATOM      6  C   UNL     1      32.258 -10.798 -23.037  0.00  0.00    +0.006 C 
ENDROOT
BRANCH   1  10
ATOM      7  F   UNL     1      33.323  -7.257 -19.693  0.00  0.00    -0.166 F 
ATOM      8  F   UNL     1      33.180  -6.127 -21.541  0.00  0.00    -0.166 F 
ATOM      9  F   UNL     1      31.375  -6.652 -20.447  0.00  0.00    -0.166 F 
ATOM     10  C   UNL     1      32.589  -7.134 -20.836  0.00  0.00    +0.419 C 
ENDBRANCH   1  10
BRANCH   3  14
ATOM     11  F   UNL     1      31.351  -8.312 -19.066  0.00  0.00    -0.166 F 
ATOM     12  F   UNL     1      30.810 -10.412 -19.109  0.00  0.00    -0.166 F 
ATOM     13  F   UNL     1      32.870  -9.831 -18.728  0.00  0.00    -0.166 F 
ATOM     14  C   UNL     1      31.781  -9.534 -19.490  0.00  0.00    +0.419 C 
ENDBRANCH   3  14
BRANCH   2  16
ATOM     15  C   UNL     1      32.537  -6.733 -24.746  0.00  0.00    +0.058 C 
ATOM     16  C   UNL     1      33.172  -7.234 -23.686  0.00  0.00    +0.005 C 
BRANCH  15  24
ATOM     17  O   UNL     1      31.214  -1.821 -24.808  0.00  0.00    -0.350 OA
ATOM     18  O   UNL     1      33.962  -5.652 -26.220  0.00  0.00    -0.270 OA
ATOM     19  N   UNL     1      32.584  -4.284 -24.945  0.00  0.00    -0.271 N 
ATOM     20  C   UNL     1      33.211  -3.051 -25.423  0.00  0.00    +0.126 C 
ATOM     21  C   UNL     1      31.543  -4.059 -23.932  0.00  0.00    +0.126 C 
ATOM     22  C   UNL     1      32.145  -2.057 -25.867  0.00  0.00    +0.164 C 
ATOM     23  C   UNL     1      30.540  -3.027 -24.435  0.00  0.00    +0.164 C 
ATOM     24  C   UNL     1      33.086  -5.512 -25.365  0.00  0.00    +0.249 C 
ENDBRANCH  15  24
ENDBRANCH   2  16
BRANCH   4  25
ATOM     25  S   UNL     1      31.472 -12.304 -20.888  0.00  0.00    -0.087 S 
BRANCH  25  26
ATOM     26  C   UNL     1      32.663 -13.444 -21.571  0.00  0.00    +0.031 C 
ATOM     27  C   UNL     1      32.658 -13.720 -22.937  0.00  0.00    +0.021 C 
ATOM     28  C   UNL     1      33.595 -14.057 -20.735  0.00  0.00    +0.007 C 
ATOM     29  C   UNL     1      33.589 -14.611 -23.469  0.00  0.00    +0.042 C 
ATOM     30  C   UNL     1      34.526 -14.949 -21.268  0.00  0.00    +0.002 C 
ATOM     31  C   UNL     1      34.523 -15.226 -22.635  0.00  0.00    +0.014 C 
BRANCH  29  32
ATOM     32  N   UNL     1      33.587 -14.893 -24.851  0.00  0.00    -0.357 N 
ATOM     33  H   UNL     1      33.936 -15.754 -25.178  0.00  0.00    +0.142 HD
ATOM     34  H   UNL     1      33.238 -14.229 -25.489  0.00  0.00    +0.142 HD
ENDBRANCH  29  32
ENDBRANCH  25  26
ENDBRANCH   4  25
TORSDOF 7
ENDMDL
