MODEL 1
REMARK VINA RESULT:     -11.5      0.000      0.000
REMARK  Name = 11610526
REMARK  3 active torsions:
REMARK  status: ('A' for Active; 'I' for Inactive)
REMARK    1  A    between atoms: C_2  and  C_21
REMARK    2  A    between atoms: C_9  and  C_14
REMARK    3  A    between atoms: C_21  and  C_23
REMARK                            x       y       z     vdW  Elec       q    Type
REMARK                         _______ _______ _______ _____ _____    ______ ____
ROOT
ATOM      1  N   UNL     1      34.368 -21.549 -19.395  0.00  0.00    -0.388 NA
ATOM      2  C   UNL     1      34.765 -22.357 -18.408  0.00  0.00    +0.167 C 
ATOM      3  C   UNL     1      36.008 -22.407 -17.839  0.00  0.00    +0.031 C 
ATOM      4  C   UNL     1      35.317 -20.706 -19.858  0.00  0.00    +0.167 C 
ATOM      5  C   UNL     1      36.958 -21.524 -18.342  0.00  0.00    -0.015 C 
ATOM      6  C   UNL     1      36.613 -20.654 -19.371  0.00  0.00    +0.101 C 
ATOM      7  O   UNL     1      36.978 -18.645 -21.266  0.00  0.00    -0.270 OA
ATOM      8  N   UNL     1      34.981 -19.826 -20.893  0.00  0.00    -0.259 N 
ATOM      9  C   UNL     1      35.801 -18.880 -21.516  0.00  0.00    +0.255 C 
ATOM     10  H   UNL     1      34.055 -19.881 -21.224  0.00  0.00    +0.157 HD
ENDROOT
BRANCH   9  14
ATOM     11  F   UNL     1      35.429 -16.113 -21.257  0.00  0.00    -0.204 F 
ATOM     12  F   UNL     1      34.849 -20.018 -23.897  0.00  0.00    -0.204 F 
ATOM     13  F   UNL     1      33.326 -15.831 -25.485  0.00  0.00    -0.204 F 
ATOM     14  C   UNL     1      35.142 -18.068 -22.573  0.00  0.00    +0.109 C 
ATOM     15  C   UNL     1      34.994 -16.711 -22.374  0.00  0.00    +0.149 C 
ATOM     16  C   UNL     1      34.700 -18.698 -23.717  0.00  0.00    +0.149 C 
ATOM     17  C   UNL     1      34.376 -15.950 -23.366  0.00  0.00    +0.060 C 
ATOM     18  C   UNL     1      34.081 -17.936 -24.708  0.00  0.00    +0.060 C 
ATOM     19  C   UNL     1      33.919 -16.562 -24.533  0.00  0.00    +0.145 C 
ENDBRANCH   9  14
BRANCH   2  21
ATOM     20  O   UNL     1      33.351 -24.235 -18.595  0.00  0.00    -0.289 OA
ATOM     21  C   UNL     1      33.708 -23.281 -17.909  0.00  0.00    +0.202 C 
BRANCH  21  23
ATOM     22  N   UNL     1      31.577 -24.092 -14.306  0.00  0.00    +0.386 N 
ATOM     23  C   UNL     1      33.094 -23.027 -16.567  0.00  0.00    +0.060 C 
ATOM     24  C   UNL     1      33.721 -23.960 -15.532  0.00  0.00    -0.015 C 
ATOM     25  C   UNL     1      31.583 -23.241 -16.629  0.00  0.00    -0.015 C 
ATOM     26  C   UNL     1      33.018 -23.839 -14.178  0.00  0.00    -0.077 C 
ATOM     27  C   UNL     1      30.952 -23.143 -15.238  0.00  0.00    -0.077 C 
ATOM     28  C   UNL     1      30.929 -24.024 -12.996  0.00  0.00    -0.101 C 
ATOM     29  H   UNL     1      31.454 -25.032 -14.684  0.00  0.00    -0.080 HD
ENDBRANCH  21  23
ENDBRANCH   2  21
TORSDOF 3
ENDMDL
MODEL 2
REMARK VINA RESULT:     -11.5      0.023      1.593
REMARK  Name = 11610526
REMARK  3 active torsions:
REMARK  status: ('A' for Active; 'I' for Inactive)
REMARK    1  A    between atoms: C_2  and  C_21
REMARK    2  A    between atoms: C_9  and  C_14
REMARK    3  A    between atoms: C_21  and  C_23
REMARK                            x       y       z     vdW  Elec       q    Type
REMARK                         _______ _______ _______ _____ _____    ______ ____
ROOT
ATOM      1  N   UNL     1      34.377 -21.551 -19.407  0.00  0.00    -0.388 NA
ATOM      2  C   UNL     1      34.777 -22.361 -18.424  0.00  0.00    +0.167 C 
ATOM      3  C   UNL     1      36.021 -22.412 -17.858  0.00  0.00    +0.031 C 
ATOM      4  C   UNL     1      35.324 -20.707 -19.871  0.00  0.00    +0.167 C 
ATOM      5  C   UNL     1      36.969 -21.527 -18.360  0.00  0.00    -0.015 C 
ATOM      6  C   UNL     1      36.621 -20.655 -19.386  0.00  0.00    +0.101 C 
ATOM      7  O   UNL     1      36.981 -18.640 -21.276  0.00  0.00    -0.270 OA
ATOM      8  N   UNL     1      34.985 -19.823 -20.902  0.00  0.00    -0.259 N 
ATOM      9  C   UNL     1      35.803 -18.876 -21.525  0.00  0.00    +0.255 C 
ATOM     10  H   UNL     1      34.059 -19.878 -21.231  0.00  0.00    +0.157 HD
ENDROOT
BRANCH   9  14
ATOM     11  F   UNL     1      34.860 -20.005 -23.912  0.00  0.00    -0.204 F 
ATOM     12  F   UNL     1      35.418 -16.110 -21.251  0.00  0.00    -0.204 F 
ATOM     13  F   UNL     1      33.319 -15.816 -25.480  0.00  0.00    -0.204 F 
ATOM     14  C   UNL     1      35.142 -18.061 -22.577  0.00  0.00    +0.109 C 
ATOM     15  C   UNL     1      34.704 -18.687 -23.726  0.00  0.00    +0.149 C 
ATOM     16  C   UNL     1      34.988 -16.706 -22.372  0.00  0.00    +0.149 C 
ATOM     17  C   UNL     1      34.083 -17.922 -24.714  0.00  0.00    +0.060 C 
ATOM     18  C   UNL     1      34.368 -15.942 -23.361  0.00  0.00    +0.060 C 
ATOM     19  C   UNL     1      33.915 -16.550 -24.532  0.00  0.00    +0.145 C 
ENDBRANCH   9  14
BRANCH   2  21
ATOM     20  O   UNL     1      33.362 -24.240 -18.613  0.00  0.00    -0.289 OA
ATOM     21  C   UNL     1      33.721 -23.287 -17.925  0.00  0.00    +0.202 C 
BRANCH  21  23
ATOM     22  N   UNL     1      31.568 -24.100 -14.335  0.00  0.00    +0.386 N 
ATOM     23  C   UNL     1      33.110 -23.038 -16.581  0.00  0.00    +0.060 C 
ATOM     24  C   UNL     1      33.717 -23.997 -15.557  0.00  0.00    -0.015 C 
ATOM     25  C   UNL     1      31.595 -23.220 -16.647  0.00  0.00    -0.015 C 
ATOM     26  C   UNL     1      33.014 -23.879 -14.203  0.00  0.00    -0.077 C 
ATOM     27  C   UNL     1      30.964 -23.127 -15.256  0.00  0.00    -0.077 C 
ATOM     28  C   UNL     1      30.919 -24.036 -13.026  0.00  0.00    -0.101 C 
ATOM     29  H   UNL     1      31.426 -25.032 -14.725  0.00  0.00    -0.080 HD
ENDBRANCH  21  23
ENDBRANCH   2  21
TORSDOF 3
ENDMDL
MODEL 3
REMARK VINA RESULT:     -11.4      3.527      6.175
REMARK  Name = 11610526
REMARK  3 active torsions:
REMARK  status: ('A' for Active; 'I' for Inactive)
REMARK    1  A    between atoms: C_2  and  C_21
REMARK    2  A    between atoms: C_9  and  C_14
REMARK    3  A    between atoms: C_21  and  C_23
REMARK                            x       y       z     vdW  Elec       q    Type
REMARK                         _______ _______ _______ _____ _____    ______ ____
ROOT
ATOM      1  N   UNL     1      35.007 -17.097 -21.887  0.00  0.00    -0.388 NA
ATOM      2  C   UNL     1      35.369 -18.344 -22.196  0.00  0.00    +0.167 C 
ATOM      3  C   UNL     1      35.224 -18.964 -23.407  0.00  0.00    +0.031 C 
ATOM      4  C   UNL     1      34.441 -16.400 -22.897  0.00  0.00    +0.167 C 
ATOM      5  C   UNL     1      34.637 -18.215 -24.422  0.00  0.00    -0.015 C 
ATOM      6  C   UNL     1      34.236 -16.908 -24.170  0.00  0.00    +0.101 C 
ATOM      7  O   UNL     1      33.147 -14.404 -24.722  0.00  0.00    -0.270 OA
ATOM      8  N   UNL     1      34.034 -15.083 -22.654  0.00  0.00    -0.259 N 
ATOM      9  C   UNL     1      33.431 -14.192 -23.548  0.00  0.00    +0.255 C 
ATOM     10  H   UNL     1      34.189 -14.743 -21.744  0.00  0.00    +0.157 HD
ENDROOT
BRANCH   9  14
ATOM     11  F   UNL     1      31.640 -13.803 -21.425  0.00  0.00    -0.204 F 
ATOM     12  F   UNL     1      34.636 -11.872 -24.565  0.00  0.00    -0.204 F 
ATOM     13  F   UNL     1      32.333  -9.123 -21.480  0.00  0.00    -0.204 F 
ATOM     14  C   UNL     1      33.139 -12.843 -22.997  0.00  0.00    +0.109 C 
ATOM     15  C   UNL     1      32.245 -12.730 -21.952  0.00  0.00    +0.149 C 
ATOM     16  C   UNL     1      33.770 -11.748 -23.549  0.00  0.00    +0.149 C 
ATOM     17  C   UNL     1      31.971 -11.463 -21.436  0.00  0.00    +0.060 C 
ATOM     18  C   UNL     1      33.494 -10.482 -23.033  0.00  0.00    +0.060 C 
ATOM     19  C   UNL     1      32.595 -10.339 -21.976  0.00  0.00    +0.145 C 
ENDBRANCH   9  14
BRANCH   2  21
ATOM     20  O   UNL     1      36.976 -18.645 -20.496  0.00  0.00    -0.289 OA
ATOM     21  C   UNL     1      35.990 -19.099 -21.072  0.00  0.00    +0.202 C 
BRANCH  21  23
ATOM     22  N   UNL     1      34.109 -21.986 -18.561  0.00  0.00    +0.386 N 
ATOM     23  C   UNL     1      35.397 -20.411 -20.660  0.00  0.00    +0.060 C 
ATOM     24  C   UNL     1      33.932 -20.211 -20.274  0.00  0.00    -0.015 C 
ATOM     25  C   UNL     1      36.180 -21.000 -19.488  0.00  0.00    -0.015 C 
ATOM     26  C   UNL     1      33.329 -21.497 -19.704  0.00  0.00    -0.077 C 
ATOM     27  C   UNL     1      35.501 -22.259 -18.946  0.00  0.00    -0.077 C 
ATOM     28  C   UNL     1      33.491 -23.185 -17.995  0.00  0.00    -0.101 C 
ATOM     29  H   UNL     1      34.118 -21.255 -17.848  0.00  0.00    -0.080 HD
ENDBRANCH  21  23
ENDBRANCH   2  21
TORSDOF 3
ENDMDL
MODEL 4
REMARK VINA RESULT:     -11.0      4.028      9.493
REMARK  Name = 11610526
REMARK  3 active torsions:
REMARK  status: ('A' for Active; 'I' for Inactive)
REMARK    1  A    between atoms: C_2  and  C_21
REMARK    2  A    between atoms: C_9  and  C_14
REMARK    3  A    between atoms: C_21  and  C_23
REMARK                            x       y       z     vdW  Elec       q    Type
REMARK                         _______ _______ _______ _____ _____    ______ ____
ROOT
ATOM      1  N   UNL     1      34.515 -16.235 -21.416  0.00  0.00    -0.388 NA
ATOM      2  C   UNL     1      34.513 -15.258 -22.327  0.00  0.00    +0.167 C 
ATOM      3  C   UNL     1      34.680 -15.396 -23.677  0.00  0.00    +0.031 C 
ATOM      4  C   UNL     1      34.705 -17.477 -21.913  0.00  0.00    +0.167 C 
ATOM      5  C   UNL     1      34.872 -16.689 -24.151  0.00  0.00    -0.015 C 
ATOM      6  C   UNL     1      34.886 -17.755 -23.258  0.00  0.00    +0.101 C 
ATOM      7  O   UNL     1      35.078 -20.407 -22.428  0.00  0.00    -0.270 OA
ATOM      8  N   UNL     1      34.719 -18.558 -21.023  0.00  0.00    -0.259 N 
ATOM      9  C   UNL     1      34.899 -19.912 -21.320  0.00  0.00    +0.255 C 
ATOM     10  H   UNL     1      34.589 -18.337 -20.073  0.00  0.00    +0.157 HD
ENDROOT
BRANCH   9  14
ATOM     11  F   UNL     1      37.199 -20.731 -19.940  0.00  0.00    -0.204 F 
ATOM     12  F   UNL     1      32.472 -20.938 -20.358  0.00  0.00    -0.204 F 
ATOM     13  F   UNL     1      34.661 -23.364 -16.938  0.00  0.00    -0.204 F 
ATOM     14  C   UNL     1      34.836 -20.830 -20.154  0.00  0.00    +0.109 C 
ATOM     15  C   UNL     1      36.010 -21.190 -19.525  0.00  0.00    +0.149 C 
ATOM     16  C   UNL     1      33.605 -21.294 -19.738  0.00  0.00    +0.149 C 
ATOM     17  C   UNL     1      35.949 -22.052 -18.430  0.00  0.00    +0.060 C 
ATOM     18  C   UNL     1      33.546 -22.157 -18.643  0.00  0.00    +0.060 C 
ATOM     19  C   UNL     1      34.718 -22.536 -17.989  0.00  0.00    +0.145 C 
ENDBRANCH   9  14
BRANCH   2  21
ATOM     20  O   UNL     1      35.016 -13.492 -20.846  0.00  0.00    -0.289 OA
ATOM     21  C   UNL     1      34.304 -13.895 -21.763  0.00  0.00    +0.202 C 
BRANCH  21  23
ATOM     22  N   UNL     1      31.927 -10.409 -22.383  0.00  0.00    +0.386 N 
ATOM     23  C   UNL     1      33.219 -13.032 -22.328  0.00  0.00    +0.060 C 
ATOM     24  C   UNL     1      33.840 -11.832 -23.044  0.00  0.00    -0.015 C 
ATOM     25  C   UNL     1      32.284 -12.562 -21.216  0.00  0.00    -0.015 C 
ATOM     26  C   UNL     1      32.766 -10.846 -23.507  0.00  0.00    -0.077 C 
ATOM     27  C   UNL     1      31.262 -11.552 -21.741  0.00  0.00    -0.077 C 
ATOM     28  C   UNL     1      30.940  -9.428 -22.832  0.00  0.00    -0.101 C 
ATOM     29  H   UNL     1      32.534  -9.969 -21.689  0.00  0.00    -0.080 HD
ENDBRANCH  21  23
ENDBRANCH   2  21
TORSDOF 3
ENDMDL
MODEL 5
REMARK VINA RESULT:     -10.9      4.512      9.408
REMARK  Name = 11610526
REMARK  3 active torsions:
REMARK  status: ('A' for Active; 'I' for Inactive)
REMARK    1  A    between atoms: C_2  and  C_21
REMARK    2  A    between atoms: C_9  and  C_14
REMARK    3  A    between atoms: C_21  and  C_23
REMARK                            x       y       z     vdW  Elec       q    Type
REMARK                         _______ _______ _______ _____ _____    ______ ____
ROOT
ATOM      1  N   UNL     1      34.234 -14.908 -22.900  0.00  0.00    -0.388 NA
ATOM      2  C   UNL     1      33.790 -14.021 -23.795  0.00  0.00    +0.167 C 
ATOM      3  C   UNL     1      33.424 -14.275 -25.088  0.00  0.00    +0.031 C 
ATOM      4  C   UNL     1      34.319 -16.179 -23.351  0.00  0.00    +0.167 C 
ATOM      5  C   UNL     1      33.526 -15.595 -25.516  0.00  0.00    -0.015 C 
ATOM      6  C   UNL     1      33.981 -16.571 -24.636  0.00  0.00    +0.101 C 
ATOM      7  O   UNL     1      34.711 -19.120 -23.783  0.00  0.00    -0.270 OA
ATOM      8  N   UNL     1      34.775 -17.170 -22.473  0.00  0.00    -0.259 N 
ATOM      9  C   UNL     1      34.940 -18.534 -22.730  0.00  0.00    +0.255 C 
ATOM     10  H   UNL     1      35.010 -16.869 -21.566  0.00  0.00    +0.157 HD
ENDROOT
BRANCH   9  14
ATOM     11  F   UNL     1      37.604 -18.453 -21.857  0.00  0.00    -0.204 F 
ATOM     12  F   UNL     1      33.239 -20.239 -21.291  0.00  0.00    -0.204 F 
ATOM     13  F   UNL     1      36.742 -21.570 -18.404  0.00  0.00    -0.204 F 
ATOM     14  C   UNL     1      35.420 -19.342 -21.578  0.00  0.00    +0.109 C 
ATOM     15  C   UNL     1      36.745 -19.250 -21.207  0.00  0.00    +0.149 C 
ATOM     16  C   UNL     1      34.524 -20.158 -20.919  0.00  0.00    +0.149 C 
ATOM     17  C   UNL     1      37.195 -20.009 -20.126  0.00  0.00    +0.060 C 
ATOM     18  C   UNL     1      34.975 -20.917 -19.839  0.00  0.00    +0.060 C 
ATOM     19  C   UNL     1      36.310 -20.843 -19.442  0.00  0.00    +0.145 C 
ENDBRANCH   9  14
BRANCH   2  21
ATOM     20  O   UNL     1      34.526 -11.786 -23.640  0.00  0.00    -0.289 OA
ATOM     21  C   UNL     1      33.703 -12.625 -23.284  0.00  0.00    +0.202 C 
BRANCH  21  23
ATOM     22  N   UNL     1      31.768 -10.724 -19.993  0.00  0.00    +0.386 N 
ATOM     23  C   UNL     1      32.603 -12.266 -22.334  0.00  0.00    +0.060 C 
ATOM     24  C   UNL     1      32.341 -10.761 -22.400  0.00  0.00    -0.015 C 
ATOM     25  C   UNL     1      32.977 -12.678 -20.911  0.00  0.00    -0.015 C 
ATOM     26  C   UNL     1      31.328 -10.328 -21.337  0.00  0.00    -0.077 C 
ATOM     27  C   UNL     1      31.942 -12.180 -19.900  0.00  0.00    -0.077 C 
ATOM     28  C   UNL     1      30.816 -10.257 -18.985  0.00  0.00    -0.101 C 
ATOM     29  H   UNL     1      32.673 -10.287 -19.816  0.00  0.00    -0.080 HD
ENDBRANCH  21  23
ENDBRANCH   2  21
TORSDOF 3
ENDMDL
MODEL 6
REMARK VINA RESULT:     -10.9      4.642      9.759
REMARK  Name = 11610526
REMARK  3 active torsions:
REMARK  status: ('A' for Active; 'I' for Inactive)
REMARK    1  A    between atoms: C_2  and  C_21
REMARK    2  A    between atoms: C_9  and  C_14
REMARK    3  A    between atoms: C_21  and  C_23
REMARK                            x       y       z     vdW  Elec       q    Type
REMARK                         _______ _______ _______ _____ _____    ______ ____
ROOT
ATOM      1  N   UNL     1      35.558 -21.969 -18.332  0.00  0.00    -0.388 NA
ATOM      2  C   UNL     1      34.862 -21.348 -19.289  0.00  0.00    +0.167 C 
ATOM      3  C   UNL     1      33.510 -21.404 -19.486  0.00  0.00    +0.031 C 
ATOM      4  C   UNL     1      34.820 -22.723 -17.489  0.00  0.00    +0.167 C 
ATOM      5  C   UNL     1      32.784 -22.190 -18.597  0.00  0.00    -0.015 C 
ATOM      6  C   UNL     1      33.445 -22.866 -17.577  0.00  0.00    +0.101 C 
ATOM      7  O   UNL     1      33.724 -24.516 -15.350  0.00  0.00    -0.270 OA
ATOM      8  N   UNL     1      35.475 -23.406 -16.457  0.00  0.00    -0.259 N 
ATOM      9  C   UNL     1      34.910 -24.234 -15.482  0.00  0.00    +0.255 C 
ATOM     10  H   UNL     1      36.451 -23.291 -16.413  0.00  0.00    +0.157 HD
ENDROOT
BRANCH   9  14
ATOM     11  F   UNL     1      35.852 -22.750 -13.297  0.00  0.00    -0.204 F 
ATOM     12  F   UNL     1      35.895 -26.853 -15.691  0.00  0.00    -0.204 F 
ATOM     13  F   UNL     1      38.515 -26.356 -11.783  0.00  0.00    -0.204 F 
ATOM     14  C   UNL     1      35.869 -24.799 -14.497  0.00  0.00    +0.109 C 
ATOM     15  C   UNL     1      36.288 -24.008 -13.447  0.00  0.00    +0.149 C 
ATOM     16  C   UNL     1      36.310 -26.095 -14.665  0.00  0.00    +0.149 C 
ATOM     17  C   UNL     1      37.189 -24.539 -12.524  0.00  0.00    +0.060 C 
ATOM     18  C   UNL     1      37.211 -26.624 -13.741  0.00  0.00    +0.060 C 
ATOM     19  C   UNL     1      37.651 -25.846 -12.670  0.00  0.00    +0.145 C 
ENDBRANCH   9  14
BRANCH   2  21
ATOM     20  O   UNL     1      36.908 -20.682 -20.256  0.00  0.00    -0.289 OA
ATOM     21  C   UNL     1      35.690 -20.522 -20.211  0.00  0.00    +0.202 C 
BRANCH  21  23
ATOM     22  N   UNL     1      35.211 -17.691 -23.365  0.00  0.00    +0.386 N 
ATOM     23  C   UNL     1      35.018 -19.501 -21.075  0.00  0.00    +0.060 C 
ATOM     24  C   UNL     1      34.969 -20.003 -22.518  0.00  0.00    -0.015 C 
ATOM     25  C   UNL     1      35.765 -18.171 -21.002  0.00  0.00    -0.015 C 
ATOM     26  C   UNL     1      34.425 -18.928 -23.462  0.00  0.00    -0.077 C 
ATOM     27  C   UNL     1      35.194 -17.158 -21.996  0.00  0.00    -0.077 C 
ATOM     28  C   UNL     1      34.712 -16.693 -24.309  0.00  0.00    -0.101 C 
ATOM     29  H   UNL     1      36.178 -17.913 -23.604  0.00  0.00    -0.080 HD
ENDBRANCH  21  23
ENDBRANCH   2  21
TORSDOF 3
ENDMDL
MODEL 7
REMARK VINA RESULT:     -10.8      4.664      9.899
REMARK  Name = 11610526
REMARK  3 active torsions:
REMARK  status: ('A' for Active; 'I' for Inactive)
REMARK    1  A    between atoms: C_2  and  C_21
REMARK    2  A    between atoms: C_9  and  C_14
REMARK    3  A    between atoms: C_21  and  C_23
REMARK                            x       y       z     vdW  Elec       q    Type
REMARK                         _______ _______ _______ _____ _____    ______ ____
ROOT
ATOM      1  N   UNL     1      35.569 -22.007 -18.309  0.00  0.00    -0.388 NA
ATOM      2  C   UNL     1      34.872 -21.387 -19.265  0.00  0.00    +0.167 C 
ATOM      3  C   UNL     1      33.519 -21.438 -19.456  0.00  0.00    +0.031 C 
ATOM      4  C   UNL     1      34.832 -22.756 -17.460  0.00  0.00    +0.167 C 
ATOM      5  C   UNL     1      32.794 -22.218 -18.562  0.00  0.00    -0.015 C 
ATOM      6  C   UNL     1      33.456 -22.893 -17.542  0.00  0.00    +0.101 C 
ATOM      7  O   UNL     1      33.737 -24.539 -15.312  0.00  0.00    -0.270 OA
ATOM      8  N   UNL     1      35.488 -23.439 -16.429  0.00  0.00    -0.259 N 
ATOM      9  C   UNL     1      34.924 -24.262 -15.450  0.00  0.00    +0.255 C 
ATOM     10  H   UNL     1      36.465 -23.328 -16.390  0.00  0.00    +0.157 HD
ENDROOT
BRANCH   9  14
ATOM     11  F   UNL     1      35.938 -26.866 -15.684  0.00  0.00    -0.204 F 
ATOM     12  F   UNL     1      35.840 -22.793 -13.242  0.00  0.00    -0.204 F 
ATOM     13  F   UNL     1      38.534 -26.388 -11.758  0.00  0.00    -0.204 F 
ATOM     14  C   UNL     1      35.885 -24.828 -14.467  0.00  0.00    +0.109 C 
ATOM     15  C   UNL     1      36.340 -26.117 -14.648  0.00  0.00    +0.149 C 
ATOM     16  C   UNL     1      36.290 -24.045 -13.406  0.00  0.00    +0.149 C 
ATOM     17  C   UNL     1      37.242 -26.648 -13.725  0.00  0.00    +0.060 C 
ATOM     18  C   UNL     1      37.192 -24.577 -12.484  0.00  0.00    +0.060 C 
ATOM     19  C   UNL     1      37.668 -25.879 -12.643  0.00  0.00    +0.145 C 
ENDBRANCH   9  14
BRANCH   2  21
ATOM     20  O   UNL     1      36.916 -20.737 -20.247  0.00  0.00    -0.289 OA
ATOM     21  C   UNL     1      35.700 -20.567 -20.193  0.00  0.00    +0.202 C 
BRANCH  21  23
ATOM     22  N   UNL     1      35.223 -17.727 -23.337  0.00  0.00    +0.386 N 
ATOM     23  C   UNL     1      35.029 -19.541 -21.052  0.00  0.00    +0.060 C 
ATOM     24  C   UNL     1      34.973 -20.039 -22.496  0.00  0.00    -0.015 C 
ATOM     25  C   UNL     1      35.783 -18.214 -20.978  0.00  0.00    -0.015 C 
ATOM     26  C   UNL     1      34.431 -18.960 -23.435  0.00  0.00    -0.077 C 
ATOM     27  C   UNL     1      35.213 -17.196 -21.967  0.00  0.00    -0.077 C 
ATOM     28  C   UNL     1      34.725 -16.723 -24.278  0.00  0.00    -0.101 C 
ATOM     29  H   UNL     1      36.188 -17.952 -23.580  0.00  0.00    -0.080 HD
ENDBRANCH  21  23
ENDBRANCH   2  21
TORSDOF 3
ENDMDL
MODEL 8
REMARK VINA RESULT:     -10.5      4.677     10.427
REMARK  Name = 11610526
REMARK  3 active torsions:
REMARK  status: ('A' for Active; 'I' for Inactive)
REMARK    1  A    between atoms: C_2  and  C_21
REMARK    2  A    between atoms: C_9  and  C_14
REMARK    3  A    between atoms: C_21  and  C_23
REMARK                            x       y       z     vdW  Elec       q    Type
REMARK                         _______ _______ _______ _____ _____    ______ ____
ROOT
ATOM      1  N   UNL     1      33.841 -14.859 -22.391  0.00  0.00    -0.388 NA
ATOM      2  C   UNL     1      33.412 -13.903 -23.219  0.00  0.00    +0.167 C 
ATOM      3  C   UNL     1      33.344 -13.970 -24.583  0.00  0.00    +0.031 C 
ATOM      4  C   UNL     1      34.244 -15.998 -22.996  0.00  0.00    +0.167 C 
ATOM      5  C   UNL     1      33.768 -15.158 -25.169  0.00  0.00    -0.015 C 
ATOM      6  C   UNL     1      34.228 -16.197 -24.366  0.00  0.00    +0.101 C 
ATOM      7  O   UNL     1      35.252 -18.716 -23.763  0.00  0.00    -0.270 OA
ATOM      8  N   UNL     1      34.708 -17.050 -22.197  0.00  0.00    -0.259 N 
ATOM      9  C   UNL     1      35.170 -18.303 -22.611  0.00  0.00    +0.255 C 
ATOM     10  H   UNL     1      34.712 -16.887 -21.226  0.00  0.00    +0.157 HD
ENDROOT
BRANCH   9  14
ATOM     11  F   UNL     1      37.792 -18.387 -21.619  0.00  0.00    -0.204 F 
ATOM     12  F   UNL     1      33.355 -20.069 -21.403  0.00  0.00    -0.204 F 
ATOM     13  F   UNL     1      36.680 -21.763 -18.497  0.00  0.00    -0.204 F 
ATOM     14  C   UNL     1      35.572 -19.224 -21.515  0.00  0.00    +0.109 C 
ATOM     15  C   UNL     1      36.881 -19.209 -21.080  0.00  0.00    +0.149 C 
ATOM     16  C   UNL     1      34.623 -20.064 -20.970  0.00  0.00    +0.149 C 
ATOM     17  C   UNL     1      37.257 -20.074 -20.052  0.00  0.00    +0.060 C 
ATOM     18  C   UNL     1      35.002 -20.929 -19.943  0.00  0.00    +0.060 C 
ATOM     19  C   UNL     1      36.319 -20.934 -19.484  0.00  0.00    +0.145 C 
ENDBRANCH   9  14
BRANCH   2  21
ATOM     20  O   UNL     1      32.596 -12.690 -21.368  0.00  0.00    -0.289 OA
ATOM     21  C   UNL     1      32.972 -12.653 -22.537  0.00  0.00    +0.202 C 
BRANCH  21  23
ATOM     22  N   UNL     1      33.375  -8.464 -23.225  0.00  0.00    +0.386 N 
ATOM     23  C   UNL     1      32.997 -11.363 -23.297  0.00  0.00    +0.060 C 
ATOM     24  C   UNL     1      34.380 -10.724 -23.176  0.00  0.00    -0.015 C 
ATOM     25  C   UNL     1      31.925 -10.414 -22.762  0.00  0.00    -0.015 C 
ATOM     26  C   UNL     1      34.406  -9.332 -23.810  0.00  0.00    -0.077 C 
ATOM     27  C   UNL     1      32.034  -9.034 -23.411  0.00  0.00    -0.077 C 
ATOM     28  C   UNL     1      33.447  -7.123 -23.805  0.00  0.00    -0.101 C 
ATOM     29  H   UNL     1      33.552  -8.397 -22.222  0.00  0.00    -0.080 HD
ENDBRANCH  21  23
ENDBRANCH   2  21
TORSDOF 3
ENDMDL
MODEL 9
REMARK VINA RESULT:     -10.5      4.769     10.384
REMARK  Name = 11610526
REMARK  3 active torsions:
REMARK  status: ('A' for Active; 'I' for Inactive)
REMARK    1  A    between atoms: C_2  and  C_21
REMARK    2  A    between atoms: C_9  and  C_14
REMARK    3  A    between atoms: C_21  and  C_23
REMARK                            x       y       z     vdW  Elec       q    Type
REMARK                         _______ _______ _______ _____ _____    ______ ____
ROOT
ATOM      1  N   UNL     1      33.760 -14.780 -22.123  0.00  0.00    -0.388 NA
ATOM      2  C   UNL     1      33.338 -13.780 -22.901  0.00  0.00    +0.167 C 
ATOM      3  C   UNL     1      33.343 -13.749 -24.269  0.00  0.00    +0.031 C 
ATOM      4  C   UNL     1      34.236 -15.857 -22.785  0.00  0.00    +0.167 C 
ATOM      5  C   UNL     1      33.840 -14.876 -24.915  0.00  0.00    -0.015 C 
ATOM      6  C   UNL     1      34.297 -15.955 -24.166  0.00  0.00    +0.101 C 
ATOM      7  O   UNL     1      35.383 -18.475 -23.691  0.00  0.00    -0.270 OA
ATOM      8  N   UNL     1      34.698 -16.949 -22.040  0.00  0.00    -0.259 N 
ATOM      9  C   UNL     1      35.227 -18.152 -22.518  0.00  0.00    +0.255 C 
ATOM     10  H   UNL     1      34.646 -16.858 -21.061  0.00  0.00    +0.157 HD
ENDROOT
BRANCH   9  14
ATOM     11  F   UNL     1      33.377 -19.950 -21.419  0.00  0.00    -0.204 F 
ATOM     12  F   UNL     1      37.841 -18.331 -21.515  0.00  0.00    -0.204 F 
ATOM     13  F   UNL     1      36.655 -21.851 -18.587  0.00  0.00    -0.204 F 
ATOM     14  C   UNL     1      35.607 -19.137 -21.472  0.00  0.00    +0.109 C 
ATOM     15  C   UNL     1      34.641 -19.990 -20.978  0.00  0.00    +0.149 C 
ATOM     16  C   UNL     1      36.912 -19.165 -21.028  0.00  0.00    +0.149 C 
ATOM     17  C   UNL     1      34.999 -20.914 -19.996  0.00  0.00    +0.060 C 
ATOM     18  C   UNL     1      37.269 -20.090 -20.045  0.00  0.00    +0.060 C 
ATOM     19  C   UNL     1      36.312 -20.964 -19.529  0.00  0.00    +0.145 C 
ENDBRANCH   9  14
BRANCH   2  21
ATOM     20  O   UNL     1      32.624 -12.673 -20.945  0.00  0.00    -0.289 OA
ATOM     21  C   UNL     1      32.818 -12.600 -22.156  0.00  0.00    +0.202 C 
BRANCH  21  23
ATOM     22  N   UNL     1      32.465  -8.410 -22.867  0.00  0.00    +0.386 N 
ATOM     23  C   UNL     1      32.538 -11.333 -22.904  0.00  0.00    +0.060 C 
ATOM     24  C   UNL     1      33.808 -10.485 -22.968  0.00  0.00    -0.015 C 
ATOM     25  C   UNL     1      31.413 -10.555 -22.223  0.00  0.00    -0.015 C 
ATOM     26  C   UNL     1      33.529  -9.116 -23.592  0.00  0.00    -0.077 C 
ATOM     27  C   UNL     1      31.216  -9.184 -22.872  0.00  0.00    -0.077 C 
ATOM     28  C   UNL     1      32.247  -7.083 -23.443  0.00  0.00    -0.101 C 
ATOM     29  H   UNL     1      32.763  -8.301 -21.897  0.00  0.00    -0.080 HD
ENDBRANCH  21  23
ENDBRANCH   2  21
TORSDOF 3
ENDMDL
