MODEL 1
REMARK VINA RESULT:     -11.0      0.000      0.000
REMARK  Name = 16045340
REMARK  6 active torsions:
REMARK  status: ('A' for Active; 'I' for Inactive)
REMARK    1  A    between atoms: C_2  and  O_8
REMARK    2  A    between atoms: C_4  and  O_20
REMARK    3  A    between atoms: O_8  and  C_9
REMARK    4  A    between atoms: C_9  and  C_13
REMARK    5  A    between atoms: O_20  and  C_22
REMARK    6  A    between atoms: C_25  and  C_29
REMARK                            x       y       z     vdW  Elec       q    Type
REMARK                         _______ _______ _______ _____ _____    ______ ____
ROOT
ATOM      1 CL   UNL     1      30.835 -10.372 -19.460  0.00  0.00    -0.079 Cl
ATOM      2  C   UNL     1      32.875 -13.000 -22.502  0.00  0.00    +0.142 C 
ATOM      3  C   UNL     1      32.247 -11.831 -22.921  0.00  0.00    +0.075 C 
ATOM      4  C   UNL     1      31.613 -11.012 -21.986  0.00  0.00    +0.159 C 
ATOM      5  C   UNL     1      32.876 -13.357 -21.157  0.00  0.00    +0.038 C 
ATOM      6  C   UNL     1      31.612 -11.365 -20.637  0.00  0.00    +0.092 C 
ATOM      7  C   UNL     1      32.243 -12.538 -20.223  0.00  0.00    +0.018 C 
ENDROOT
BRANCH   2   8
ATOM      8  O   UNL     1      33.496 -13.803 -23.419  0.00  0.00    -0.469 OA
BRANCH   8   9
ATOM      9  C   UNL     1      34.626 -14.543 -22.957  0.00  0.00    +0.248 C 
BRANCH   9  13
ATOM     10  N   UNL     1      34.105 -16.265 -24.671  0.00  0.00    -0.228 N 
ATOM     11  N   UNL     1      34.079 -17.589 -24.931  0.00  0.00    -0.128 NA
ATOM     12  N   UNL     1      34.677 -19.466 -23.515  0.00  0.00    -0.192 NA
ATOM     13  C   UNL     1      34.535 -15.941 -23.413  0.00  0.00    +0.093 C 
ATOM     14  C   UNL     1      34.807 -17.142 -22.816  0.00  0.00    +0.060 C 
ATOM     15  C   UNL     1      34.512 -18.142 -23.792  0.00  0.00    +0.050 C 
ATOM     16  C   UNL     1      35.276 -17.322 -21.524  0.00  0.00    +0.065 C 
ATOM     17  C   UNL     1      35.438 -18.686 -21.260  0.00  0.00    +0.001 C 
ATOM     18  C   UNL     1      35.140 -19.664 -22.240  0.00  0.00    +0.105 C 
ATOM     19  H   UNL     1      33.836 -15.588 -25.332  0.00  0.00    +0.175 HD
ENDBRANCH   9  13
ENDBRANCH   8   9
ENDBRANCH   2   8
BRANCH   4  20
ATOM     20  O   UNL     1      31.006  -9.871 -22.419  0.00  0.00    -0.452 OA
BRANCH  20  22
ATOM     21 CL   UNL     1      35.536  -7.664 -23.119  0.00  0.00    -0.082 Cl
ATOM     22  C   UNL     1      31.755  -8.708 -22.426  0.00  0.00    +0.147 C 
ATOM     23  C   UNL     1      31.139  -7.506 -22.125  0.00  0.00    +0.048 C 
ATOM     24  C   UNL     1      33.102  -8.776 -22.733  0.00  0.00    +0.049 C 
ATOM     25  C   UNL     1      31.895  -6.333 -22.132  0.00  0.00    +0.072 C 
ATOM     26  C   UNL     1      33.858  -7.604 -22.739  0.00  0.00    +0.061 C 
ATOM     27  C   UNL     1      33.254  -6.382 -22.439  0.00  0.00    +0.022 C 
BRANCH  25  29
ATOM     28  N   UNL     1      30.771  -4.064 -21.574  0.00  0.00    -0.191 NA
ATOM     29  C   UNL     1      31.275  -5.084 -21.824  0.00  0.00    +0.101 C 
ENDBRANCH  25  29
ENDBRANCH  20  22
ENDBRANCH   4  20
TORSDOF 6
ENDMDL
MODEL 2
REMARK VINA RESULT:     -11.0      9.949     14.171
REMARK  Name = 16045340
REMARK  6 active torsions:
REMARK  status: ('A' for Active; 'I' for Inactive)
REMARK    1  A    between atoms: C_2  and  O_8
REMARK    2  A    between atoms: C_4  and  O_20
REMARK    3  A    between atoms: O_8  and  C_9
REMARK    4  A    between atoms: C_9  and  C_13
REMARK    5  A    between atoms: O_20  and  C_22
REMARK    6  A    between atoms: C_25  and  C_29
REMARK                            x       y       z     vdW  Elec       q    Type
REMARK                         _______ _______ _______ _____ _____    ______ ____
ROOT
ATOM      1 CL   UNL     1      30.805 -24.799 -12.385  0.00  0.00    -0.079 Cl
ATOM      2  C   UNL     1      31.715 -23.214 -16.506  0.00  0.00    +0.142 C 
ATOM      3  C   UNL     1      32.761 -23.457 -15.622  0.00  0.00    +0.075 C 
ATOM      4  C   UNL     1      32.489 -23.948 -14.344  0.00  0.00    +0.159 C 
ATOM      5  C   UNL     1      30.398 -23.458 -16.125  0.00  0.00    +0.038 C 
ATOM      6  C   UNL     1      31.172 -24.194 -13.958  0.00  0.00    +0.092 C 
ATOM      7  C   UNL     1      30.126 -23.949 -14.848  0.00  0.00    +0.018 C 
ENDROOT
BRANCH   2   8
ATOM      8  O   UNL     1      31.982 -22.733 -17.758  0.00  0.00    -0.469 OA
BRANCH   8   9
ATOM      9  C   UNL     1      33.350 -22.745 -18.168  0.00  0.00    +0.248 C 
BRANCH   9  13
ATOM     10  N   UNL     1      32.555 -21.122 -19.873  0.00  0.00    -0.228 N 
ATOM     11  N   UNL     1      32.937 -20.184 -20.764  0.00  0.00    -0.128 NA
ATOM     12  N   UNL     1      35.156 -19.373 -21.318  0.00  0.00    -0.192 NA
ATOM     13  C   UNL     1      33.583 -21.702 -19.181  0.00  0.00    +0.093 C 
ATOM     14  C   UNL     1      34.712 -21.093 -19.658  0.00  0.00    +0.060 C 
ATOM     15  C   UNL     1      34.268 -20.156 -20.640  0.00  0.00    +0.050 C 
ATOM     16  C   UNL     1      36.012 -21.353 -19.251  0.00  0.00    +0.065 C 
ATOM     17  C   UNL     1      36.905 -20.541 -19.957  0.00  0.00    +0.001 C 
ATOM     18  C   UNL     1      36.447 -19.617 -20.929  0.00  0.00    +0.105 C 
ATOM     19  H   UNL     1      31.613 -21.371 -19.733  0.00  0.00    +0.175 HD
ENDBRANCH   9  13
ENDBRANCH   8   9
ENDBRANCH   2   8
BRANCH   4  20
ATOM     20  O   UNL     1      33.530 -24.180 -13.495  0.00  0.00    -0.452 OA
BRANCH  20  22
ATOM     21 CL   UNL     1      37.211 -21.652 -15.932  0.00  0.00    -0.082 Cl
ATOM     22  C   UNL     1      34.805 -24.195 -14.032  0.00  0.00    +0.147 C 
ATOM     23  C   UNL     1      35.558 -25.353 -13.954  0.00  0.00    +0.048 C 
ATOM     24  C   UNL     1      35.295 -23.050 -14.636  0.00  0.00    +0.049 C 
ATOM     25  C   UNL     1      36.843 -25.367 -14.496  0.00  0.00    +0.072 C 
ATOM     26  C   UNL     1      36.580 -23.064 -15.178  0.00  0.00    +0.061 C 
ATOM     27  C   UNL     1      37.355 -24.222 -15.107  0.00  0.00    +0.022 C 
BRANCH  25  29
ATOM     28  N   UNL     1      38.280 -27.521 -14.364  0.00  0.00    -0.191 NA
ATOM     29  C   UNL     1      37.635 -26.553 -14.423  0.00  0.00    +0.101 C 
ENDBRANCH  25  29
ENDBRANCH  20  22
ENDBRANCH   4  20
TORSDOF 6
ENDMDL
MODEL 3
REMARK VINA RESULT:     -10.8     10.180     14.160
REMARK  Name = 16045340
REMARK  6 active torsions:
REMARK  status: ('A' for Active; 'I' for Inactive)
REMARK    1  A    between atoms: C_2  and  O_8
REMARK    2  A    between atoms: C_4  and  O_20
REMARK    3  A    between atoms: O_8  and  C_9
REMARK    4  A    between atoms: C_9  and  C_13
REMARK    5  A    between atoms: O_20  and  C_22
REMARK    6  A    between atoms: C_25  and  C_29
REMARK                            x       y       z     vdW  Elec       q    Type
REMARK                         _______ _______ _______ _____ _____    ______ ____
ROOT
ATOM      1 CL   UNL     1      30.589 -25.056 -12.522  0.00  0.00    -0.079 Cl
ATOM      2  C   UNL     1      31.589 -23.139 -16.477  0.00  0.00    +0.142 C 
ATOM      3  C   UNL     1      32.547 -23.915 -15.833  0.00  0.00    +0.075 C 
ATOM      4  C   UNL     1      32.246 -24.512 -14.608  0.00  0.00    +0.159 C 
ATOM      5  C   UNL     1      30.331 -22.955 -15.909  0.00  0.00    +0.038 C 
ATOM      6  C   UNL     1      30.988 -24.331 -14.035  0.00  0.00    +0.092 C 
ATOM      7  C   UNL     1      30.031 -23.552 -14.685  0.00  0.00    +0.018 C 
ENDROOT
BRANCH   2   8
ATOM      8  O   UNL     1      31.884 -22.554 -17.678  0.00  0.00    -0.469 OA
BRANCH   8   9
ATOM      9  C   UNL     1      33.192 -22.792 -18.200  0.00  0.00    +0.248 C 
BRANCH   9  13
ATOM     10  N   UNL     1      32.616 -21.066 -19.891  0.00  0.00    -0.228 N 
ATOM     11  N   UNL     1      33.115 -20.122 -20.717  0.00  0.00    -0.128 NA
ATOM     12  N   UNL     1      35.410 -19.429 -21.083  0.00  0.00    -0.192 NA
ATOM     13  C   UNL     1      33.557 -21.730 -19.152  0.00  0.00    +0.093 C 
ATOM     14  C   UNL     1      34.751 -21.175 -19.526  0.00  0.00    +0.060 C 
ATOM     15  C   UNL     1      34.433 -20.179 -20.499  0.00  0.00    +0.050 C 
ATOM     16  C   UNL     1      36.001 -21.526 -19.041  0.00  0.00    +0.065 C 
ATOM     17  C   UNL     1      36.988 -20.746 -19.651  0.00  0.00    +0.001 C 
ATOM     18  C   UNL     1      36.655 -19.763 -20.615  0.00  0.00    +0.105 C 
ATOM     19  H   UNL     1      31.655 -21.262 -19.827  0.00  0.00    +0.175 HD
ENDBRANCH   9  13
ENDBRANCH   8   9
ENDBRANCH   2   8
BRANCH   4  20
ATOM     20  O   UNL     1      33.200 -25.269 -13.996  0.00  0.00    -0.452 OA
BRANCH  20  22
ATOM     21 CL   UNL     1      37.410 -22.989 -15.716  0.00  0.00    -0.082 Cl
ATOM     22  C   UNL     1      34.410 -24.664 -13.702  0.00  0.00    +0.147 C 
ATOM     23  C   UNL     1      34.803 -24.547 -12.381  0.00  0.00    +0.048 C 
ATOM     24  C   UNL     1      35.196 -24.193 -14.738  0.00  0.00    +0.049 C 
ATOM     25  C   UNL     1      36.023 -23.937 -12.086  0.00  0.00    +0.072 C 
ATOM     26  C   UNL     1      36.416 -23.584 -14.444  0.00  0.00    +0.061 C 
ATOM     27  C   UNL     1      36.829 -23.455 -13.117  0.00  0.00    +0.022 C 
BRANCH  25  29
ATOM     28  N   UNL     1      36.788 -23.700  -9.620  0.00  0.00    -0.191 NA
ATOM     29  C   UNL     1      36.444 -23.807 -10.728  0.00  0.00    +0.101 C 
ENDBRANCH  25  29
ENDBRANCH  20  22
ENDBRANCH   4  20
TORSDOF 6
ENDMDL
MODEL 4
REMARK VINA RESULT:     -10.8     10.228     14.823
REMARK  Name = 16045340
REMARK  6 active torsions:
REMARK  status: ('A' for Active; 'I' for Inactive)
REMARK    1  A    between atoms: C_2  and  O_8
REMARK    2  A    between atoms: C_4  and  O_20
REMARK    3  A    between atoms: O_8  and  C_9
REMARK    4  A    between atoms: C_9  and  C_13
REMARK    5  A    between atoms: O_20  and  C_22
REMARK    6  A    between atoms: C_25  and  C_29
REMARK                            x       y       z     vdW  Elec       q    Type
REMARK                         _______ _______ _______ _____ _____    ______ ____
ROOT
ATOM      1 CL   UNL     1      30.464 -25.369 -12.521  0.00  0.00    -0.079 Cl
ATOM      2  C   UNL     1      32.100 -23.199 -16.117  0.00  0.00    +0.142 C 
ATOM      3  C   UNL     1      32.895 -23.339 -14.985  0.00  0.00    +0.075 C 
ATOM      4  C   UNL     1      32.397 -24.010 -13.867  0.00  0.00    +0.159 C 
ATOM      5  C   UNL     1      30.810 -23.723 -16.144  0.00  0.00    +0.038 C 
ATOM      6  C   UNL     1      31.107 -24.536 -13.888  0.00  0.00    +0.092 C 
ATOM      7  C   UNL     1      30.313 -24.393 -15.026  0.00  0.00    +0.018 C 
ENDROOT
BRANCH   2   8
ATOM      8  O   UNL     1      32.589 -22.542 -17.213  0.00  0.00    -0.469 OA
BRANCH   8   9
ATOM      9  C   UNL     1      33.486 -23.274 -18.049  0.00  0.00    +0.248 C 
BRANCH   9  13
ATOM     10  N   UNL     1      35.836 -22.468 -18.056  0.00  0.00    -0.228 N 
ATOM     11  N   UNL     1      36.698 -21.588 -18.607  0.00  0.00    -0.128 NA
ATOM     12  N   UNL     1      36.325 -19.900 -20.309  0.00  0.00    -0.192 NA
ATOM     13  C   UNL     1      34.557 -22.389 -18.537  0.00  0.00    +0.093 C 
ATOM     14  C   UNL     1      34.595 -21.385 -19.467  0.00  0.00    +0.060 C 
ATOM     15  C   UNL     1      35.943 -20.913 -19.481  0.00  0.00    +0.050 C 
ATOM     16  C   UNL     1      33.526 -20.939 -20.227  0.00  0.00    +0.065 C 
ATOM     17  C   UNL     1      33.939 -19.901 -21.070  0.00  0.00    +0.001 C 
ATOM     18  C   UNL     1      35.280 -19.445 -21.070  0.00  0.00    +0.105 C 
ATOM     19  H   UNL     1      36.104 -23.113 -17.364  0.00  0.00    +0.175 HD
ENDBRANCH   9  13
ENDBRANCH   8   9
ENDBRANCH   2   8
BRANCH   4  20
ATOM     20  O   UNL     1      33.195 -24.136 -12.769  0.00  0.00    -0.452 OA
BRANCH  20  22
ATOM     21 CL   UNL     1      38.078 -23.413 -11.537  0.00  0.00    -0.082 Cl
ATOM     22  C   UNL     1      34.520 -24.480 -12.974  0.00  0.00    +0.147 C 
ATOM     23  C   UNL     1      34.828 -25.450 -13.912  0.00  0.00    +0.048 C 
ATOM     24  C   UNL     1      35.502 -23.844 -12.237  0.00  0.00    +0.049 C 
ATOM     25  C   UNL     1      36.164 -25.796 -14.118  0.00  0.00    +0.072 C 
ATOM     26  C   UNL     1      36.838 -24.190 -12.443  0.00  0.00    +0.061 C 
ATOM     27  C   UNL     1      37.169 -25.167 -13.383  0.00  0.00    +0.022 C 
BRANCH  25  29
ATOM     28  N   UNL     1      36.776 -27.611 -15.865  0.00  0.00    -0.191 NA
ATOM     29  C   UNL     1      36.501 -26.796 -15.081  0.00  0.00    +0.101 C 
ENDBRANCH  25  29
ENDBRANCH  20  22
ENDBRANCH   4  20
TORSDOF 6
ENDMDL
MODEL 5
REMARK VINA RESULT:     -10.7      4.518      7.535
REMARK  Name = 16045340
REMARK  6 active torsions:
REMARK  status: ('A' for Active; 'I' for Inactive)
REMARK    1  A    between atoms: C_2  and  O_8
REMARK    2  A    between atoms: C_4  and  O_20
REMARK    3  A    between atoms: O_8  and  C_9
REMARK    4  A    between atoms: C_9  and  C_13
REMARK    5  A    between atoms: O_20  and  C_22
REMARK    6  A    between atoms: C_25  and  C_29
REMARK                            x       y       z     vdW  Elec       q    Type
REMARK                         _______ _______ _______ _____ _____    ______ ____
ROOT
ATOM      1 CL   UNL     1      34.100 -17.090 -24.837  0.00  0.00    -0.079 Cl
ATOM      2  C   UNL     1      35.498 -19.268 -21.147  0.00  0.00    +0.142 C 
ATOM      3  C   UNL     1      35.727 -17.901 -21.260  0.00  0.00    +0.075 C 
ATOM      4  C   UNL     1      35.297 -17.218 -22.399  0.00  0.00    +0.159 C 
ATOM      5  C   UNL     1      34.843 -19.961 -22.161  0.00  0.00    +0.038 C 
ATOM      6  C   UNL     1      34.641 -17.907 -23.418  0.00  0.00    +0.092 C 
ATOM      7  C   UNL     1      34.414 -19.278 -23.299  0.00  0.00    +0.018 C 
ENDROOT
BRANCH   2   8
ATOM      8  O   UNL     1      35.919 -19.937 -20.030  0.00  0.00    -0.469 OA
BRANCH   8   9
ATOM      9  C   UNL     1      36.024 -21.357 -20.138  0.00  0.00    +0.248 C 
BRANCH   9  13
ATOM     10  N   UNL     1      33.906 -22.390 -19.350  0.00  0.00    -0.228 N 
ATOM     11  N   UNL     1      33.285 -22.968 -18.300  0.00  0.00    -0.128 NA
ATOM     12  N   UNL     1      34.106 -23.423 -16.063  0.00  0.00    -0.192 NA
ATOM     13  C   UNL     1      35.196 -22.004 -19.106  0.00  0.00    +0.093 C 
ATOM     14  C   UNL     1      35.426 -22.358 -17.804  0.00  0.00    +0.060 C 
ATOM     15  C   UNL     1      34.215 -22.955 -17.339  0.00  0.00    +0.050 C 
ATOM     16  C   UNL     1      36.607 -22.166 -17.104  0.00  0.00    +0.065 C 
ATOM     17  C   UNL     1      36.475 -22.653 -15.800  0.00  0.00    +0.001 C 
ATOM     18  C   UNL     1      35.265 -23.241 -15.355  0.00  0.00    +0.105 C 
ATOM     19  H   UNL     1      33.467 -22.256 -20.220  0.00  0.00    +0.175 HD
ENDBRANCH   9  13
ENDBRANCH   8   9
ENDBRANCH   2   8
BRANCH   4  20
ATOM     20  O   UNL     1      35.531 -15.878 -22.487  0.00  0.00    -0.452 OA
BRANCH  20  22
ATOM     21 CL   UNL     1      32.065 -14.816 -18.918  0.00  0.00    -0.082 Cl
ATOM     22  C   UNL     1      34.545 -15.023 -22.028  0.00  0.00    +0.147 C 
ATOM     23  C   UNL     1      34.240 -13.889 -22.759  0.00  0.00    +0.048 C 
ATOM     24  C   UNL     1      33.889 -15.324 -20.848  0.00  0.00    +0.049 C 
ATOM     25  C   UNL     1      33.245 -13.027 -22.295  0.00  0.00    +0.072 C 
ATOM     26  C   UNL     1      32.894 -14.463 -20.384  0.00  0.00    +0.061 C 
ATOM     27  C   UNL     1      32.573 -13.314 -21.107  0.00  0.00    +0.022 C 
BRANCH  25  29
ATOM     28  N   UNL     1      32.650 -10.893 -23.642  0.00  0.00    -0.191 NA
ATOM     29  C   UNL     1      32.918 -11.851 -23.037  0.00  0.00    +0.101 C 
ENDBRANCH  25  29
ENDBRANCH  20  22
ENDBRANCH   4  20
TORSDOF 6
ENDMDL
MODEL 6
REMARK VINA RESULT:     -10.7      5.918      9.563
REMARK  Name = 16045340
REMARK  6 active torsions:
REMARK  status: ('A' for Active; 'I' for Inactive)
REMARK    1  A    between atoms: C_2  and  O_8
REMARK    2  A    between atoms: C_4  and  O_20
REMARK    3  A    between atoms: O_8  and  C_9
REMARK    4  A    between atoms: C_9  and  C_13
REMARK    5  A    between atoms: O_20  and  C_22
REMARK    6  A    between atoms: C_25  and  C_29
REMARK                            x       y       z     vdW  Elec       q    Type
REMARK                         _______ _______ _______ _____ _____    ______ ____
ROOT
ATOM      1 CL   UNL     1      38.123 -18.689 -21.769  0.00  0.00    -0.079 Cl
ATOM      2  C   UNL     1      34.701 -20.974 -19.927  0.00  0.00    +0.142 C 
ATOM      3  C   UNL     1      34.512 -20.322 -21.141  0.00  0.00    +0.075 C 
ATOM      4  C   UNL     1      35.566 -19.612 -21.719  0.00  0.00    +0.159 C 
ATOM      5  C   UNL     1      35.935 -20.924 -19.284  0.00  0.00    +0.038 C 
ATOM      6  C   UNL     1      36.803 -19.560 -21.079  0.00  0.00    +0.092 C 
ATOM      7  C   UNL     1      36.988 -20.216 -19.862  0.00  0.00    +0.018 C 
ENDROOT
BRANCH   2   8
ATOM      8  O   UNL     1      33.668 -21.669 -19.362  0.00  0.00    -0.469 OA
BRANCH   8   9
ATOM      9  C   UNL     1      34.015 -22.844 -18.628  0.00  0.00    +0.248 C 
BRANCH   9  13
ATOM     10  N   UNL     1      31.770 -22.669 -17.580  0.00  0.00    -0.228 N 
ATOM     11  N   UNL     1      31.055 -22.902 -16.459  0.00  0.00    -0.128 NA
ATOM     12  N   UNL     1      31.750 -23.855 -14.339  0.00  0.00    -0.192 NA
ATOM     13  C   UNL     1      33.088 -23.027 -17.499  0.00  0.00    +0.093 C 
ATOM     14  C   UNL     1      33.237 -23.529 -16.234  0.00  0.00    +0.060 C 
ATOM     15  C   UNL     1      31.951 -23.434 -15.620  0.00  0.00    +0.050 C 
ATOM     16  C   UNL     1      34.410 -24.024 -15.687  0.00  0.00    +0.065 C 
ATOM     17  C   UNL     1      34.183 -24.450 -14.374  0.00  0.00    +0.001 C 
ATOM     18  C   UNL     1      32.901 -24.348 -13.780  0.00  0.00    +0.105 C 
ATOM     19  H   UNL     1      31.375 -22.273 -18.389  0.00  0.00    +0.175 HD
ENDBRANCH   9  13
ENDBRANCH   8   9
ENDBRANCH   2   8
BRANCH   4  20
ATOM     20  O   UNL     1      35.357 -18.982 -22.909  0.00  0.00    -0.452 OA
BRANCH  20  22
ATOM     21 CL   UNL     1      34.644 -14.769 -20.149  0.00  0.00    -0.082 Cl
ATOM     22  C   UNL     1      34.966 -17.655 -22.875  0.00  0.00    +0.147 C 
ATOM     23  C   UNL     1      34.549 -17.043 -24.043  0.00  0.00    +0.048 C 
ATOM     24  C   UNL     1      35.002 -16.974 -21.671  0.00  0.00    +0.049 C 
ATOM     25  C   UNL     1      34.155 -15.706 -24.007  0.00  0.00    +0.072 C 
ATOM     26  C   UNL     1      34.608 -15.637 -21.635  0.00  0.00    +0.061 C 
ATOM     27  C   UNL     1      34.185 -15.002 -22.803  0.00  0.00    +0.022 C 
BRANCH  25  29
ATOM     28  N   UNL     1      33.370 -14.528 -26.180  0.00  0.00    -0.191 NA
ATOM     29  C   UNL     1      33.722 -15.057 -25.204  0.00  0.00    +0.101 C 
ENDBRANCH  25  29
ENDBRANCH  20  22
ENDBRANCH   4  20
TORSDOF 6
ENDMDL
MODEL 7
REMARK VINA RESULT:     -10.7      9.817     14.173
REMARK  Name = 16045340
REMARK  6 active torsions:
REMARK  status: ('A' for Active; 'I' for Inactive)
REMARK    1  A    between atoms: C_2  and  O_8
REMARK    2  A    between atoms: C_4  and  O_20
REMARK    3  A    between atoms: O_8  and  C_9
REMARK    4  A    between atoms: C_9  and  C_13
REMARK    5  A    between atoms: O_20  and  C_22
REMARK    6  A    between atoms: C_25  and  C_29
REMARK                            x       y       z     vdW  Elec       q    Type
REMARK                         _______ _______ _______ _____ _____    ______ ____
ROOT
ATOM      1 CL   UNL     1      30.607 -24.942 -12.929  0.00  0.00    -0.079 Cl
ATOM      2  C   UNL     1      31.991 -22.972 -16.740  0.00  0.00    +0.142 C 
ATOM      3  C   UNL     1      32.875 -23.774 -16.026  0.00  0.00    +0.075 C 
ATOM      4  C   UNL     1      32.456 -24.388 -14.845  0.00  0.00    +0.159 C 
ATOM      5  C   UNL     1      30.690 -22.777 -16.284  0.00  0.00    +0.038 C 
ATOM      6  C   UNL     1      31.154 -24.197 -14.385  0.00  0.00    +0.092 C 
ATOM      7  C   UNL     1      30.271 -23.391 -15.105  0.00  0.00    +0.018 C 
ENDROOT
BRANCH   2   8
ATOM      8  O   UNL     1      32.403 -22.370 -17.897  0.00  0.00    -0.469 OA
BRANCH   8   9
ATOM      9  C   UNL     1      33.376 -23.073 -18.671  0.00  0.00    +0.248 C 
BRANCH   9  13
ATOM     10  N   UNL     1      35.726 -22.366 -18.282  0.00  0.00    -0.228 N 
ATOM     11  N   UNL     1      36.686 -21.488 -18.640  0.00  0.00    -0.128 NA
ATOM     12  N   UNL     1      36.620 -19.680 -20.256  0.00  0.00    -0.192 NA
ATOM     13  C   UNL     1      34.535 -22.203 -18.936  0.00  0.00    +0.093 C 
ATOM     14  C   UNL     1      34.740 -21.144 -19.777  0.00  0.00    +0.060 C 
ATOM     15  C   UNL     1      36.089 -20.728 -19.564  0.00  0.00    +0.050 C 
ATOM     16  C   UNL     1      33.808 -20.605 -20.651  0.00  0.00    +0.065 C 
ATOM     17  C   UNL     1      34.372 -19.533 -21.350  0.00  0.00    +0.001 C 
ATOM     18  C   UNL     1      35.712 -19.133 -21.125  0.00  0.00    +0.105 C 
ATOM     19  H   UNL     1      35.870 -23.065 -17.606  0.00  0.00    +0.175 HD
ENDBRANCH   9  13
ENDBRANCH   8   9
ENDBRANCH   2   8
BRANCH   4  20
ATOM     20  O   UNL     1      33.339 -25.171 -14.164  0.00  0.00    -0.452 OA
BRANCH  20  22
ATOM     21 CL   UNL     1      37.723 -23.039 -15.617  0.00  0.00    -0.082 Cl
ATOM     22  C   UNL     1      34.547 -24.606 -13.795  0.00  0.00    +0.147 C 
ATOM     23  C   UNL     1      34.860 -24.498 -12.451  0.00  0.00    +0.048 C 
ATOM     24  C   UNL     1      35.412 -24.165 -14.780  0.00  0.00    +0.049 C 
ATOM     25  C   UNL     1      36.078 -23.928 -12.081  0.00  0.00    +0.072 C 
ATOM     26  C   UNL     1      36.631 -23.596 -14.410  0.00  0.00    +0.061 C 
ATOM     27  C   UNL     1      36.964 -23.477 -13.060  0.00  0.00    +0.022 C 
BRANCH  25  29
ATOM     28  N   UNL     1      36.695 -23.708  -9.572  0.00  0.00    -0.191 NA
ATOM     29  C   UNL     1      36.418 -23.807 -10.699  0.00  0.00    +0.101 C 
ENDBRANCH  25  29
ENDBRANCH  20  22
ENDBRANCH   4  20
TORSDOF 6
ENDMDL
MODEL 8
REMARK VINA RESULT:     -10.6     10.466     14.125
REMARK  Name = 16045340
REMARK  6 active torsions:
REMARK  status: ('A' for Active; 'I' for Inactive)
REMARK    1  A    between atoms: C_2  and  O_8
REMARK    2  A    between atoms: C_4  and  O_20
REMARK    3  A    between atoms: O_8  and  C_9
REMARK    4  A    between atoms: C_9  and  C_13
REMARK    5  A    between atoms: O_20  and  C_22
REMARK    6  A    between atoms: C_25  and  C_29
REMARK                            x       y       z     vdW  Elec       q    Type
REMARK                         _______ _______ _______ _____ _____    ______ ____
ROOT
ATOM      1 CL   UNL     1      29.283 -22.724 -16.447  0.00  0.00    -0.079 Cl
ATOM      2  C   UNL     1      32.639 -24.209 -13.829  0.00  0.00    +0.142 C 
ATOM      3  C   UNL     1      32.854 -24.056 -15.195  0.00  0.00    +0.075 C 
ATOM      4  C   UNL     1      31.821 -23.597 -16.013  0.00  0.00    +0.159 C 
ATOM      5  C   UNL     1      31.399 -23.907 -13.272  0.00  0.00    +0.038 C 
ATOM      6  C   UNL     1      30.578 -23.293 -15.460  0.00  0.00    +0.092 C 
ATOM      7  C   UNL     1      30.367 -23.448 -14.090  0.00  0.00    +0.018 C 
ENDROOT
BRANCH   2   8
ATOM      8  O   UNL     1      33.652 -24.660 -13.028  0.00  0.00    -0.469 OA
BRANCH   8   9
ATOM      9  C   UNL     1      34.948 -24.113 -13.269  0.00  0.00    +0.248 C 
BRANCH   9  13
ATOM     10  N   UNL     1      35.379 -26.148 -14.627  0.00  0.00    -0.228 N 
ATOM     11  N   UNL     1      36.325 -27.019 -15.039  0.00  0.00    -0.128 NA
ATOM     12  N   UNL     1      38.702 -27.079 -14.559  0.00  0.00    -0.192 NA
ATOM     13  C   UNL     1      35.841 -25.150 -13.813  0.00  0.00    +0.093 C 
ATOM     14  C   UNL     1      37.182 -25.392 -13.690  0.00  0.00    +0.060 C 
ATOM     15  C   UNL     1      37.444 -26.562 -14.467  0.00  0.00    +0.050 C 
ATOM     16  C   UNL     1      38.082 -24.638 -12.953  0.00  0.00    +0.065 C 
ATOM     17  C   UNL     1      39.365 -25.185 -13.061  0.00  0.00    +0.001 C 
ATOM     18  C   UNL     1      39.606 -26.346 -13.836  0.00  0.00    +0.105 C 
ATOM     19  H   UNL     1      34.435 -26.226 -14.890  0.00  0.00    +0.175 HD
ENDBRANCH   9  13
ENDBRANCH   8   9
ENDBRANCH   2   8
BRANCH   4  20
ATOM     20  O   UNL     1      32.057 -23.454 -17.347  0.00  0.00    -0.452 OA
BRANCH  20  22
ATOM     21 CL   UNL     1      37.007 -22.747 -16.411  0.00  0.00    -0.082 Cl
ATOM     22  C   UNL     1      33.250 -22.868 -17.730  0.00  0.00    +0.147 C 
ATOM     23  C   UNL     1      33.283 -22.080 -18.867  0.00  0.00    +0.048 C 
ATOM     24  C   UNL     1      34.382 -23.083 -16.964  0.00  0.00    +0.049 C 
ATOM     25  C   UNL     1      34.486 -21.489 -19.251  0.00  0.00    +0.072 C 
ATOM     26  C   UNL     1      35.586 -22.492 -17.348  0.00  0.00    +0.061 C 
ATOM     27  C   UNL     1      35.638 -21.696 -18.492  0.00  0.00    +0.022 C 
BRANCH  25  29
ATOM     28  N   UNL     1      34.581 -20.009 -21.378  0.00  0.00    -0.191 NA
ATOM     29  C   UNL     1      34.539 -20.674 -20.423  0.00  0.00    +0.101 C 
ENDBRANCH  25  29
ENDBRANCH  20  22
ENDBRANCH   4  20
TORSDOF 6
ENDMDL
MODEL 9
REMARK VINA RESULT:     -10.6     11.687     14.390
REMARK  Name = 16045340
REMARK  6 active torsions:
REMARK  status: ('A' for Active; 'I' for Inactive)
REMARK    1  A    between atoms: C_2  and  O_8
REMARK    2  A    between atoms: C_4  and  O_20
REMARK    3  A    between atoms: O_8  and  C_9
REMARK    4  A    between atoms: C_9  and  C_13
REMARK    5  A    between atoms: O_20  and  C_22
REMARK    6  A    between atoms: C_25  and  C_29
REMARK                            x       y       z     vdW  Elec       q    Type
REMARK                         _______ _______ _______ _____ _____    ______ ____
ROOT
ATOM      1 CL   UNL     1      29.381 -22.776 -16.480  0.00  0.00    -0.079 Cl
ATOM      2  C   UNL     1      32.682 -24.215 -13.768  0.00  0.00    +0.142 C 
ATOM      3  C   UNL     1      32.926 -24.089 -15.132  0.00  0.00    +0.075 C 
ATOM      4  C   UNL     1      31.909 -23.644 -15.979  0.00  0.00    +0.159 C 
ATOM      5  C   UNL     1      31.432 -23.900 -13.242  0.00  0.00    +0.038 C 
ATOM      6  C   UNL     1      30.656 -23.327 -15.457  0.00  0.00    +0.092 C 
ATOM      7  C   UNL     1      30.418 -23.455 -14.089  0.00  0.00    +0.018 C 
ENDROOT
BRANCH   2   8
ATOM      8  O   UNL     1      33.679 -24.650 -12.938  0.00  0.00    -0.469 OA
BRANCH   8   9
ATOM      9  C   UNL     1      34.978 -24.101 -13.157  0.00  0.00    +0.248 C 
BRANCH   9  13
ATOM     10  N   UNL     1      35.405 -26.089 -14.584  0.00  0.00    -0.228 N 
ATOM     11  N   UNL     1      36.348 -26.949 -15.024  0.00  0.00    -0.128 NA
ATOM     12  N   UNL     1      38.723 -27.036 -14.541  0.00  0.00    -0.192 NA
ATOM     13  C   UNL     1      35.868 -25.122 -13.735  0.00  0.00    +0.093 C 
ATOM     14  C   UNL     1      37.208 -25.374 -13.617  0.00  0.00    +0.060 C 
ATOM     15  C   UNL     1      37.467 -26.516 -14.434  0.00  0.00    +0.050 C 
ATOM     16  C   UNL     1      38.109 -24.649 -12.852  0.00  0.00    +0.065 C 
ATOM     17  C   UNL     1      39.390 -25.197 -12.976  0.00  0.00    +0.001 C 
ATOM     18  C   UNL     1      39.629 -26.331 -13.791  0.00  0.00    +0.105 C 
ATOM     19  H   UNL     1      34.461 -26.153 -14.852  0.00  0.00    +0.175 HD
ENDBRANCH   9  13
ENDBRANCH   8   9
ENDBRANCH   2   8
BRANCH   4  20
ATOM     20  O   UNL     1      32.172 -23.527 -17.312  0.00  0.00    -0.452 OA
BRANCH  20  22
ATOM     21 CL   UNL     1      34.692 -20.680 -20.692  0.00  0.00    -0.082 Cl
ATOM     22  C   UNL     1      33.361 -22.923 -17.682  0.00  0.00    +0.147 C 
ATOM     23  C   UNL     1      34.471 -23.062 -16.868  0.00  0.00    +0.048 C 
ATOM     24  C   UNL     1      33.409 -22.197 -18.858  0.00  0.00    +0.049 C 
ATOM     25  C   UNL     1      35.669 -22.454 -17.242  0.00  0.00    +0.072 C 
ATOM     26  C   UNL     1      34.608 -21.589 -19.233  0.00  0.00    +0.061 C 
ATOM     27  C   UNL     1      35.738 -21.717 -18.424  0.00  0.00    +0.022 C 
BRANCH  25  29
ATOM     28  N   UNL     1      37.767 -22.692 -15.737  0.00  0.00    -0.191 NA
ATOM     29  C   UNL     1      36.825 -22.585 -16.413  0.00  0.00    +0.101 C 
ENDBRANCH  25  29
ENDBRANCH  20  22
ENDBRANCH   4  20
TORSDOF 6
ENDMDL
