MODEL 1
REMARK VINA RESULT:     -11.5      0.000      0.000
REMARK  Name = 18376177
REMARK  11 active torsions:
REMARK  status: ('A' for Active; 'I' for Inactive)
REMARK    1  A    between atoms: N_1  and  S_2
REMARK    2  A    between atoms: N_1  and  C_11
REMARK    3  A    between atoms: N_1  and  C_23
REMARK    4  A    between atoms: S_2  and  C_6
REMARK    5  A    between atoms: C_11  and  C_12
REMARK    6  A    between atoms: C_15  and  N_18
REMARK    7  A    between atoms: C_23  and  C_24
REMARK    8  A    between atoms: C_27  and  O_30
REMARK    9  A    between atoms: O_30  and  C_31
REMARK   10  A    between atoms: C_31  and  C_33
REMARK   11  A    between atoms: C_33  and  O_34
REMARK                            x       y       z     vdW  Elec       q    Type
REMARK                         _______ _______ _______ _____ _____    ______ ____
ROOT
ATOM      1  N   UNL     1      33.324 -23.467 -15.004  0.00  0.00    -0.147 NA
ENDROOT
BRANCH   1   2
ATOM      2  S   UNL     1      32.107 -24.208 -14.035  0.00  0.00    +0.065 S 
ATOM      3  O   UNL     1      31.902 -23.423 -12.832  0.00  0.00    -0.153 OA
ATOM      4  O   UNL     1      32.378 -25.630 -13.922  0.00  0.00    -0.153 OA
BRANCH   2   6
ATOM      5  N   UNL     1      29.366 -22.692 -16.581  0.00  0.00    -0.241 NA
ATOM      6  C   UNL     1      30.655 -24.029 -15.034  0.00  0.00    +0.141 C 
ATOM      7  C   UNL     1      29.687 -25.025 -15.075  0.00  0.00    +0.023 C 
ATOM      8  C   UNL     1      30.449 -22.892 -15.798  0.00  0.00    +0.119 C 
ATOM      9  C   UNL     1      28.558 -24.857 -15.869  0.00  0.00    +0.022 C 
ATOM     10  C   UNL     1      28.446 -23.682 -16.596  0.00  0.00    +0.099 C 
ENDBRANCH   2   6
ENDBRANCH   1   2
BRANCH   1  11
ATOM     11  C   UNL     1      33.693 -24.129 -16.281  0.00  0.00    +0.122 C 
BRANCH  11  12
ATOM     12  C   UNL     1      34.065 -23.139 -17.349  0.00  0.00    -0.004 C 
ATOM     13  C   UNL     1      35.393 -22.738 -17.496  0.00  0.00    -0.002 C 
ATOM     14  C   UNL     1      33.083 -22.620 -18.193  0.00  0.00    -0.002 C 
ATOM     15  C   UNL     1      34.756 -21.299 -19.330  0.00  0.00    +0.074 C 
ATOM     16  C   UNL     1      35.738 -21.818 -18.487  0.00  0.00    +0.016 C 
ATOM     17  C   UNL     1      33.428 -21.700 -19.183  0.00  0.00    +0.016 C 
BRANCH  15  18
ATOM     18  N   UNL     1      35.099 -20.388 -20.312  0.00  0.00    -0.189 N 
ATOM     19  N   UNL     1      36.269 -19.730 -20.251  0.00  0.00    -0.172 NA
ATOM     20  C   UNL     1      34.342 -20.067 -21.400  0.00  0.00    +0.091 C 
ATOM     21  C   UNL     1      35.066 -19.133 -22.099  0.00  0.00    +0.040 C 
ATOM     22  C   UNL     1      36.243 -18.964 -21.346  0.00  0.00    +0.120 C 
ENDBRANCH  15  18
ENDBRANCH  11  12
ENDBRANCH   1  11
BRANCH   1  23
ATOM     23  C   UNL     1      34.508 -22.896 -14.313  0.00  0.00    +0.123 C 
BRANCH  23  24
ATOM     24  C   UNL     1      35.322 -23.948 -13.613  0.00  0.00    -0.001 C 
ATOM     25  C   UNL     1      36.283 -24.671 -14.319  0.00  0.00    +0.034 C 
ATOM     26  C   UNL     1      35.115 -24.202 -12.257  0.00  0.00    -0.003 C 
ATOM     27  C   UNL     1      37.037 -25.648 -13.670  0.00  0.00    +0.139 C 
ATOM     28  C   UNL     1      35.869 -25.179 -11.608  0.00  0.00    +0.003 C 
ATOM     29  C   UNL     1      36.831 -25.902 -12.314  0.00  0.00    +0.037 C 
BRANCH  27  30
ATOM     30  O   UNL     1      37.974 -26.355 -14.359  0.00  0.00    -0.464 OA
BRANCH  30  31
ATOM     31  C   UNL     1      39.269 -26.466 -13.770  0.00  0.00    +0.314 C 
BRANCH  31  33
ATOM     32  O   UNL     1      40.991 -24.798 -14.166  0.00  0.00    -0.246 OA
ATOM     33  C   UNL     1      40.266 -25.688 -14.584  0.00  0.00    +0.359 C 
BRANCH  33  34
ATOM     34  O   UNL     1      40.255 -26.116 -15.871  0.00  0.00    -0.478 OA
ATOM     35  H   UNL     1      40.861 -26.773 -16.152  0.00  0.00    +0.295 HD
ENDBRANCH  33  34
ENDBRANCH  31  33
ENDBRANCH  30  31
ENDBRANCH  27  30
ENDBRANCH  23  24
ENDBRANCH   1  23
TORSDOF 11
ENDMDL
MODEL 2
REMARK VINA RESULT:     -11.4      2.572      6.980
REMARK  Name = 18376177
REMARK  11 active torsions:
REMARK  status: ('A' for Active; 'I' for Inactive)
REMARK    1  A    between atoms: N_1  and  S_2
REMARK    2  A    between atoms: N_1  and  C_11
REMARK    3  A    between atoms: N_1  and  C_23
REMARK    4  A    between atoms: S_2  and  C_6
REMARK    5  A    between atoms: C_11  and  C_12
REMARK    6  A    between atoms: C_15  and  N_18
REMARK    7  A    between atoms: C_23  and  C_24
REMARK    8  A    between atoms: C_27  and  O_30
REMARK    9  A    between atoms: O_30  and  C_31
REMARK   10  A    between atoms: C_31  and  C_33
REMARK   11  A    between atoms: C_33  and  O_34
REMARK                            x       y       z     vdW  Elec       q    Type
REMARK                         _______ _______ _______ _____ _____    ______ ____
ROOT
ATOM      1  N   UNL     1      34.104 -23.721 -15.405  0.00  0.00    -0.147 NA
ENDROOT
BRANCH   1   2
ATOM      2  S   UNL     1      35.750 -23.475 -14.958  0.00  0.00    +0.065 S 
ATOM      3  O   UNL     1      36.076 -22.065 -15.068  0.00  0.00    -0.153 OA
ATOM      4  O   UNL     1      36.585 -24.455 -15.629  0.00  0.00    -0.153 OA
BRANCH   2   6
ATOM      5  N   UNL     1      34.713 -25.058 -11.392  0.00  0.00    -0.241 NA
ATOM      6  C   UNL     1      35.747 -23.881 -13.234  0.00  0.00    +0.141 C 
ATOM      7  C   UNL     1      36.721 -23.381 -12.378  0.00  0.00    +0.023 C 
ATOM      8  C   UNL     1      34.774 -24.709 -12.696  0.00  0.00    +0.119 C 
ATOM      9  C   UNL     1      36.694 -23.717 -11.030  0.00  0.00    +0.022 C 
ATOM     10  C   UNL     1      35.678 -24.552 -10.590  0.00  0.00    +0.099 C 
ENDBRANCH   2   6
ENDBRANCH   1   2
BRANCH   1  11
ATOM     11  C   UNL     1      33.819 -24.143 -16.801  0.00  0.00    +0.122 C 
BRANCH  11  12
ATOM     12  C   UNL     1      34.155 -23.071 -17.799  0.00  0.00    -0.004 C 
ATOM     13  C   UNL     1      33.139 -22.454 -18.528  0.00  0.00    -0.002 C 
ATOM     14  C   UNL     1      35.483 -22.695 -17.998  0.00  0.00    -0.002 C 
ATOM     15  C   UNL     1      34.780 -21.084 -19.656  0.00  0.00    +0.074 C 
ATOM     16  C   UNL     1      33.451 -21.460 -19.456  0.00  0.00    +0.016 C 
ATOM     17  C   UNL     1      35.796 -21.702 -18.926  0.00  0.00    +0.016 C 
BRANCH  15  18
ATOM     18  N   UNL     1      35.089 -20.098 -20.574  0.00  0.00    -0.189 N 
ATOM     19  N   UNL     1      36.170 -19.319 -20.399  0.00  0.00    -0.172 NA
ATOM     20  C   UNL     1      34.381 -19.814 -21.705  0.00  0.00    +0.091 C 
ATOM     21  C   UNL     1      35.045 -18.776 -22.311  0.00  0.00    +0.040 C 
ATOM     22  C   UNL     1      36.137 -18.512 -21.464  0.00  0.00    +0.120 C 
ENDBRANCH  15  18
ENDBRANCH  11  12
ENDBRANCH   1  11
BRANCH   1  23
ATOM     23  C   UNL     1      33.096 -22.752 -14.902  0.00  0.00    +0.123 C 
BRANCH  23  24
ATOM     24  C   UNL     1      31.695 -23.286 -14.998  0.00  0.00    -0.001 C 
ATOM     25  C   UNL     1      30.800 -22.736 -15.915  0.00  0.00    +0.034 C 
ATOM     26  C   UNL     1      31.289 -24.333 -14.169  0.00  0.00    -0.003 C 
ATOM     27  C   UNL     1      29.500 -23.232 -16.005  0.00  0.00    +0.139 C 
ATOM     28  C   UNL     1      29.989 -24.829 -14.258  0.00  0.00    +0.003 C 
ATOM     29  C   UNL     1      29.094 -24.278 -15.177  0.00  0.00    +0.037 C 
BRANCH  27  30
ATOM     30  O   UNL     1      28.625 -22.694 -16.898  0.00  0.00    -0.464 OA
BRANCH  30  31
ATOM     31  C   UNL     1      27.284 -23.180 -16.869  0.00  0.00    +0.314 C 
BRANCH  31  33
ATOM     32  O   UNL     1      26.248 -21.025 -17.295  0.00  0.00    -0.246 OA
ATOM     33  C   UNL     1      26.335 -22.041 -16.623  0.00  0.00    +0.359 C 
BRANCH  33  34
ATOM     34  O   UNL     1      25.569 -22.297 -15.533  0.00  0.00    -0.478 OA
ATOM     35  H   UNL     1      24.740 -22.723 -15.630  0.00  0.00    +0.295 HD
ENDBRANCH  33  34
ENDBRANCH  31  33
ENDBRANCH  30  31
ENDBRANCH  27  30
ENDBRANCH  23  24
ENDBRANCH   1  23
TORSDOF 11
ENDMDL
MODEL 3
REMARK VINA RESULT:     -10.9      2.621      6.629
REMARK  Name = 18376177
REMARK  11 active torsions:
REMARK  status: ('A' for Active; 'I' for Inactive)
REMARK    1  A    between atoms: N_1  and  S_2
REMARK    2  A    between atoms: N_1  and  C_11
REMARK    3  A    between atoms: N_1  and  C_23
REMARK    4  A    between atoms: S_2  and  C_6
REMARK    5  A    between atoms: C_11  and  C_12
REMARK    6  A    between atoms: C_15  and  N_18
REMARK    7  A    between atoms: C_23  and  C_24
REMARK    8  A    between atoms: C_27  and  O_30
REMARK    9  A    between atoms: O_30  and  C_31
REMARK   10  A    between atoms: C_31  and  C_33
REMARK   11  A    between atoms: C_33  and  O_34
REMARK                            x       y       z     vdW  Elec       q    Type
REMARK                         _______ _______ _______ _____ _____    ______ ____
ROOT
ATOM      1  N   UNL     1      34.272 -23.516 -16.315  0.00  0.00    -0.147 NA
ENDROOT
BRANCH   1   2
ATOM      2  S   UNL     1      35.835 -23.087 -15.727  0.00  0.00    +0.065 S 
ATOM      3  O   UNL     1      35.697 -22.158 -14.621  0.00  0.00    -0.153 OA
ATOM      4  O   UNL     1      36.694 -22.744 -16.845  0.00  0.00    -0.153 OA
BRANCH   2   6
ATOM      5  N   UNL     1      36.064 -26.971 -14.648  0.00  0.00    -0.241 NA
ATOM      6  C   UNL     1      36.429 -24.616 -15.058  0.00  0.00    +0.141 C 
ATOM      7  C   UNL     1      37.670 -24.692 -14.437  0.00  0.00    +0.023 C 
ATOM      8  C   UNL     1      35.671 -25.774 -15.137  0.00  0.00    +0.119 C 
ATOM      9  C   UNL     1      38.111 -25.906 -13.922  0.00  0.00    +0.022 C 
ATOM     10  C   UNL     1      37.277 -27.006 -14.052  0.00  0.00    +0.099 C 
ENDBRANCH   2   6
ENDBRANCH   1   2
BRANCH   1  11
ATOM     11  C   UNL     1      34.146 -23.884 -17.748  0.00  0.00    +0.122 C 
BRANCH  11  12
ATOM     12  C   UNL     1      34.324 -22.701 -18.657  0.00  0.00    -0.004 C 
ATOM     13  C   UNL     1      35.599 -22.348 -19.099  0.00  0.00    -0.002 C 
ATOM     14  C   UNL     1      33.215 -21.957 -19.060  0.00  0.00    -0.002 C 
ATOM     15  C   UNL     1      34.656 -20.503 -20.344  0.00  0.00    +0.074 C 
ATOM     16  C   UNL     1      35.765 -21.248 -19.942  0.00  0.00    +0.016 C 
ATOM     17  C   UNL     1      33.381 -20.858 -19.903  0.00  0.00    +0.016 C 
BRANCH  15  18
ATOM     18  N   UNL     1      34.820 -19.415 -21.181  0.00  0.00    -0.189 N 
ATOM     19  N   UNL     1      35.285 -18.250 -20.699  0.00  0.00    -0.172 NA
ATOM     20  C   UNL     1      34.552 -19.391 -22.518  0.00  0.00    +0.091 C 
ATOM     21  C   UNL     1      34.862 -18.122 -22.940  0.00  0.00    +0.040 C 
ATOM     22  C   UNL     1      35.308 -17.463 -21.779  0.00  0.00    +0.120 C 
ENDBRANCH  15  18
ENDBRANCH  11  12
ENDBRANCH   1  11
BRANCH   1  23
ATOM     23  C   UNL     1      33.111 -22.719 -15.843  0.00  0.00    +0.123 C 
BRANCH  23  24
ATOM     24  C   UNL     1      32.092 -23.563 -15.130  0.00  0.00    -0.001 C 
ATOM     25  C   UNL     1      30.749 -23.499 -15.501  0.00  0.00    +0.034 C 
ATOM     26  C   UNL     1      32.490 -24.412 -14.096  0.00  0.00    -0.003 C 
ATOM     27  C   UNL     1      29.804 -24.282 -14.840  0.00  0.00    +0.139 C 
ATOM     28  C   UNL     1      31.545 -25.195 -13.435  0.00  0.00    +0.003 C 
ATOM     29  C   UNL     1      30.202 -25.131 -13.807  0.00  0.00    +0.037 C 
BRANCH  27  30
ATOM     30  O   UNL     1      28.494 -24.217 -15.200  0.00  0.00    -0.464 OA
BRANCH  30  31
ATOM     31  C   UNL     1      27.936 -22.918 -15.396  0.00  0.00    +0.314 C 
BRANCH  31  33
ATOM     32  O   UNL     1      27.493 -23.649 -17.670  0.00  0.00    -0.246 OA
ATOM     33  C   UNL     1      27.411 -22.796 -16.799  0.00  0.00    +0.359 C 
BRANCH  33  34
ATOM     34  O   UNL     1      26.821 -21.588 -16.975  0.00  0.00    -0.478 OA
ATOM     35  H   UNL     1      27.276 -20.904 -17.425  0.00  0.00    +0.295 HD
ENDBRANCH  33  34
ENDBRANCH  31  33
ENDBRANCH  30  31
ENDBRANCH  27  30
ENDBRANCH  23  24
ENDBRANCH   1  23
TORSDOF 11
ENDMDL
MODEL 4
REMARK VINA RESULT:     -10.8      2.622      7.052
REMARK  Name = 18376177
REMARK  11 active torsions:
REMARK  status: ('A' for Active; 'I' for Inactive)
REMARK    1  A    between atoms: N_1  and  S_2
REMARK    2  A    between atoms: N_1  and  C_11
REMARK    3  A    between atoms: N_1  and  C_23
REMARK    4  A    between atoms: S_2  and  C_6
REMARK    5  A    between atoms: C_11  and  C_12
REMARK    6  A    between atoms: C_15  and  N_18
REMARK    7  A    between atoms: C_23  and  C_24
REMARK    8  A    between atoms: C_27  and  O_30
REMARK    9  A    between atoms: O_30  and  C_31
REMARK   10  A    between atoms: C_31  and  C_33
REMARK   11  A    between atoms: C_33  and  O_34
REMARK                            x       y       z     vdW  Elec       q    Type
REMARK                         _______ _______ _______ _____ _____    ______ ____
ROOT
ATOM      1  N   UNL     1      34.228 -24.549 -13.695  0.00  0.00    -0.147 NA
ENDROOT
BRANCH   1   2
ATOM      2  S   UNL     1      35.442 -24.446 -12.476  0.00  0.00    +0.065 S 
ATOM      3  O   UNL     1      35.058 -25.265 -11.341  0.00  0.00    -0.153 OA
ATOM      4  O   UNL     1      35.797 -23.055 -12.265  0.00  0.00    -0.153 OA
BRANCH   2   6
ATOM      5  N   UNL     1      37.930 -27.274 -13.926  0.00  0.00    -0.241 NA
ATOM      6  C   UNL     1      36.830 -25.232 -13.245  0.00  0.00    +0.141 C 
ATOM      7  C   UNL     1      37.882 -24.484 -13.760  0.00  0.00    +0.023 C 
ATOM      8  C   UNL     1      36.902 -26.612 -13.353  0.00  0.00    +0.119 C 
ATOM      9  C   UNL     1      38.959 -25.128 -14.359  0.00  0.00    +0.022 C 
ATOM     10  C   UNL     1      38.935 -26.513 -14.417  0.00  0.00    +0.099 C 
ENDBRANCH   2   6
ENDBRANCH   1   2
BRANCH   1  11
ATOM     11  C   UNL     1      34.598 -25.169 -14.993  0.00  0.00    +0.122 C 
BRANCH  11  12
ATOM     12  C   UNL     1      34.644 -24.166 -16.111  0.00  0.00    -0.004 C 
ATOM     13  C   UNL     1      35.657 -23.207 -16.145  0.00  0.00    -0.002 C 
ATOM     14  C   UNL     1      33.675 -24.193 -17.114  0.00  0.00    -0.002 C 
ATOM     15  C   UNL     1      34.729 -22.301 -18.184  0.00  0.00    +0.074 C 
ATOM     16  C   UNL     1      35.699 -22.274 -17.182  0.00  0.00    +0.016 C 
ATOM     17  C   UNL     1      33.718 -23.261 -18.150  0.00  0.00    +0.016 C 
BRANCH  15  18
ATOM     18  N   UNL     1      34.773 -21.378 -19.213  0.00  0.00    -0.189 N 
ATOM     19  N   UNL     1      35.946 -20.854 -19.608  0.00  0.00    -0.172 NA
ATOM     20  C   UNL     1      33.698 -20.915 -19.914  0.00  0.00    +0.091 C 
ATOM     21  C   UNL     1      34.203 -20.026 -20.830  0.00  0.00    +0.040 C 
ATOM     22  C   UNL     1      35.590 -20.028 -20.597  0.00  0.00    +0.120 C 
ENDBRANCH  15  18
ENDBRANCH  11  12
ENDBRANCH   1  11
BRANCH   1  23
ATOM     23  C   UNL     1      33.324 -23.384 -13.875  0.00  0.00    +0.123 C 
BRANCH  23  24
ATOM     24  C   UNL     1      31.922 -23.798 -14.221  0.00  0.00    -0.001 C 
ATOM     25  C   UNL     1      31.195 -23.077 -15.168  0.00  0.00    +0.034 C 
ATOM     26  C   UNL     1      31.347 -24.905 -13.595  0.00  0.00    -0.003 C 
ATOM     27  C   UNL     1      29.893 -23.462 -15.489  0.00  0.00    +0.139 C 
ATOM     28  C   UNL     1      30.046 -25.290 -13.916  0.00  0.00    +0.003 C 
ATOM     29  C   UNL     1      29.319 -24.568 -14.864  0.00  0.00    +0.037 C 
BRANCH  27  30
ATOM     30  O   UNL     1      29.183 -22.757 -16.411  0.00  0.00    -0.464 OA
BRANCH  30  31
ATOM     31  C   UNL     1      27.911 -23.281 -16.791  0.00  0.00    +0.314 C 
BRANCH  31  33
ATOM     32  O   UNL     1      26.186 -22.532 -15.252  0.00  0.00    -0.246 OA
ATOM     33  C   UNL     1      26.818 -22.380 -16.287  0.00  0.00    +0.359 C 
BRANCH  33  34
ATOM     34  O   UNL     1      26.622 -21.354 -17.152  0.00  0.00    -0.478 OA
ATOM     35  H   UNL     1      26.044 -21.459 -17.882  0.00  0.00    +0.295 HD
ENDBRANCH  33  34
ENDBRANCH  31  33
ENDBRANCH  30  31
ENDBRANCH  27  30
ENDBRANCH  23  24
ENDBRANCH   1  23
TORSDOF 11
ENDMDL
MODEL 5
REMARK VINA RESULT:     -10.5      1.786      2.476
REMARK  Name = 18376177
REMARK  11 active torsions:
REMARK  status: ('A' for Active; 'I' for Inactive)
REMARK    1  A    between atoms: N_1  and  S_2
REMARK    2  A    between atoms: N_1  and  C_11
REMARK    3  A    between atoms: N_1  and  C_23
REMARK    4  A    between atoms: S_2  and  C_6
REMARK    5  A    between atoms: C_11  and  C_12
REMARK    6  A    between atoms: C_15  and  N_18
REMARK    7  A    between atoms: C_23  and  C_24
REMARK    8  A    between atoms: C_27  and  O_30
REMARK    9  A    between atoms: O_30  and  C_31
REMARK   10  A    between atoms: C_31  and  C_33
REMARK   11  A    between atoms: C_33  and  O_34
REMARK                            x       y       z     vdW  Elec       q    Type
REMARK                         _______ _______ _______ _____ _____    ______ ____
ROOT
ATOM      1  N   UNL     1      32.947 -23.212 -15.582  0.00  0.00    -0.147 NA
ENDROOT
BRANCH   1   2
ATOM      2  S   UNL     1      31.808 -23.921 -14.499  0.00  0.00    +0.065 S 
ATOM      3  O   UNL     1      31.680 -23.088 -13.318  0.00  0.00    -0.153 OA
ATOM      4  O   UNL     1      32.102 -25.335 -14.347  0.00  0.00    -0.153 OA
BRANCH   2   6
ATOM      5  N   UNL     1      28.759 -22.435 -16.687  0.00  0.00    -0.241 NA
ATOM      6  C   UNL     1      30.289 -23.795 -15.399  0.00  0.00    +0.141 C 
ATOM      7  C   UNL     1      29.445 -24.890 -15.538  0.00  0.00    +0.023 C 
ATOM      8  C   UNL     1      29.903 -22.600 -15.987  0.00  0.00    +0.119 C 
ATOM      9  C   UNL     1      28.258 -24.761 -16.251  0.00  0.00    +0.022 C 
ATOM     10  C   UNL     1      27.964 -23.523 -16.801  0.00  0.00    +0.099 C 
ENDBRANCH   2   6
ENDBRANCH   1   2
BRANCH   1  11
ATOM     11  C   UNL     1      33.095 -23.818 -16.929  0.00  0.00    +0.122 C 
BRANCH  11  12
ATOM     12  C   UNL     1      33.603 -22.834 -17.944  0.00  0.00    -0.004 C 
ATOM     13  C   UNL     1      32.705 -22.036 -18.653  0.00  0.00    -0.002 C 
ATOM     14  C   UNL     1      34.973 -22.717 -18.179  0.00  0.00    -0.002 C 
ATOM     15  C   UNL     1      34.546 -21.008 -19.832  0.00  0.00    +0.074 C 
ATOM     16  C   UNL     1      33.176 -21.123 -19.597  0.00  0.00    +0.016 C 
ATOM     17  C   UNL     1      35.445 -21.805 -19.122  0.00  0.00    +0.016 C 
BRANCH  15  18
ATOM     18  N   UNL     1      35.013 -20.102 -20.765  0.00  0.00    -0.189 N 
ATOM     19  N   UNL     1      34.280 -19.807 -21.853  0.00  0.00    -0.172 NA
ATOM     20  C   UNL     1      36.199 -19.432 -20.702  0.00  0.00    +0.091 C 
ATOM     21  C   UNL     1      36.247 -18.646 -21.826  0.00  0.00    +0.040 C 
ATOM     22  C   UNL     1      35.041 -18.916 -22.498  0.00  0.00    +0.120 C 
ENDBRANCH  15  18
ENDBRANCH  11  12
ENDBRANCH   1  11
BRANCH   1  23
ATOM     23  C   UNL     1      34.253 -22.773 -15.025  0.00  0.00    +0.123 C 
BRANCH  23  24
ATOM     24  C   UNL     1      35.034 -23.915 -14.439  0.00  0.00    -0.001 C 
ATOM     25  C   UNL     1      34.974 -24.174 -13.070  0.00  0.00    +0.034 C 
ATOM     26  C   UNL     1      35.822 -24.718 -15.266  0.00  0.00    -0.003 C 
ATOM     27  C   UNL     1      35.699 -25.233 -12.527  0.00  0.00    +0.139 C 
ATOM     28  C   UNL     1      36.547 -25.778 -14.723  0.00  0.00    +0.003 C 
ATOM     29  C   UNL     1      36.486 -26.036 -13.353  0.00  0.00    +0.037 C 
BRANCH  27  30
ATOM     30  O   UNL     1      35.642 -25.484 -11.191  0.00  0.00    -0.464 OA
BRANCH  30  31
ATOM     31  C   UNL     1      35.931 -24.397 -10.312  0.00  0.00    +0.314 C 
BRANCH  31  33
ATOM     32  O   UNL     1      37.301 -22.527 -11.040  0.00  0.00    -0.246 OA
ATOM     33  C   UNL     1      37.193 -23.709 -10.751  0.00  0.00    +0.359 C 
BRANCH  33  34
ATOM     34  O   UNL     1      38.221 -24.595 -10.784  0.00  0.00    -0.478 OA
ATOM     35  H   UNL     1      39.092 -24.296 -10.955  0.00  0.00    +0.295 HD
ENDBRANCH  33  34
ENDBRANCH  31  33
ENDBRANCH  30  31
ENDBRANCH  27  30
ENDBRANCH  23  24
ENDBRANCH   1  23
TORSDOF 11
ENDMDL
MODEL 6
REMARK VINA RESULT:     -10.1      3.306      7.537
REMARK  Name = 18376177
REMARK  11 active torsions:
REMARK  status: ('A' for Active; 'I' for Inactive)
REMARK    1  A    between atoms: N_1  and  S_2
REMARK    2  A    between atoms: N_1  and  C_11
REMARK    3  A    between atoms: N_1  and  C_23
REMARK    4  A    between atoms: S_2  and  C_6
REMARK    5  A    between atoms: C_11  and  C_12
REMARK    6  A    between atoms: C_15  and  N_18
REMARK    7  A    between atoms: C_23  and  C_24
REMARK    8  A    between atoms: C_27  and  O_30
REMARK    9  A    between atoms: O_30  and  C_31
REMARK   10  A    between atoms: C_31  and  C_33
REMARK   11  A    between atoms: C_33  and  O_34
REMARK                            x       y       z     vdW  Elec       q    Type
REMARK                         _______ _______ _______ _____ _____    ______ ____
ROOT
ATOM      1  N   UNL     1      35.113 -24.453 -12.916  0.00  0.00    -0.147 NA
ENDROOT
BRANCH   1   2
ATOM      2  S   UNL     1      36.520 -24.301 -11.931  0.00  0.00    +0.065 S 
ATOM      3  O   UNL     1      36.302 -24.983 -10.668  0.00  0.00    -0.153 OA
ATOM      4  O   UNL     1      36.960 -22.918 -11.928  0.00  0.00    -0.153 OA
BRANCH   2   6
ATOM      5  N   UNL     1      38.309 -27.266 -14.006  0.00  0.00    -0.241 NA
ATOM      6  C   UNL     1      37.726 -25.234 -12.831  0.00  0.00    +0.141 C 
ATOM      7  C   UNL     1      38.993 -24.719 -13.078  0.00  0.00    +0.023 C 
ATOM      8  C   UNL     1      37.436 -26.501 -13.312  0.00  0.00    +0.119 C 
ATOM      9  C   UNL     1      39.919 -25.474 -13.788  0.00  0.00    +0.022 C 
ATOM     10  C   UNL     1      39.531 -26.731 -14.227  0.00  0.00    +0.099 C 
ENDBRANCH   2   6
ENDBRANCH   1   2
BRANCH   1  11
ATOM     11  C   UNL     1      33.847 -24.864 -12.260  0.00  0.00    +0.122 C 
BRANCH  11  12
ATOM     12  C   UNL     1      32.638 -24.508 -13.079  0.00  0.00    -0.004 C 
ATOM     13  C   UNL     1      32.432 -23.188 -13.478  0.00  0.00    -0.002 C 
ATOM     14  C   UNL     1      31.724 -25.497 -13.440  0.00  0.00    -0.002 C 
ATOM     15  C   UNL     1      30.394 -23.845 -14.598  0.00  0.00    +0.074 C 
ATOM     16  C   UNL     1      31.309 -22.856 -14.237  0.00  0.00    +0.016 C 
ATOM     17  C   UNL     1      30.602 -25.166 -14.200  0.00  0.00    +0.016 C 
BRANCH  15  18
ATOM     18  N   UNL     1      29.282 -23.517 -15.352  0.00  0.00    -0.189 N 
ATOM     19  N   UNL     1      28.553 -22.428 -15.051  0.00  0.00    -0.172 NA
ATOM     20  C   UNL     1      28.818 -24.210 -16.430  0.00  0.00    +0.091 C 
ATOM     21  C   UNL     1      27.708 -23.529 -16.865  0.00  0.00    +0.040 C 
ATOM     22  C   UNL     1      27.592 -22.442 -15.979  0.00  0.00    +0.120 C 
ENDBRANCH  15  18
ENDBRANCH  11  12
ENDBRANCH   1  11
BRANCH   1  23
ATOM     23  C   UNL     1      35.270 -25.074 -14.257  0.00  0.00    +0.123 C 
BRANCH  23  24
ATOM     24  C   UNL     1      35.453 -24.050 -15.341  0.00  0.00    -0.001 C 
ATOM     25  C   UNL     1      34.414 -23.783 -16.232  0.00  0.00    +0.034 C 
ATOM     26  C   UNL     1      36.663 -23.364 -15.456  0.00  0.00    -0.003 C 
ATOM     27  C   UNL     1      34.583 -22.833 -17.238  0.00  0.00    +0.139 C 
ATOM     28  C   UNL     1      36.832 -22.413 -16.462  0.00  0.00    +0.003 C 
ATOM     29  C   UNL     1      35.792 -22.147 -17.353  0.00  0.00    +0.037 C 
BRANCH  27  30
ATOM     30  O   UNL     1      33.570 -22.575 -18.109  0.00  0.00    -0.464 OA
BRANCH  30  31
ATOM     31  C   UNL     1      33.929 -22.309 -19.464  0.00  0.00    +0.314 C 
BRANCH  31  33
ATOM     32  O   UNL     1      32.259 -20.598 -19.891  0.00  0.00    -0.246 OA
ATOM     33  C   UNL     1      33.429 -20.951 -19.867  0.00  0.00    +0.359 C 
BRANCH  33  34
ATOM     34  O   UNL     1      34.470 -20.150 -20.207  0.00  0.00    -0.478 OA
ATOM     35  H   UNL     1      34.656 -19.383 -19.703  0.00  0.00    +0.295 HD
ENDBRANCH  33  34
ENDBRANCH  31  33
ENDBRANCH  30  31
ENDBRANCH  27  30
ENDBRANCH  23  24
ENDBRANCH   1  23
TORSDOF 11
ENDMDL
MODEL 7
REMARK VINA RESULT:      -9.8      3.192      7.344
REMARK  Name = 18376177
REMARK  11 active torsions:
REMARK  status: ('A' for Active; 'I' for Inactive)
REMARK    1  A    between atoms: N_1  and  S_2
REMARK    2  A    between atoms: N_1  and  C_11
REMARK    3  A    between atoms: N_1  and  C_23
REMARK    4  A    between atoms: S_2  and  C_6
REMARK    5  A    between atoms: C_11  and  C_12
REMARK    6  A    between atoms: C_15  and  N_18
REMARK    7  A    between atoms: C_23  and  C_24
REMARK    8  A    between atoms: C_27  and  O_30
REMARK    9  A    between atoms: O_30  and  C_31
REMARK   10  A    between atoms: C_31  and  C_33
REMARK   11  A    between atoms: C_33  and  O_34
REMARK                            x       y       z     vdW  Elec       q    Type
REMARK                         _______ _______ _______ _____ _____    ______ ____
ROOT
ATOM      1  N   UNL     1      34.582 -24.033 -13.854  0.00  0.00    -0.147 NA
ENDROOT
BRANCH   1   2
ATOM      2  S   UNL     1      36.004 -23.673 -12.949  0.00  0.00    +0.065 S 
ATOM      3  O   UNL     1      35.743 -23.879 -11.536  0.00  0.00    -0.153 OA
ATOM      4  O   UNL     1      36.554 -22.407 -13.396  0.00  0.00    -0.153 OA
BRANCH   2   6
ATOM      5  N   UNL     1      37.701 -27.291 -13.521  0.00  0.00    -0.241 NA
ATOM      6  C   UNL     1      37.124 -24.944 -13.467  0.00  0.00    +0.141 C 
ATOM      7  C   UNL     1      38.266 -24.638 -14.198  0.00  0.00    +0.023 C 
ATOM      8  C   UNL     1      36.889 -26.274 -13.157  0.00  0.00    +0.119 C 
ATOM      9  C   UNL     1      39.126 -25.656 -14.592  0.00  0.00    +0.022 C 
ATOM     10  C   UNL     1      38.802 -26.955 -14.231  0.00  0.00    +0.099 C 
ENDBRANCH   2   6
ENDBRANCH   1   2
BRANCH   1  11
ATOM     11  C   UNL     1      33.392 -24.523 -13.112  0.00  0.00    +0.122 C 
BRANCH  11  12
ATOM     12  C   UNL     1      32.105 -24.160 -13.797  0.00  0.00    -0.004 C 
ATOM     13  C   UNL     1      31.799 -22.821 -14.041  0.00  0.00    -0.002 C 
ATOM     14  C   UNL     1      31.216 -25.161 -14.188  0.00  0.00    -0.002 C 
ATOM     15  C   UNL     1      29.713 -23.485 -15.065  0.00  0.00    +0.074 C 
ATOM     16  C   UNL     1      30.602 -22.484 -14.675  0.00  0.00    +0.016 C 
ATOM     17  C   UNL     1      30.020 -24.824 -14.822  0.00  0.00    +0.016 C 
BRANCH  15  18
ATOM     18  N   UNL     1      28.529 -23.150 -15.695  0.00  0.00    -0.189 N 
ATOM     19  N   UNL     1      27.640 -22.344 -15.089  0.00  0.00    -0.172 NA
ATOM     20  C   UNL     1      28.141 -23.566 -16.935  0.00  0.00    +0.091 C 
ATOM     21  C   UNL     1      26.912 -22.994 -17.155  0.00  0.00    +0.040 C 
ATOM     22  C   UNL     1      26.653 -22.253 -15.987  0.00  0.00    +0.120 C 
ENDBRANCH  15  18
ENDBRANCH  11  12
ENDBRANCH   1  11
BRANCH   1  23
ATOM     23  C   UNL     1      34.747 -24.726 -15.158  0.00  0.00    +0.123 C 
BRANCH  23  24
ATOM     24  C   UNL     1      34.531 -23.803 -16.324  0.00  0.00    -0.001 C 
ATOM     25  C   UNL     1      35.570 -22.986 -16.769  0.00  0.00    +0.034 C 
ATOM     26  C   UNL     1      33.291 -23.764 -16.963  0.00  0.00    -0.003 C 
ATOM     27  C   UNL     1      35.369 -22.130 -17.851  0.00  0.00    +0.139 C 
ATOM     28  C   UNL     1      33.090 -22.908 -18.045  0.00  0.00    +0.003 C 
ATOM     29  C   UNL     1      34.130 -22.091 -18.490  0.00  0.00    +0.037 C 
BRANCH  27  30
ATOM     30  O   UNL     1      36.382 -21.330 -18.284  0.00  0.00    -0.464 OA
BRANCH  30  31
ATOM     31  C   UNL     1      36.608 -21.272 -19.692  0.00  0.00    +0.314 C 
BRANCH  31  33
ATOM     32  O   UNL     1      37.550 -19.079 -20.147  0.00  0.00    -0.246 OA
ATOM     33  C   UNL     1      36.595 -19.841 -20.150  0.00  0.00    +0.359 C 
BRANCH  33  34
ATOM     34  O   UNL     1      35.354 -19.499 -20.579  0.00  0.00    -0.478 OA
ATOM     35  H   UNL     1      34.688 -19.276 -19.959  0.00  0.00    +0.295 HD
ENDBRANCH  33  34
ENDBRANCH  31  33
ENDBRANCH  30  31
ENDBRANCH  27  30
ENDBRANCH  23  24
ENDBRANCH   1  23
TORSDOF 11
ENDMDL
MODEL 8
REMARK VINA RESULT:      -9.6      2.455      4.907
REMARK  Name = 18376177
REMARK  11 active torsions:
REMARK  status: ('A' for Active; 'I' for Inactive)
REMARK    1  A    between atoms: N_1  and  S_2
REMARK    2  A    between atoms: N_1  and  C_11
REMARK    3  A    between atoms: N_1  and  C_23
REMARK    4  A    between atoms: S_2  and  C_6
REMARK    5  A    between atoms: C_11  and  C_12
REMARK    6  A    between atoms: C_15  and  N_18
REMARK    7  A    between atoms: C_23  and  C_24
REMARK    8  A    between atoms: C_27  and  O_30
REMARK    9  A    between atoms: O_30  and  C_31
REMARK   10  A    between atoms: C_31  and  C_33
REMARK   11  A    between atoms: C_33  and  O_34
REMARK                            x       y       z     vdW  Elec       q    Type
REMARK                         _______ _______ _______ _____ _____    ______ ____
ROOT
ATOM      1  N   UNL     1      34.446 -23.494 -16.807  0.00  0.00    -0.147 NA
ENDROOT
BRANCH   1   2
ATOM      2  S   UNL     1      35.923 -22.866 -16.179  0.00  0.00    +0.065 S 
ATOM      3  O   UNL     1      35.634 -21.803 -15.234  0.00  0.00    -0.153 OA
ATOM      4  O   UNL     1      36.846 -22.617 -17.272  0.00  0.00    -0.153 OA
BRANCH   2   6
ATOM      5  N   UNL     1      38.248 -25.105 -13.755  0.00  0.00    -0.241 NA
ATOM      6  C   UNL     1      36.563 -24.234 -15.254  0.00  0.00    +0.141 C 
ATOM      7  C   UNL     1      35.932 -25.472 -15.277  0.00  0.00    +0.023 C 
ATOM      8  C   UNL     1      37.708 -24.103 -14.484  0.00  0.00    +0.119 C 
ATOM      9  C   UNL     1      36.456 -26.527 -14.540  0.00  0.00    +0.022 C 
ATOM     10  C   UNL     1      37.606 -26.294 -13.801  0.00  0.00    +0.099 C 
ENDBRANCH   2   6
ENDBRANCH   1   2
BRANCH   1  11
ATOM     11  C   UNL     1      34.364 -23.748 -18.268  0.00  0.00    +0.122 C 
BRANCH  11  12
ATOM     12  C   UNL     1      34.513 -22.489 -19.074  0.00  0.00    -0.004 C 
ATOM     13  C   UNL     1      35.776 -22.077 -19.498  0.00  0.00    -0.002 C 
ATOM     14  C   UNL     1      33.387 -21.732 -19.400  0.00  0.00    -0.002 C 
ATOM     15  C   UNL     1      34.789 -20.150 -20.570  0.00  0.00    +0.074 C 
ATOM     16  C   UNL     1      35.914 -20.907 -20.245  0.00  0.00    +0.016 C 
ATOM     17  C   UNL     1      33.525 -20.563 -20.147  0.00  0.00    +0.016 C 
BRANCH  15  18
ATOM     18  N   UNL     1      34.926 -18.991 -21.312  0.00  0.00    -0.189 N 
ATOM     19  N   UNL     1      35.263 -17.836 -20.714  0.00  0.00    -0.172 NA
ATOM     20  C   UNL     1      34.752 -18.884 -22.660  0.00  0.00    +0.091 C 
ATOM     21  C   UNL     1      34.990 -17.567 -22.966  0.00  0.00    +0.040 C 
ATOM     22  C   UNL     1      35.300 -16.969 -21.731  0.00  0.00    +0.120 C 
ENDBRANCH  15  18
ENDBRANCH  11  12
ENDBRANCH   1  11
BRANCH   1  23
ATOM     23  C   UNL     1      33.175 -22.945 -16.268  0.00  0.00    +0.123 C 
BRANCH  23  24
ATOM     24  C   UNL     1      32.668 -23.733 -15.092  0.00  0.00    -0.001 C 
ATOM     25  C   UNL     1      33.513 -24.003 -14.017  0.00  0.00    +0.034 C 
ATOM     26  C   UNL     1      31.351 -24.194 -15.077  0.00  0.00    -0.003 C 
ATOM     27  C   UNL     1      33.043 -24.734 -12.926  0.00  0.00    +0.139 C 
ATOM     28  C   UNL     1      30.881 -24.925 -13.987  0.00  0.00    +0.003 C 
ATOM     29  C   UNL     1      31.727 -25.195 -12.911  0.00  0.00    +0.037 C 
BRANCH  27  30
ATOM     30  O   UNL     1      33.869 -25.000 -11.878  0.00  0.00    -0.464 OA
BRANCH  30  31
ATOM     31  C   UNL     1      35.087 -24.261 -11.805  0.00  0.00    +0.314 C 
BRANCH  31  33
ATOM     32  O   UNL     1      35.345 -24.788  -9.448  0.00  0.00    -0.246 OA
ATOM     33  C   UNL     1      35.835 -24.634 -10.556  0.00  0.00    +0.359 C 
BRANCH  33  34
ATOM     34  O   UNL     1      37.156 -24.780 -10.828  0.00  0.00    -0.478 OA
ATOM     35  H   UNL     1      37.790 -24.673 -10.146  0.00  0.00    +0.295 HD
ENDBRANCH  33  34
ENDBRANCH  31  33
ENDBRANCH  30  31
ENDBRANCH  27  30
ENDBRANCH  23  24
ENDBRANCH   1  23
TORSDOF 11
ENDMDL
MODEL 9
REMARK VINA RESULT:      -9.5      1.732      2.307
REMARK  Name = 18376177
REMARK  11 active torsions:
REMARK  status: ('A' for Active; 'I' for Inactive)
REMARK    1  A    between atoms: N_1  and  S_2
REMARK    2  A    between atoms: N_1  and  C_11
REMARK    3  A    between atoms: N_1  and  C_23
REMARK    4  A    between atoms: S_2  and  C_6
REMARK    5  A    between atoms: C_11  and  C_12
REMARK    6  A    between atoms: C_15  and  N_18
REMARK    7  A    between atoms: C_23  and  C_24
REMARK    8  A    between atoms: C_27  and  O_30
REMARK    9  A    between atoms: O_30  and  C_31
REMARK   10  A    between atoms: C_31  and  C_33
REMARK   11  A    between atoms: C_33  and  O_34
REMARK                            x       y       z     vdW  Elec       q    Type
REMARK                         _______ _______ _______ _____ _____    ______ ____
ROOT
ATOM      1  N   UNL     1      34.717 -22.848 -16.520  0.00  0.00    -0.147 NA
ENDROOT
BRANCH   1   2
ATOM      2  S   UNL     1      33.806 -24.306 -16.653  0.00  0.00    +0.065 S 
ATOM      3  O   UNL     1      34.449 -25.350 -15.876  0.00  0.00    -0.153 OA
ATOM      4  O   UNL     1      33.484 -24.549 -18.047  0.00  0.00    -0.153 OA
BRANCH   2   6
ATOM      5  N   UNL     1      30.176 -22.727 -15.863  0.00  0.00    -0.241 NA
ATOM      6  C   UNL     1      32.294 -23.893 -15.829  0.00  0.00    +0.141 C 
ATOM      7  C   UNL     1      32.017 -24.375 -14.555  0.00  0.00    +0.023 C 
ATOM      8  C   UNL     1      31.349 -23.080 -16.434  0.00  0.00    +0.119 C 
ATOM      9  C   UNL     1      30.821 -24.035 -13.934  0.00  0.00    +0.022 C 
ATOM     10  C   UNL     1      29.941 -23.215 -14.624  0.00  0.00    +0.099 C 
ENDBRANCH   2   6
ENDBRANCH   1   2
BRANCH   1  11
ATOM     11  C   UNL     1      35.926 -22.705 -17.370  0.00  0.00    +0.122 C 
BRANCH  11  12
ATOM     12  C   UNL     1      35.695 -21.791 -18.540  0.00  0.00    -0.004 C 
ATOM     13  C   UNL     1      34.409 -21.630 -19.055  0.00  0.00    -0.002 C 
ATOM     14  C   UNL     1      36.766 -21.104 -19.111  0.00  0.00    -0.002 C 
ATOM     15  C   UNL     1      35.267 -20.096 -20.715  0.00  0.00    +0.074 C 
ATOM     16  C   UNL     1      34.195 -20.782 -20.143  0.00  0.00    +0.016 C 
ATOM     17  C   UNL     1      36.552 -20.257 -20.198  0.00  0.00    +0.016 C 
BRANCH  15  18
ATOM     18  N   UNL     1      35.053 -19.255 -21.791  0.00  0.00    -0.189 N 
ATOM     19  N   UNL     1      35.305 -17.939 -21.686  0.00  0.00    -0.172 NA
ATOM     20  C   UNL     1      34.594 -19.633 -23.018  0.00  0.00    +0.091 C 
ATOM     21  C   UNL     1      34.540 -18.484 -23.769  0.00  0.00    +0.040 C 
ATOM     22  C   UNL     1      34.988 -17.473 -22.899  0.00  0.00    +0.120 C 
ENDBRANCH  15  18
ENDBRANCH  11  12
ENDBRANCH   1  11
BRANCH   1  23
ATOM     23  C   UNL     1      34.922 -22.280 -15.163  0.00  0.00    +0.123 C 
BRANCH  23  24
ATOM     24  C   UNL     1      35.631 -23.238 -14.246  0.00  0.00    -0.001 C 
ATOM     25  C   UNL     1      36.973 -23.548 -14.464  0.00  0.00    +0.034 C 
ATOM     26  C   UNL     1      34.946 -23.816 -13.177  0.00  0.00    -0.003 C 
ATOM     27  C   UNL     1      37.630 -24.437 -13.614  0.00  0.00    +0.139 C 
ATOM     28  C   UNL     1      35.603 -24.705 -12.327  0.00  0.00    +0.003 C 
ATOM     29  C   UNL     1      36.946 -25.015 -12.545  0.00  0.00    +0.037 C 
BRANCH  27  30
ATOM     30  O   UNL     1      38.939 -24.742 -13.828  0.00  0.00    -0.464 OA
BRANCH  30  31
ATOM     31  C   UNL     1      39.396 -26.011 -13.360  0.00  0.00    +0.314 C 
BRANCH  31  33
ATOM     32  O   UNL     1      41.482 -27.147 -13.868  0.00  0.00    -0.246 OA
ATOM     33  C   UNL     1      40.511 -26.506 -14.239  0.00  0.00    +0.359 C 
BRANCH  33  34
ATOM     34  O   UNL     1      40.291 -26.138 -15.526  0.00  0.00    -0.478 OA
ATOM     35  H   UNL     1      40.972 -25.724 -16.019  0.00  0.00    +0.295 HD
ENDBRANCH  33  34
ENDBRANCH  31  33
ENDBRANCH  30  31
ENDBRANCH  27  30
ENDBRANCH  23  24
ENDBRANCH   1  23
TORSDOF 11
ENDMDL
