MODEL 1
REMARK VINA RESULT:     -12.5      0.000      0.000
REMARK  Name = 11282283
REMARK  4 active torsions:
REMARK  status: ('A' for Active; 'I' for Inactive)
REMARK    1  A    between atoms: N_3  and  C_21
REMARK    2  A    between atoms: C_21  and  N_22
REMARK    3  A    between atoms: N_22  and  C_24
REMARK    4  A    between atoms: C_24  and  C_27
REMARK                            x       y       z     vdW  Elec       q    Type
REMARK                         _______ _______ _______ _____ _____    ______ ____
ROOT
ATOM      1  O   UNL     1      34.133 -10.264 -23.290  0.00  0.00    -0.466 OA
ATOM      2  N   UNL     1      33.024 -12.813 -22.326  0.00  0.00    -0.290 N 
ATOM      3  N   UNL     1      34.222 -15.378 -22.850  0.00  0.00    -0.288 N 
ATOM      4  N   UNL     1      31.304 -11.471 -21.352  0.00  0.00    -0.230 NA
ATOM      5  N   UNL     1      31.285  -9.039 -21.575  0.00  0.00    -0.245 NA
ATOM      6  C   UNL     1      32.878 -13.918 -21.373  0.00  0.00    +0.113 C 
ATOM      7  C   UNL     1      33.795 -13.045 -23.552  0.00  0.00    +0.113 C 
ATOM      8  C   UNL     1      34.050 -14.891 -21.489  0.00  0.00    +0.114 C 
ATOM      9  C   UNL     1      33.768 -14.523 -23.936  0.00  0.00    +0.114 C 
ATOM     10  C   UNL     1      32.441 -11.572 -22.074  0.00  0.00    +0.152 C 
ATOM     11  C   UNL     1      33.004 -10.406 -22.549  0.00  0.00    +0.258 C 
ATOM     12  C   UNL     1      32.425  -9.170 -22.297  0.00  0.00    +0.106 C 
ATOM     13  C   UNL     1      33.254  -8.204 -22.924  0.00  0.00    +0.051 C 
ATOM     14  C   UNL     1      34.287  -8.927 -23.519  0.00  0.00    +0.141 C 
ATOM     15  C   UNL     1      30.803 -10.228 -21.150  0.00  0.00    +0.251 C 
ATOM     16  C   UNL     1      33.249  -6.805 -23.057  0.00  0.00    +0.004 C 
ATOM     17  C   UNL     1      35.326  -8.345 -24.244  0.00  0.00    +0.037 C 
ATOM     18  C   UNL     1      34.282  -6.194 -23.781  0.00  0.00    +0.000 C 
ATOM     19  C   UNL     1      35.300  -6.953 -24.363  0.00  0.00    +0.003 C 
ENDROOT
BRANCH   3  21
ATOM     20  S   UNL     1      34.518 -17.389 -24.540  0.00  0.00    -0.019 S 
ATOM     21  C   UNL     1      34.785 -16.588 -23.095  0.00  0.00    +0.135 C 
BRANCH  21  22
ATOM     22  N   UNL     1      35.581 -17.130 -22.119  0.00  0.00    -0.312 N 
ATOM     23  H   UNL     1      35.655 -16.631 -21.274  0.00  0.00    +0.149 HD
BRANCH  22  24
ATOM     24  C   UNL     1      36.323 -18.372 -22.216  0.00  0.00    +0.116 C 
BRANCH  24  27
ATOM     25  O   UNL     1      32.773 -20.968 -19.973  0.00  0.00    -0.435 OA
ATOM     26  O   UNL     1      34.354 -22.175 -18.613  0.00  0.00    -0.435 OA
ATOM     27  C   UNL     1      35.829 -19.400 -21.240  0.00  0.00    +0.001 C 
ATOM     28  C   UNL     1      34.463 -19.641 -21.132  0.00  0.00    +0.038 C 
ATOM     29  C   UNL     1      36.755 -20.098 -20.452  0.00  0.00    +0.001 C 
ATOM     30  C   UNL     1      34.058 -20.595 -20.221  0.00  0.00    +0.176 C 
ATOM     31  C   UNL     1      34.960 -21.285 -19.445  0.00  0.00    +0.176 C 
ATOM     32  C   UNL     1      36.319 -21.058 -19.537  0.00  0.00    +0.040 C 
ATOM     33  C   UNL     1      32.968 -21.970 -18.954  0.00  0.00    +0.429 C 
ENDBRANCH  24  27
ENDBRANCH  22  24
ENDBRANCH  21  22
ENDBRANCH   3  21
TORSDOF 4
ENDMDL
MODEL 2
REMARK VINA RESULT:     -11.7      3.273     10.683
REMARK  Name = 11282283
REMARK  4 active torsions:
REMARK  status: ('A' for Active; 'I' for Inactive)
REMARK    1  A    between atoms: N_3  and  C_21
REMARK    2  A    between atoms: C_21  and  N_22
REMARK    3  A    between atoms: N_22  and  C_24
REMARK    4  A    between atoms: C_24  and  C_27
REMARK                            x       y       z     vdW  Elec       q    Type
REMARK                         _______ _______ _______ _____ _____    ______ ____
ROOT
ATOM      1  O   UNL     1      34.150 -15.134 -22.024  0.00  0.00    -0.466 OA
ATOM      2  N   UNL     1      32.861 -12.684 -23.021  0.00  0.00    -0.290 N 
ATOM      3  N   UNL     1      32.120 -10.468 -21.339  0.00  0.00    -0.288 N 
ATOM      4  N   UNL     1      32.983 -13.727 -25.168  0.00  0.00    -0.230 NA
ATOM      5  N   UNL     1      33.955 -15.948 -25.467  0.00  0.00    -0.245 NA
ATOM      6  C   UNL     1      32.846 -11.314 -23.547  0.00  0.00    +0.113 C 
ATOM      7  C   UNL     1      32.490 -12.898 -21.618  0.00  0.00    +0.113 C 
ATOM      8  C   UNL     1      33.074 -10.303 -22.425  0.00  0.00    +0.114 C 
ATOM      9  C   UNL     1      31.555 -11.793 -21.132  0.00  0.00    +0.114 C 
ATOM     10  C   UNL     1      33.217 -13.756 -23.837  0.00  0.00    +0.152 C 
ATOM     11  C   UNL     1      33.821 -14.882 -23.318  0.00  0.00    +0.258 C 
ATOM     12  C   UNL     1      34.177 -15.950 -24.129  0.00  0.00    +0.106 C 
ATOM     13  C   UNL     1      34.764 -16.922 -23.279  0.00  0.00    +0.051 C 
ATOM     14  C   UNL     1      34.724 -16.372 -21.998  0.00  0.00    +0.141 C 
ATOM     15  C   UNL     1      33.361 -14.809 -25.890  0.00  0.00    +0.251 C 
ATOM     16  C   UNL     1      35.324 -18.200 -23.444  0.00  0.00    +0.004 C 
ATOM     17  C   UNL     1      35.207 -17.015 -20.860  0.00  0.00    +0.037 C 
ATOM     18  C   UNL     1      35.818 -18.870 -22.316  0.00  0.00    +0.000 C 
ATOM     19  C   UNL     1      35.760 -18.286 -21.048  0.00  0.00    +0.003 C 
ENDROOT
BRANCH   3  21
ATOM     20  S   UNL     1      31.507  -9.629 -18.908  0.00  0.00    -0.019 S 
ATOM     21  C   UNL     1      31.770  -9.423 -20.548  0.00  0.00    +0.135 C 
BRANCH  21  22
ATOM     22  N   UNL     1      31.641  -8.191 -21.138  0.00  0.00    -0.312 N 
ATOM     23  H   UNL     1      30.900  -8.076 -21.775  0.00  0.00    +0.149 HD
BRANCH  22  24
ATOM     24  C   UNL     1      32.496  -7.043 -20.909  0.00  0.00    +0.116 C 
BRANCH  24  27
ATOM     25  O   UNL     1      33.201  -4.460 -25.058  0.00  0.00    -0.435 OA
ATOM     26  O   UNL     1      35.296  -5.556 -25.522  0.00  0.00    -0.435 OA
ATOM     27  C   UNL     1      33.273  -6.668 -22.138  0.00  0.00    +0.001 C 
ATOM     28  C   UNL     1      32.773  -5.691 -22.993  0.00  0.00    +0.038 C 
ATOM     29  C   UNL     1      34.491  -7.310 -22.401  0.00  0.00    +0.001 C 
ATOM     30  C   UNL     1      33.523  -5.380 -24.109  0.00  0.00    +0.176 C 
ATOM     31  C   UNL     1      34.720  -6.006 -24.374  0.00  0.00    +0.176 C 
ATOM     32  C   UNL     1      35.232  -6.978 -23.538  0.00  0.00    +0.040 C 
ATOM     33  C   UNL     1      34.329  -4.575 -25.949  0.00  0.00    +0.429 C 
ENDBRANCH  24  27
ENDBRANCH  22  24
ENDBRANCH  21  22
ENDBRANCH   3  21
TORSDOF 4
ENDMDL
MODEL 3
REMARK VINA RESULT:     -11.6      5.180     12.555
REMARK  Name = 11282283
REMARK  4 active torsions:
REMARK  status: ('A' for Active; 'I' for Inactive)
REMARK    1  A    between atoms: N_3  and  C_21
REMARK    2  A    between atoms: C_21  and  N_22
REMARK    3  A    between atoms: N_22  and  C_24
REMARK    4  A    between atoms: C_24  and  C_27
REMARK                            x       y       z     vdW  Elec       q    Type
REMARK                         _______ _______ _______ _____ _____    ______ ____
ROOT
ATOM      1  O   UNL     1      33.044 -23.200 -16.052  0.00  0.00    -0.466 OA
ATOM      2  N   UNL     1      35.645 -22.585 -17.283  0.00  0.00    -0.290 N 
ATOM      3  N   UNL     1      35.968 -20.852 -19.559  0.00  0.00    -0.288 N 
ATOM      4  N   UNL     1      36.558 -24.021 -15.604  0.00  0.00    -0.230 NA
ATOM      5  N   UNL     1      35.144 -25.125 -13.947  0.00  0.00    -0.245 NA
ATOM      6  C   UNL     1      36.874 -21.805 -17.464  0.00  0.00    +0.113 C 
ATOM      7  C   UNL     1      34.584 -22.461 -18.288  0.00  0.00    +0.113 C 
ATOM      8  C   UNL     1      36.599 -20.545 -18.283  0.00  0.00    +0.114 C 
ATOM      9  C   UNL     1      35.168 -22.064 -19.643  0.00  0.00    +0.114 C 
ATOM     10  C   UNL     1      35.490 -23.426 -16.182  0.00  0.00    +0.152 C 
ATOM     11  C   UNL     1      34.247 -23.680 -15.643  0.00  0.00    +0.258 C 
ATOM     12  C   UNL     1      34.092 -24.516 -14.546  0.00  0.00    +0.106 C 
ATOM     13  C   UNL     1      32.703 -24.552 -14.262  0.00  0.00    +0.051 C 
ATOM     14  C   UNL     1      32.104 -23.728 -15.215  0.00  0.00    +0.141 C 
ATOM     15  C   UNL     1      36.322 -24.822 -14.538  0.00  0.00    +0.251 C 
ATOM     16  C   UNL     1      31.883 -25.185 -13.312  0.00  0.00    +0.004 C 
ATOM     17  C   UNL     1      30.733 -23.489 -15.285  0.00  0.00    +0.037 C 
ATOM     18  C   UNL     1      30.500 -24.962 -13.360  0.00  0.00    +0.000 C 
ATOM     19  C   UNL     1      29.938 -24.129 -14.330  0.00  0.00    +0.003 C 
ENDROOT
BRANCH   3  21
ATOM     20  S   UNL     1      37.585 -19.285 -20.944  0.00  0.00    -0.019 S 
ATOM     21  C   UNL     1      36.123 -20.036 -20.631  0.00  0.00    +0.135 C 
BRANCH  21  22
ATOM     22  N   UNL     1      35.039 -19.849 -21.451  0.00  0.00    -0.312 N 
ATOM     23  H   UNL     1      34.148 -19.913 -21.036  0.00  0.00    +0.149 HD
BRANCH  22  24
ATOM     24  C   UNL     1      35.083 -19.564 -22.872  0.00  0.00    +0.116 C 
BRANCH  24  27
ATOM     25  O   UNL     1      33.433 -15.901 -25.741  0.00  0.00    -0.435 OA
ATOM     26  O   UNL     1      33.939 -14.222 -24.089  0.00  0.00    -0.435 OA
ATOM     27  C   UNL     1      34.789 -18.122 -23.166  0.00  0.00    +0.001 C 
ATOM     28  C   UNL     1      34.227 -17.773 -24.390  0.00  0.00    +0.038 C 
ATOM     29  C   UNL     1      35.086 -17.151 -22.199  0.00  0.00    +0.001 C 
ATOM     30  C   UNL     1      33.974 -16.435 -24.613  0.00  0.00    +0.176 C 
ATOM     31  C   UNL     1      34.263 -15.476 -23.669  0.00  0.00    +0.176 C 
ATOM     32  C   UNL     1      34.820 -15.803 -22.449  0.00  0.00    +0.040 C 
ATOM     33  C   UNL     1      33.412 -14.500 -25.402  0.00  0.00    +0.429 C 
ENDBRANCH  24  27
ENDBRANCH  22  24
ENDBRANCH  21  22
ENDBRANCH   3  21
TORSDOF 4
ENDMDL
MODEL 4
REMARK VINA RESULT:     -10.8      4.723     12.477
REMARK  Name = 11282283
REMARK  4 active torsions:
REMARK  status: ('A' for Active; 'I' for Inactive)
REMARK    1  A    between atoms: N_3  and  C_21
REMARK    2  A    between atoms: C_21  and  N_22
REMARK    3  A    between atoms: N_22  and  C_24
REMARK    4  A    between atoms: C_24  and  C_27
REMARK                            x       y       z     vdW  Elec       q    Type
REMARK                         _______ _______ _______ _____ _____    ______ ____
ROOT
ATOM      1  O   UNL     1      33.086 -23.125 -16.083  0.00  0.00    -0.466 OA
ATOM      2  N   UNL     1      35.669 -22.504 -17.346  0.00  0.00    -0.290 N 
ATOM      3  N   UNL     1      35.957 -20.798 -19.647  0.00  0.00    -0.288 N 
ATOM      4  N   UNL     1      36.610 -23.911 -15.658  0.00  0.00    -0.230 NA
ATOM      5  N   UNL     1      35.221 -25.006 -13.973  0.00  0.00    -0.245 NA
ATOM      6  C   UNL     1      36.890 -21.716 -17.549  0.00  0.00    +0.113 C 
ATOM      7  C   UNL     1      34.598 -22.402 -18.343  0.00  0.00    +0.113 C 
ATOM      8  C   UNL     1      36.596 -20.470 -18.382  0.00  0.00    +0.114 C 
ATOM      9  C   UNL     1      35.165 -22.018 -19.708  0.00  0.00    +0.114 C 
ATOM     10  C   UNL     1      35.532 -23.333 -16.234  0.00  0.00    +0.152 C 
ATOM     11  C   UNL     1      34.296 -23.590 -15.679  0.00  0.00    +0.258 C 
ATOM     12  C   UNL     1      34.158 -24.413 -14.570  0.00  0.00    +0.106 C 
ATOM     13  C   UNL     1      32.772 -24.457 -14.272  0.00  0.00    +0.051 C 
ATOM     14  C   UNL     1      32.158 -23.649 -15.230  0.00  0.00    +0.141 C 
ATOM     15  C   UNL     1      36.391 -24.701 -14.579  0.00  0.00    +0.251 C 
ATOM     16  C   UNL     1      31.967 -25.084 -13.306  0.00  0.00    +0.004 C 
ATOM     17  C   UNL     1      30.784 -23.422 -15.290  0.00  0.00    +0.037 C 
ATOM     18  C   UNL     1      30.582 -24.873 -13.344  0.00  0.00    +0.000 C 
ATOM     19  C   UNL     1      30.003 -24.057 -14.319  0.00  0.00    +0.003 C 
ENDROOT
BRANCH   3  21
ATOM     20  S   UNL     1      37.528 -19.189 -21.035  0.00  0.00    -0.019 S 
ATOM     21  C   UNL     1      36.094 -19.995 -20.731  0.00  0.00    +0.135 C 
BRANCH  21  22
ATOM     22  N   UNL     1      35.016 -19.868 -21.571  0.00  0.00    -0.312 N 
ATOM     23  H   UNL     1      34.124 -19.988 -21.174  0.00  0.00    +0.149 HD
BRANCH  22  24
ATOM     24  C   UNL     1      35.071 -19.572 -22.989  0.00  0.00    +0.116 C 
BRANCH  24  27
ATOM     25  O   UNL     1      34.813 -14.792 -21.780  0.00  0.00    -0.435 OA
ATOM     26  O   UNL     1      33.919 -14.176 -23.931  0.00  0.00    -0.435 OA
ATOM     27  C   UNL     1      34.751 -18.133 -23.276  0.00  0.00    +0.001 C 
ATOM     28  C   UNL     1      34.975 -17.173 -22.294  0.00  0.00    +0.038 C 
ATOM     29  C   UNL     1      34.231 -17.783 -24.529  0.00  0.00    +0.001 C 
ATOM     30  C   UNL     1      34.666 -15.865 -22.604  0.00  0.00    +0.176 C 
ATOM     31  C   UNL     1      34.156 -15.513 -23.833  0.00  0.00    +0.176 C 
ATOM     32  C   UNL     1      33.926 -16.451 -24.819  0.00  0.00    +0.040 C 
ATOM     33  C   UNL     1      34.339 -13.726 -22.628  0.00  0.00    +0.429 C 
ENDBRANCH  24  27
ENDBRANCH  22  24
ENDBRANCH  21  22
ENDBRANCH   3  21
TORSDOF 4
ENDMDL
MODEL 5
REMARK VINA RESULT:     -10.7      3.214      5.160
REMARK  Name = 11282283
REMARK  4 active torsions:
REMARK  status: ('A' for Active; 'I' for Inactive)
REMARK    1  A    between atoms: N_3  and  C_21
REMARK    2  A    between atoms: C_21  and  N_22
REMARK    3  A    between atoms: N_22  and  C_24
REMARK    4  A    between atoms: C_24  and  C_27
REMARK                            x       y       z     vdW  Elec       q    Type
REMARK                         _______ _______ _______ _____ _____    ______ ____
ROOT
ATOM      1  O   UNL     1      33.295 -14.533 -21.662  0.00  0.00    -0.466 OA
ATOM      2  N   UNL     1      34.553 -16.923 -22.828  0.00  0.00    -0.290 N 
ATOM      3  N   UNL     1      35.318 -19.237 -21.295  0.00  0.00    -0.288 N 
ATOM      4  N   UNL     1      34.394 -15.754 -24.906  0.00  0.00    -0.230 NA
ATOM      5  N   UNL     1      33.426 -13.516 -25.053  0.00  0.00    -0.245 NA
ATOM      6  C   UNL     1      34.552 -18.259 -23.434  0.00  0.00    +0.113 C 
ATOM      7  C   UNL     1      34.952 -16.794 -21.422  0.00  0.00    +0.113 C 
ATOM      8  C   UNL     1      34.342 -19.335 -22.370  0.00  0.00    +0.114 C 
ATOM      9  C   UNL     1      35.893 -17.929 -21.021  0.00  0.00    +0.114 C 
ATOM     10  C   UNL     1      34.186 -15.803 -23.571  0.00  0.00    +0.152 C 
ATOM     11  C   UNL     1      33.597 -14.708 -22.974  0.00  0.00    +0.258 C 
ATOM     12  C   UNL     1      33.230 -13.593 -23.714  0.00  0.00    +0.106 C 
ATOM     13  C   UNL     1      32.664 -12.671 -22.796  0.00  0.00    +0.051 C 
ATOM     14  C   UNL     1      32.727 -13.296 -21.551  0.00  0.00    +0.141 C 
ATOM     15  C   UNL     1      34.006 -14.630 -25.555  0.00  0.00    +0.251 C 
ATOM     16  C   UNL     1      32.106 -11.384 -22.874  0.00  0.00    +0.004 C 
ATOM     17  C   UNL     1      32.269 -12.720 -20.367  0.00  0.00    +0.037 C 
ATOM     18  C   UNL     1      31.637 -10.781 -21.698  0.00  0.00    +0.000 C 
ATOM     19  C   UNL     1      31.718 -11.439 -20.469  0.00  0.00    +0.003 C 
ENDROOT
BRANCH   3  21
ATOM     20  S   UNL     1      37.187 -20.431 -19.856  0.00  0.00    -0.019 S 
ATOM     21  C   UNL     1      35.679 -20.328 -20.574  0.00  0.00    +0.135 C 
BRANCH  21  22
ATOM     22  N   UNL     1      34.764 -21.343 -20.452  0.00  0.00    -0.312 N 
ATOM     23  H   UNL     1      34.922 -22.154 -20.987  0.00  0.00    +0.149 HD
BRANCH  22  24
ATOM     24  C   UNL     1      33.586 -21.333 -19.607  0.00  0.00    +0.116 C 
BRANCH  24  27
ATOM     25  O   UNL     1      36.337 -23.343 -16.034  0.00  0.00    -0.435 OA
ATOM     26  O   UNL     1      34.430 -24.384 -14.992  0.00  0.00    -0.435 OA
ATOM     27  C   UNL     1      33.777 -22.158 -18.367  0.00  0.00    +0.001 C 
ATOM     28  C   UNL     1      35.054 -22.311 -17.836  0.00  0.00    +0.038 C 
ATOM     29  C   UNL     1      32.663 -22.760 -17.767  0.00  0.00    +0.001 C 
ATOM     30  C   UNL     1      35.178 -23.078 -16.696  0.00  0.00    +0.176 C 
ATOM     31  C   UNL     1      34.089 -23.672 -16.101  0.00  0.00    +0.176 C 
ATOM     32  C   UNL     1      32.815 -23.532 -16.613  0.00  0.00    +0.040 C 
ATOM     33  C   UNL     1      35.855 -24.170 -14.955  0.00  0.00    +0.429 C 
ENDBRANCH  24  27
ENDBRANCH  22  24
ENDBRANCH  21  22
ENDBRANCH   3  21
TORSDOF 4
ENDMDL
MODEL 6
REMARK VINA RESULT:     -10.5      4.364      6.625
REMARK  Name = 11282283
REMARK  4 active torsions:
REMARK  status: ('A' for Active; 'I' for Inactive)
REMARK    1  A    between atoms: N_3  and  C_21
REMARK    2  A    between atoms: C_21  and  N_22
REMARK    3  A    between atoms: N_22  and  C_24
REMARK    4  A    between atoms: C_24  and  C_27
REMARK                            x       y       z     vdW  Elec       q    Type
REMARK                         _______ _______ _______ _____ _____    ______ ____
ROOT
ATOM      1  O   UNL     1      33.279  -6.554 -25.259  0.00  0.00    -0.466 OA
ATOM      2  N   UNL     1      31.662  -6.751 -22.809  0.00  0.00    -0.290 N 
ATOM      3  N   UNL     1      31.613  -9.071 -21.106  0.00  0.00    -0.288 N 
ATOM      4  N   UNL     1      30.938  -4.537 -23.345  0.00  0.00    -0.230 NA
ATOM      5  N   UNL     1      31.747  -3.361 -25.326  0.00  0.00    -0.245 NA
ATOM      6  C   UNL     1      31.417  -6.619 -21.369  0.00  0.00    +0.113 C 
ATOM      7  C   UNL     1      31.882  -8.092 -23.362  0.00  0.00    +0.113 C 
ATOM      8  C   UNL     1      32.055  -7.778 -20.605  0.00  0.00    +0.114 C 
ATOM      9  C   UNL     1      31.199  -9.150 -22.498  0.00  0.00    +0.114 C 
ATOM     10  C   UNL     1      31.682  -5.628 -23.635  0.00  0.00    +0.152 C 
ATOM     11  C   UNL     1      32.460  -5.587 -24.772  0.00  0.00    +0.258 C 
ATOM     12  C   UNL     1      32.482  -4.468 -25.593  0.00  0.00    +0.106 C 
ATOM     13  C   UNL     1      33.374  -4.767 -26.655  0.00  0.00    +0.051 C 
ATOM     14  C   UNL     1      33.837  -6.059 -26.403  0.00  0.00    +0.141 C 
ATOM     15  C   UNL     1      31.016  -3.486 -24.196  0.00  0.00    +0.251 C 
ATOM     16  C   UNL     1      33.843  -4.097 -27.797  0.00  0.00    +0.004 C 
ATOM     17  C   UNL     1      34.743  -6.734 -27.219  0.00  0.00    +0.037 C 
ATOM     18  C   UNL     1      34.755  -4.752 -28.636  0.00  0.00    +0.000 C 
ATOM     19  C   UNL     1      35.195  -6.047 -28.350  0.00  0.00    +0.003 C 
ENDROOT
BRANCH   3  21
ATOM     20  S   UNL     1      31.364 -10.018 -18.651  0.00  0.00    -0.019 S 
ATOM     21  C   UNL     1      31.589 -10.163 -20.302  0.00  0.00    +0.135 C 
BRANCH  21  22
ATOM     22  N   UNL     1      31.754 -11.392 -20.891  0.00  0.00    -0.312 N 
ATOM     23  H   UNL     1      31.523 -11.464 -21.845  0.00  0.00    +0.149 HD
BRANCH  22  24
ATOM     24  C   UNL     1      32.238 -12.592 -20.238  0.00  0.00    +0.116 C 
BRANCH  24  27
ATOM     25  O   UNL     1      33.054 -14.454 -24.737  0.00  0.00    -0.435 OA
ATOM     26  O   UNL     1      34.726 -15.988 -23.926  0.00  0.00    -0.435 OA
ATOM     27  C   UNL     1      32.926 -13.517 -21.200  0.00  0.00    +0.001 C 
ATOM     28  C   UNL     1      32.588 -13.476 -22.549  0.00  0.00    +0.038 C 
ATOM     29  C   UNL     1      33.898 -14.406 -20.721  0.00  0.00    +0.001 C 
ATOM     30  C   UNL     1      33.247 -14.345 -23.395  0.00  0.00    +0.176 C 
ATOM     31  C   UNL     1      34.202 -15.221 -22.932  0.00  0.00    +0.176 C 
ATOM     32  C   UNL     1      34.550 -15.276 -21.597  0.00  0.00    +0.040 C 
ATOM     33  C   UNL     1      33.995 -15.495 -25.068  0.00  0.00    +0.429 C 
ENDBRANCH  24  27
ENDBRANCH  22  24
ENDBRANCH  21  22
ENDBRANCH   3  21
TORSDOF 4
ENDMDL
MODEL 7
REMARK VINA RESULT:     -10.5      1.371      1.600
REMARK  Name = 11282283
REMARK  4 active torsions:
REMARK  status: ('A' for Active; 'I' for Inactive)
REMARK    1  A    between atoms: N_3  and  C_21
REMARK    2  A    between atoms: C_21  and  N_22
REMARK    3  A    between atoms: N_22  and  C_24
REMARK    4  A    between atoms: C_24  and  C_27
REMARK                            x       y       z     vdW  Elec       q    Type
REMARK                         _______ _______ _______ _____ _____    ______ ____
ROOT
ATOM      1  O   UNL     1      34.042  -9.501 -23.353  0.00  0.00    -0.466 OA
ATOM      2  N   UNL     1      32.694 -11.950 -22.434  0.00  0.00    -0.290 N 
ATOM      3  N   UNL     1      34.046 -14.454 -22.004  0.00  0.00    -0.288 N 
ATOM      4  N   UNL     1      30.708 -10.620 -22.430  0.00  0.00    -0.230 NA
ATOM      5  N   UNL     1      30.734  -8.265 -23.076  0.00  0.00    -0.245 NA
ATOM      6  C   UNL     1      32.214 -12.898 -21.423  0.00  0.00    +0.113 C 
ATOM      7  C   UNL     1      33.880 -12.307 -23.220  0.00  0.00    +0.113 C 
ATOM      8  C   UNL     1      33.358 -13.774 -20.917  0.00  0.00    +0.114 C 
ATOM      9  C   UNL     1      34.028 -13.824 -23.315  0.00  0.00    +0.114 C 
ATOM     10  C   UNL     1      32.037 -10.738 -22.644  0.00  0.00    +0.152 C 
ATOM     11  C   UNL     1      32.718  -9.619 -23.075  0.00  0.00    +0.258 C 
ATOM     12  C   UNL     1      32.065  -8.412 -23.283  0.00  0.00    +0.106 C 
ATOM     13  C   UNL     1      33.053  -7.491 -23.717  0.00  0.00    +0.051 C 
ATOM     14  C   UNL     1      34.249  -8.209 -23.743  0.00  0.00    +0.141 C 
ATOM     15  C   UNL     1      30.146  -9.408 -22.656  0.00  0.00    +0.251 C 
ATOM     16  C   UNL     1      33.075  -6.136 -24.090  0.00  0.00    +0.004 C 
ATOM     17  C   UNL     1      35.475  -7.664 -24.118  0.00  0.00    +0.037 C 
ATOM     18  C   UNL     1      34.295  -5.563 -24.473  0.00  0.00    +0.000 C 
ATOM     19  C   UNL     1      35.473  -6.315 -24.486  0.00  0.00    +0.003 C 
ENDROOT
BRANCH   3  21
ATOM     20  S   UNL     1      34.828 -16.286 -20.266  0.00  0.00    -0.019 S 
ATOM     21  C   UNL     1      34.681 -15.636 -21.800  0.00  0.00    +0.135 C 
BRANCH  21  22
ATOM     22  N   UNL     1      35.197 -16.279 -22.897  0.00  0.00    -0.312 N 
ATOM     23  H   UNL     1      35.781 -15.753 -23.490  0.00  0.00    +0.149 HD
BRANCH  22  24
ATOM     24  C   UNL     1      34.963 -17.663 -23.262  0.00  0.00    +0.116 C 
BRANCH  24  27
ATOM     25  O   UNL     1      34.238 -21.253 -19.952  0.00  0.00    -0.435 OA
ATOM     26  O   UNL     1      36.549 -21.247 -19.267  0.00  0.00    -0.435 OA
ATOM     27  C   UNL     1      35.422 -18.611 -22.193  0.00  0.00    +0.001 C 
ATOM     28  C   UNL     1      34.507 -19.483 -21.611  0.00  0.00    +0.038 C 
ATOM     29  C   UNL     1      36.768 -18.602 -21.800  0.00  0.00    +0.001 C 
ATOM     30  C   UNL     1      34.976 -20.336 -20.634  0.00  0.00    +0.176 C 
ATOM     31  C   UNL     1      36.296 -20.332 -20.243  0.00  0.00    +0.176 C 
ATOM     32  C   UNL     1      37.218 -19.475 -20.808  0.00  0.00    +0.040 C 
ATOM     33  C   UNL     1      35.241 -21.827 -19.088  0.00  0.00    +0.429 C 
ENDBRANCH  24  27
ENDBRANCH  22  24
ENDBRANCH  21  22
ENDBRANCH   3  21
TORSDOF 4
ENDMDL
MODEL 8
REMARK VINA RESULT:     -10.4      3.828      6.515
REMARK  Name = 11282283
REMARK  4 active torsions:
REMARK  status: ('A' for Active; 'I' for Inactive)
REMARK    1  A    between atoms: N_3  and  C_21
REMARK    2  A    between atoms: C_21  and  N_22
REMARK    3  A    between atoms: N_22  and  C_24
REMARK    4  A    between atoms: C_24  and  C_27
REMARK                            x       y       z     vdW  Elec       q    Type
REMARK                         _______ _______ _______ _____ _____    ______ ____
ROOT
ATOM      1  O   UNL     1      32.915  -5.284 -24.485  0.00  0.00    -0.466 OA
ATOM      2  N   UNL     1      31.701  -6.648 -22.178  0.00  0.00    -0.290 N 
ATOM      3  N   UNL     1      31.874  -9.485 -21.724  0.00  0.00    -0.288 N 
ATOM      4  N   UNL     1      30.948  -4.472 -21.538  0.00  0.00    -0.230 NA
ATOM      5  N   UNL     1      31.458  -2.489 -22.869  0.00  0.00    -0.245 NA
ATOM      6  C   UNL     1      31.689  -7.192 -20.816  0.00  0.00    +0.113 C 
ATOM      7  C   UNL     1      31.803  -7.583 -23.304  0.00  0.00    +0.113 C 
ATOM      8  C   UNL     1      32.416  -8.535 -20.765  0.00  0.00    +0.114 C 
ATOM      9  C   UNL     1      31.243  -8.952 -22.922  0.00  0.00    +0.114 C 
ATOM     10  C   UNL     1      31.613  -5.274 -22.398  0.00  0.00    +0.152 C 
ATOM     11  C   UNL     1      32.203  -4.685 -23.497  0.00  0.00    +0.258 C 
ATOM     12  C   UNL     1      32.118  -3.317 -23.715  0.00  0.00    +0.106 C 
ATOM     13  C   UNL     1      32.825  -3.058 -24.917  0.00  0.00    +0.051 C 
ATOM     14  C   UNL     1      33.295  -4.298 -25.350  0.00  0.00    +0.141 C 
ATOM     15  C   UNL     1      30.912  -3.148 -21.822  0.00  0.00    +0.251 C 
ATOM     16  C   UNL     1      33.122  -1.921 -25.689  0.00  0.00    +0.004 C 
ATOM     17  C   UNL     1      34.047  -4.484 -26.509  0.00  0.00    +0.037 C 
ATOM     18  C   UNL     1      33.876  -2.080 -26.859  0.00  0.00    +0.000 C 
ATOM     19  C   UNL     1      34.329  -3.339 -27.260  0.00  0.00    +0.003 C 
ENDROOT
BRANCH   3  21
ATOM     20  S   UNL     1      31.819 -11.460 -19.968  0.00  0.00    -0.019 S 
ATOM     21  C   UNL     1      31.955 -10.822 -21.508  0.00  0.00    +0.135 C 
BRANCH  21  22
ATOM     22  N   UNL     1      32.149 -11.633 -22.598  0.00  0.00    -0.312 N 
ATOM     23  H   UNL     1      31.379 -12.164 -22.903  0.00  0.00    +0.149 HD
BRANCH  22  24
ATOM     24  C   UNL     1      33.384 -11.778 -23.343  0.00  0.00    +0.116 C 
BRANCH  24  27
ATOM     25  O   UNL     1      34.989 -16.371 -22.500  0.00  0.00    -0.435 OA
ATOM     26  O   UNL     1      34.374 -17.116 -24.707  0.00  0.00    -0.435 OA
ATOM     27  C   UNL     1      33.635 -13.204 -23.742  0.00  0.00    +0.001 C 
ATOM     28  C   UNL     1      34.221 -14.077 -22.831  0.00  0.00    +0.038 C 
ATOM     29  C   UNL     1      33.274 -13.630 -25.028  0.00  0.00    +0.001 C 
ATOM     30  C   UNL     1      34.431 -15.377 -23.243  0.00  0.00    +0.176 C 
ATOM     31  C   UNL     1      34.079 -15.802 -24.504  0.00  0.00    +0.176 C 
ATOM     32  C   UNL     1      33.498 -14.951 -25.421  0.00  0.00    +0.040 C 
ATOM     33  C   UNL     1      34.949 -17.469 -23.433  0.00  0.00    +0.429 C 
ENDBRANCH  24  27
ENDBRANCH  22  24
ENDBRANCH  21  22
ENDBRANCH   3  21
TORSDOF 4
ENDMDL
MODEL 9
REMARK VINA RESULT:     -10.3      5.365     12.940
REMARK  Name = 11282283
REMARK  4 active torsions:
REMARK  status: ('A' for Active; 'I' for Inactive)
REMARK    1  A    between atoms: N_3  and  C_21
REMARK    2  A    between atoms: C_21  and  N_22
REMARK    3  A    between atoms: N_22  and  C_24
REMARK    4  A    between atoms: C_24  and  C_27
REMARK                            x       y       z     vdW  Elec       q    Type
REMARK                         _______ _______ _______ _____ _____    ______ ____
ROOT
ATOM      1  O   UNL     1      37.437 -23.921 -15.687  0.00  0.00    -0.466 OA
ATOM      2  N   UNL     1      35.319 -22.503 -17.157  0.00  0.00    -0.290 N 
ATOM      3  N   UNL     1      35.790 -20.931 -19.522  0.00  0.00    -0.288 N 
ATOM      4  N   UNL     1      33.845 -23.392 -15.498  0.00  0.00    -0.230 NA
ATOM      5  N   UNL     1      34.655 -24.813 -13.685  0.00  0.00    -0.245 NA
ATOM      6  C   UNL     1      34.284 -22.368 -18.187  0.00  0.00    +0.113 C 
ATOM      7  C   UNL     1      36.600 -21.819 -17.360  0.00  0.00    +0.113 C 
ATOM      8  C   UNL     1      34.912 -22.091 -19.551  0.00  0.00    +0.114 C 
ATOM      9  C   UNL     1      36.423 -20.594 -18.255  0.00  0.00    +0.114 C 
ATOM     10  C   UNL     1      35.090 -23.262 -16.010  0.00  0.00    +0.152 C 
ATOM     11  C   UNL     1      36.120 -23.908 -15.360  0.00  0.00    +0.258 C 
ATOM     12  C   UNL     1      35.892 -24.665 -14.220  0.00  0.00    +0.106 C 
ATOM     13  C   UNL     1      37.152 -25.178 -13.820  0.00  0.00    +0.051 C 
ATOM     14  C   UNL     1      38.067 -24.692 -14.753  0.00  0.00    +0.141 C 
ATOM     15  C   UNL     1      33.707 -24.148 -14.383  0.00  0.00    +0.251 C 
ATOM     16  C   UNL     1      37.625 -25.995 -12.778  0.00  0.00    +0.004 C 
ATOM     17  C   UNL     1      39.434 -24.967 -14.720  0.00  0.00    +0.037 C 
ATOM     18  C   UNL     1      38.995 -26.287 -12.720  0.00  0.00    +0.000 C 
ATOM     19  C   UNL     1      39.881 -25.781 -13.675  0.00  0.00    +0.003 C 
ENDROOT
BRANCH   3  21
ATOM     20  S   UNL     1      37.487 -19.450 -20.906  0.00  0.00    -0.019 S 
ATOM     21  C   UNL     1      36.010 -20.189 -20.636  0.00  0.00    +0.135 C 
BRANCH  21  22
ATOM     22  N   UNL     1      34.981 -20.068 -21.535  0.00  0.00    -0.312 N 
ATOM     23  H   UNL     1      34.070 -20.223 -21.195  0.00  0.00    +0.149 HD
BRANCH  22  24
ATOM     24  C   UNL     1      35.110 -19.732 -22.939  0.00  0.00    +0.116 C 
BRANCH  24  27
ATOM     25  O   UNL     1      33.401 -15.995 -25.677  0.00  0.00    -0.435 OA
ATOM     26  O   UNL     1      34.006 -14.352 -24.021  0.00  0.00    -0.435 OA
ATOM     27  C   UNL     1      34.828 -18.280 -23.197  0.00  0.00    +0.001 C 
ATOM     28  C   UNL     1      34.220 -17.901 -24.391  0.00  0.00    +0.038 C 
ATOM     29  C   UNL     1      35.182 -17.330 -22.229  0.00  0.00    +0.001 C 
ATOM     30  C   UNL     1      33.981 -16.556 -24.582  0.00  0.00    +0.176 C 
ATOM     31  C   UNL     1      34.326 -15.618 -23.636  0.00  0.00    +0.176 C 
ATOM     32  C   UNL     1      34.930 -15.974 -22.447  0.00  0.00    +0.040 C 
ATOM     33  C   UNL     1      33.419 -14.599 -25.315  0.00  0.00    +0.429 C 
ENDBRANCH  24  27
ENDBRANCH  22  24
ENDBRANCH  21  22
ENDBRANCH   3  21
TORSDOF 4
ENDMDL
