MODEL 1
REMARK VINA RESULT:     -12.7      0.000      0.000
REMARK  Name = 9999276
REMARK  5 active torsions:
REMARK  status: ('A' for Active; 'I' for Inactive)
REMARK    1  A    between atoms: C_3  and  C_11
REMARK    2  A    between atoms: C_6  and  C_20
REMARK    3  A    between atoms: C_14  and  N_19
REMARK    4  A    between atoms: C_25  and  C_27
REMARK    5  A    between atoms: C_27  and  O_28
REMARK                            x       y       z     vdW  Elec       q    Type
REMARK                         _______ _______ _______ _____ _____    ______ ____
ROOT
ATOM      1  N   UNL     1      34.740 -23.321 -16.266  0.00  0.00    -0.400 NA
ATOM      2  N   UNL     1      32.876 -25.103 -13.682  0.00  0.00    -0.242 NA
ATOM      3  C   UNL     1      34.406 -24.040 -15.168  0.00  0.00    +0.149 C 
ATOM      4  C   UNL     1      33.117 -24.381 -14.794  0.00  0.00    +0.107 C 
ATOM      5  C   UNL     1      32.086 -23.934 -15.638  0.00  0.00    +0.005 C 
ATOM      6  C   UNL     1      33.721 -22.912 -17.047  0.00  0.00    +0.131 C 
ATOM      7  C   UNL     1      32.391 -23.187 -16.783  0.00  0.00    +0.030 C 
ATOM      8  C   UNL     1      30.767 -24.259 -15.294  0.00  0.00    +0.056 C 
ATOM      9  C   UNL     1      30.509 -25.002 -14.150  0.00  0.00    -0.001 C 
ATOM     10  C   UNL     1      31.589 -25.397 -13.385  0.00  0.00    +0.095 C 
ENDROOT
BRANCH   3  11
ATOM     11  C   UNL     1      35.553 -24.444 -14.380  0.00  0.00    +0.033 C 
ATOM     12  C   UNL     1      35.951 -23.677 -13.287  0.00  0.00    +0.027 C 
ATOM     13  C   UNL     1      36.257 -25.599 -14.719  0.00  0.00    +0.003 C 
ATOM     14  C   UNL     1      37.055 -24.066 -12.529  0.00  0.00    +0.143 C 
ATOM     15  C   UNL     1      37.361 -25.988 -13.961  0.00  0.00    +0.002 C 
ATOM     16  C   UNL     1      37.761 -25.221 -12.867  0.00  0.00    +0.024 C 
BRANCH  14  19
ATOM     17  O   UNL     1      38.370 -22.436 -11.574  0.00  0.00    -0.126 OA
ATOM     18  O   UNL     1      36.901 -23.472 -10.310  0.00  0.00    -0.126 OA
ATOM     19  N   UNL     1      37.462 -23.286 -11.414  0.00  0.00    +0.058 N 
ENDBRANCH  14  19
ENDBRANCH   3  11
BRANCH   6  20
ATOM     20  C   UNL     1      34.109 -22.147 -18.208  0.00  0.00    +0.030 C 
ATOM     21  C   UNL     1      35.460 -21.988 -18.526  0.00  0.00    +0.003 C 
ATOM     22  C   UNL     1      33.133 -21.560 -19.017  0.00  0.00    +0.003 C 
ATOM     23  C   UNL     1      35.833 -21.250 -19.648  0.00  0.00    +0.007 C 
ATOM     24  C   UNL     1      33.507 -20.821 -20.140  0.00  0.00    +0.007 C 
ATOM     25  C   UNL     1      34.856 -20.666 -20.455  0.00  0.00    +0.075 C 
BRANCH  25  27
ATOM     26  O   UNL     1      34.719 -19.971 -22.741  0.00  0.00    -0.245 OA
ATOM     27  C   UNL     1      35.245 -19.894 -21.626  0.00  0.00    +0.338 C 
BRANCH  27  28
ATOM     28  O   UNL     1      36.279 -19.047 -21.370  0.00  0.00    -0.477 OA
ATOM     29  H   UNL     1      36.146 -18.120 -21.401  0.00  0.00    +0.295 HD
ENDBRANCH  27  28
ENDBRANCH  25  27
ENDBRANCH   6  20
TORSDOF 5
ENDMDL
MODEL 2
REMARK VINA RESULT:     -12.3      1.811      2.268
REMARK  Name = 9999276
REMARK  5 active torsions:
REMARK  status: ('A' for Active; 'I' for Inactive)
REMARK    1  A    between atoms: C_3  and  C_11
REMARK    2  A    between atoms: C_6  and  C_20
REMARK    3  A    between atoms: C_14  and  N_19
REMARK    4  A    between atoms: C_25  and  C_27
REMARK    5  A    between atoms: C_27  and  O_28
REMARK                            x       y       z     vdW  Elec       q    Type
REMARK                         _______ _______ _______ _____ _____    ______ ____
ROOT
ATOM      1  N   UNL     1      34.632 -23.179 -16.417  0.00  0.00    -0.400 NA
ATOM      2  N   UNL     1      32.836 -25.000 -13.812  0.00  0.00    -0.242 NA
ATOM      3  C   UNL     1      34.325 -23.897 -15.311  0.00  0.00    +0.149 C 
ATOM      4  C   UNL     1      33.050 -24.283 -14.933  0.00  0.00    +0.107 C 
ATOM      5  C   UNL     1      32.003 -23.886 -15.782  0.00  0.00    +0.005 C 
ATOM      6  C   UNL     1      33.599 -22.820 -17.204  0.00  0.00    +0.131 C 
ATOM      7  C   UNL     1      32.280 -23.143 -16.937  0.00  0.00    +0.030 C 
ATOM      8  C   UNL     1      30.697 -24.257 -15.435  0.00  0.00    +0.056 C 
ATOM      9  C   UNL     1      30.467 -24.996 -14.282  0.00  0.00    -0.001 C 
ATOM     10  C   UNL     1      31.561 -25.339 -13.512  0.00  0.00    +0.095 C 
ENDROOT
BRANCH   3  11
ATOM     11  C   UNL     1      35.486 -24.247 -14.518  0.00  0.00    +0.033 C 
ATOM     12  C   UNL     1      36.248 -25.363 -14.855  0.00  0.00    +0.027 C 
ATOM     13  C   UNL     1      35.837 -23.465 -13.417  0.00  0.00    +0.003 C 
ATOM     14  C   UNL     1      37.366 -25.699 -14.092  0.00  0.00    +0.143 C 
ATOM     15  C   UNL     1      36.955 -23.801 -12.654  0.00  0.00    +0.002 C 
ATOM     16  C   UNL     1      37.719 -24.919 -12.990  0.00  0.00    +0.024 C 
BRANCH  14  19
ATOM     17  O   UNL     1      37.570 -27.828 -14.944  0.00  0.00    -0.126 OA
ATOM     18  O   UNL     1      39.378 -26.812 -14.216  0.00  0.00    -0.126 OA
ATOM     19  N   UNL     1      38.144 -26.837 -14.434  0.00  0.00    +0.058 N 
ENDBRANCH  14  19
ENDBRANCH   3  11
BRANCH   6  20
ATOM     20  C   UNL     1      33.957 -22.055 -18.374  0.00  0.00    +0.030 C 
ATOM     21  C   UNL     1      32.968 -21.421 -19.129  0.00  0.00    +0.003 C 
ATOM     22  C   UNL     1      35.297 -21.948 -18.757  0.00  0.00    +0.003 C 
ATOM     23  C   UNL     1      33.316 -20.681 -20.260  0.00  0.00    +0.007 C 
ATOM     24  C   UNL     1      35.644 -21.208 -19.889  0.00  0.00    +0.007 C 
ATOM     25  C   UNL     1      34.654 -20.576 -20.639  0.00  0.00    +0.075 C 
BRANCH  25  27
ATOM     26  O   UNL     1      34.443 -19.855 -22.911  0.00  0.00    -0.245 OA
ATOM     27  C   UNL     1      35.018 -19.805 -21.818  0.00  0.00    +0.338 C 
BRANCH  27  28
ATOM     28  O   UNL     1      36.088 -18.994 -21.600  0.00  0.00    -0.477 OA
ATOM     29  H   UNL     1      35.977 -18.063 -21.589  0.00  0.00    +0.295 HD
ENDBRANCH  27  28
ENDBRANCH  25  27
ENDBRANCH   6  20
TORSDOF 5
ENDMDL
MODEL 3
REMARK VINA RESULT:     -11.7      3.259      5.332
REMARK  Name = 9999276
REMARK  5 active torsions:
REMARK  status: ('A' for Active; 'I' for Inactive)
REMARK    1  A    between atoms: C_3  and  C_11
REMARK    2  A    between atoms: C_6  and  C_20
REMARK    3  A    between atoms: C_14  and  N_19
REMARK    4  A    between atoms: C_25  and  C_27
REMARK    5  A    between atoms: C_27  and  O_28
REMARK                            x       y       z     vdW  Elec       q    Type
REMARK                         _______ _______ _______ _____ _____    ______ ____
ROOT
ATOM      1  N   UNL     1      33.207 -22.973 -16.900  0.00  0.00    -0.400 NA
ATOM      2  N   UNL     1      33.954 -24.741 -13.795  0.00  0.00    -0.242 NA
ATOM      3  C   UNL     1      33.098 -23.674 -15.747  0.00  0.00    +0.149 C 
ATOM      4  C   UNL     1      34.154 -24.041 -14.929  0.00  0.00    +0.107 C 
ATOM      5  C   UNL     1      35.434 -23.641 -15.349  0.00  0.00    +0.005 C 
ATOM      6  C   UNL     1      34.452 -22.609 -17.265  0.00  0.00    +0.131 C 
ATOM      7  C   UNL     1      35.587 -22.913 -16.536  0.00  0.00    +0.030 C 
ATOM      8  C   UNL     1      36.529 -23.992 -14.549  0.00  0.00    +0.056 C 
ATOM      9  C   UNL     1      36.333 -24.714 -13.378  0.00  0.00    -0.001 C 
ATOM     10  C   UNL     1      35.037 -25.061 -13.049  0.00  0.00    +0.095 C 
ENDROOT
BRANCH   3  11
ATOM     11  C   UNL     1      31.732 -24.027 -15.420  0.00  0.00    +0.033 C 
ATOM     12  C   UNL     1      30.680 -23.501 -16.168  0.00  0.00    +0.027 C 
ATOM     13  C   UNL     1      31.472 -24.892 -14.357  0.00  0.00    +0.003 C 
ATOM     14  C   UNL     1      29.364 -23.841 -15.853  0.00  0.00    +0.143 C 
ATOM     15  C   UNL     1      30.157 -25.232 -14.042  0.00  0.00    +0.002 C 
ATOM     16  C   UNL     1      29.103 -24.706 -14.789  0.00  0.00    +0.024 C 
BRANCH  14  19
ATOM     17  O   UNL     1      27.638 -24.075 -17.357  0.00  0.00    -0.126 OA
ATOM     18  O   UNL     1      28.033 -22.084 -16.514  0.00  0.00    -0.126 OA
ATOM     19  N   UNL     1      28.291 -23.306 -16.613  0.00  0.00    +0.058 N 
ENDBRANCH  14  19
ENDBRANCH   3  11
BRANCH   6  20
ATOM     20  C   UNL     1      34.534 -21.863 -18.499  0.00  0.00    +0.030 C 
ATOM     21  C   UNL     1      33.370 -21.445 -19.146  0.00  0.00    +0.003 C 
ATOM     22  C   UNL     1      35.781 -21.559 -19.051  0.00  0.00    +0.003 C 
ATOM     23  C   UNL     1      33.450 -20.724 -20.337  0.00  0.00    +0.007 C 
ATOM     24  C   UNL     1      35.862 -20.838 -20.243  0.00  0.00    +0.007 C 
ATOM     25  C   UNL     1      34.697 -20.421 -20.885  0.00  0.00    +0.075 C 
BRANCH  25  27
ATOM     26  O   UNL     1      33.910 -19.630 -23.002  0.00  0.00    -0.245 OA
ATOM     27  C   UNL     1      34.782 -19.670 -22.128  0.00  0.00    +0.338 C 
BRANCH  27  28
ATOM     28  O   UNL     1      35.955 -18.988 -22.245  0.00  0.00    -0.477 OA
ATOM     29  H   UNL     1      36.591 -19.254 -22.879  0.00  0.00    +0.295 HD
ENDBRANCH  27  28
ENDBRANCH  25  27
ENDBRANCH   6  20
TORSDOF 5
ENDMDL
MODEL 4
REMARK VINA RESULT:     -10.2      2.161      4.588
REMARK  Name = 9999276
REMARK  5 active torsions:
REMARK  status: ('A' for Active; 'I' for Inactive)
REMARK    1  A    between atoms: C_3  and  C_11
REMARK    2  A    between atoms: C_6  and  C_20
REMARK    3  A    between atoms: C_14  and  N_19
REMARK    4  A    between atoms: C_25  and  C_27
REMARK    5  A    between atoms: C_27  and  O_28
REMARK                            x       y       z     vdW  Elec       q    Type
REMARK                         _______ _______ _______ _____ _____    ______ ____
ROOT
ATOM      1  N   UNL     1      34.256 -22.294 -17.595  0.00  0.00    -0.400 NA
ATOM      2  N   UNL     1      35.460 -24.071 -14.642  0.00  0.00    -0.242 NA
ATOM      3  C   UNL     1      34.323 -23.014 -16.450  0.00  0.00    +0.149 C 
ATOM      4  C   UNL     1      35.488 -23.350 -15.780  0.00  0.00    +0.107 C 
ATOM      5  C   UNL     1      36.687 -22.897 -16.354  0.00  0.00    +0.005 C 
ATOM      6  C   UNL     1      35.430 -21.880 -18.111  0.00  0.00    +0.131 C 
ATOM      7  C   UNL     1      36.660 -22.150 -17.539  0.00  0.00    +0.030 C 
ATOM      8  C   UNL     1      37.888 -23.217 -15.707  0.00  0.00    +0.056 C 
ATOM      9  C   UNL     1      37.870 -23.959 -14.533  0.00  0.00    -0.001 C 
ATOM     10  C   UNL     1      36.641 -24.358 -14.047  0.00  0.00    +0.095 C 
ENDROOT
BRANCH   3  11
ATOM     11  C   UNL     1      33.023 -23.422 -15.956  0.00  0.00    +0.033 C 
ATOM     12  C   UNL     1      32.911 -24.014 -14.700  0.00  0.00    +0.027 C 
ATOM     13  C   UNL     1      31.888 -23.222 -16.741  0.00  0.00    +0.003 C 
ATOM     14  C   UNL     1      31.659 -24.407 -14.225  0.00  0.00    +0.143 C 
ATOM     15  C   UNL     1      30.636 -23.614 -16.266  0.00  0.00    +0.002 C 
ATOM     16  C   UNL     1      30.522 -24.208 -15.009  0.00  0.00    +0.024 C 
BRANCH  14  19
ATOM     17  O   UNL     1      30.439 -24.956 -12.352  0.00  0.00    -0.126 OA
ATOM     18  O   UNL     1      32.545 -25.578 -12.453  0.00  0.00    -0.126 OA
ATOM     19  N   UNL     1      31.543 -25.010 -12.945  0.00  0.00    +0.058 N 
ENDBRANCH  14  19
ENDBRANCH   3  11
BRANCH   6  20
ATOM     20  C   UNL     1      35.326 -21.117 -19.332  0.00  0.00    +0.030 C 
ATOM     21  C   UNL     1      34.082 -20.924 -19.937  0.00  0.00    +0.003 C 
ATOM     22  C   UNL     1      36.472 -20.569 -19.915  0.00  0.00    +0.003 C 
ATOM     23  C   UNL     1      33.982 -20.186 -21.116  0.00  0.00    +0.007 C 
ATOM     24  C   UNL     1      36.372 -19.831 -21.095  0.00  0.00    +0.007 C 
ATOM     25  C   UNL     1      35.128 -19.640 -21.695  0.00  0.00    +0.075 C 
BRANCH  25  27
ATOM     26  O   UNL     1      34.321 -19.165 -23.897  0.00  0.00    -0.245 OA
ATOM     27  C   UNL     1      35.026 -18.871 -22.925  0.00  0.00    +0.338 C 
BRANCH  27  28
ATOM     28  O   UNL     1      35.805 -17.755 -22.908  0.00  0.00    -0.477 OA
ATOM     29  H   UNL     1      35.819 -17.203 -22.150  0.00  0.00    +0.295 HD
ENDBRANCH  27  28
ENDBRANCH  25  27
ENDBRANCH   6  20
TORSDOF 5
ENDMDL
MODEL 5
REMARK VINA RESULT:     -10.0      2.181      7.025
REMARK  Name = 9999276
REMARK  5 active torsions:
REMARK  status: ('A' for Active; 'I' for Inactive)
REMARK    1  A    between atoms: C_3  and  C_11
REMARK    2  A    between atoms: C_6  and  C_20
REMARK    3  A    between atoms: C_14  and  N_19
REMARK    4  A    between atoms: C_25  and  C_27
REMARK    5  A    between atoms: C_27  and  O_28
REMARK                            x       y       z     vdW  Elec       q    Type
REMARK                         _______ _______ _______ _____ _____    ______ ____
ROOT
ATOM      1  N   UNL     1      34.847 -23.374 -16.626  0.00  0.00    -0.400 NA
ATOM      2  N   UNL     1      31.243 -22.836 -16.832  0.00  0.00    -0.242 NA
ATOM      3  C   UNL     1      33.615 -22.969 -17.015  0.00  0.00    +0.149 C 
ATOM      4  C   UNL     1      32.428 -23.285 -16.375  0.00  0.00    +0.107 C 
ATOM      5  C   UNL     1      32.535 -24.094 -15.230  0.00  0.00    +0.005 C 
ATOM      6  C   UNL     1      34.904 -24.147 -15.524  0.00  0.00    +0.131 C 
ATOM      7  C   UNL     1      33.793 -24.533 -14.797  0.00  0.00    +0.030 C 
ATOM      8  C   UNL     1      31.357 -24.435 -14.554  0.00  0.00    +0.056 C 
ATOM      9  C   UNL     1      30.130 -23.978 -15.018  0.00  0.00    -0.001 C 
ATOM     10  C   UNL     1      30.128 -23.188 -16.150  0.00  0.00    +0.095 C 
ENDROOT
BRANCH   3  11
ATOM     11  C   UNL     1      33.635 -22.142 -18.204  0.00  0.00    +0.033 C 
ATOM     12  C   UNL     1      34.848 -21.675 -18.706  0.00  0.00    +0.027 C 
ATOM     13  C   UNL     1      32.439 -21.815 -18.843  0.00  0.00    +0.003 C 
ATOM     14  C   UNL     1      34.867 -20.879 -19.851  0.00  0.00    +0.143 C 
ATOM     15  C   UNL     1      32.458 -21.018 -19.988  0.00  0.00    +0.002 C 
ATOM     16  C   UNL     1      33.671 -20.549 -20.491  0.00  0.00    +0.024 C 
BRANCH  14  19
ATOM     17  O   UNL     1      36.086 -19.635 -21.357  0.00  0.00    -0.126 OA
ATOM     18  O   UNL     1      37.165 -20.761 -19.808  0.00  0.00    -0.126 OA
ATOM     19  N   UNL     1      36.102 -20.401 -20.364  0.00  0.00    +0.058 N 
ENDBRANCH  14  19
ENDBRANCH   3  11
BRANCH   6  20
ATOM     20  C   UNL     1      36.231 -24.563 -15.136  0.00  0.00    +0.030 C 
ATOM     21  C   UNL     1      36.451 -25.860 -14.666  0.00  0.00    +0.003 C 
ATOM     22  C   UNL     1      37.300 -23.669 -15.229  0.00  0.00    +0.003 C 
ATOM     23  C   UNL     1      37.733 -26.262 -14.292  0.00  0.00    +0.007 C 
ATOM     24  C   UNL     1      38.583 -24.071 -14.855  0.00  0.00    +0.007 C 
ATOM     25  C   UNL     1      38.799 -25.366 -14.387  0.00  0.00    +0.075 C 
BRANCH  25  27
ATOM     26  O   UNL     1      40.473 -26.939 -13.716  0.00  0.00    -0.245 OA
ATOM     27  C   UNL     1      40.137 -25.784 -13.996  0.00  0.00    +0.338 C 
BRANCH  27  28
ATOM     28  O   UNL     1      41.018 -24.747 -13.968  0.00  0.00    -0.477 OA
ATOM     29  H   UNL     1      40.742 -23.889 -14.224  0.00  0.00    +0.295 HD
ENDBRANCH  27  28
ENDBRANCH  25  27
ENDBRANCH   6  20
TORSDOF 5
ENDMDL
