MODEL 1
REMARK VINA RESULT:     -11.4      0.000      0.000
REMARK  Name = 91617630
REMARK  6 active torsions:
REMARK  status: ('A' for Active; 'I' for Inactive)
REMARK    1  A    between atoms: N_4  and  C_10
REMARK    2  A    between atoms: N_5  and  C_16
REMARK    3  A    between atoms: C_7  and  C_24
REMARK    4  A    between atoms: N_23  and  C_26
REMARK    5  A    between atoms: C_26  and  C_28
REMARK    6  A    between atoms: C_28  and  O_29
REMARK                            x       y       z     vdW  Elec       q    Type
REMARK                         _______ _______ _______ _____ _____    ______ ____
ROOT
ATOM      1  O   UNL     1      36.186 -23.723 -16.092  0.00  0.00    -0.252 OA
ATOM      2  O   UNL     1      31.736 -22.864 -17.118  0.00  0.00    -0.273 OA
ATOM      3  O   UNL     1      32.796 -24.821 -13.106  0.00  0.00    -0.273 OA
ATOM      4  N   UNL     1      33.988 -23.182 -16.612  0.00  0.00    -0.215 N 
ATOM      5  N   UNL     1      34.538 -24.210 -14.529  0.00  0.00    -0.215 N 
ATOM      6  C   UNL     1      34.996 -23.690 -15.761  0.00  0.00    +0.319 C 
ATOM      7  C   UNL     1      32.320 -23.231 -14.829  0.00  0.00    +0.229 C 
ATOM      8  C   UNL     1      32.627 -23.092 -16.299  0.00  0.00    +0.250 C 
ATOM      9  C   UNL     1      33.215 -24.183 -14.073  0.00  0.00    +0.250 C 
ENDROOT
BRANCH   4  10
ATOM     10  C   UNL     1      34.397 -22.816 -17.946  0.00  0.00    +0.084 C 
ATOM     11  C   UNL     1      35.751 -22.103 -17.915  0.00  0.00    +0.020 C 
ATOM     12  C   UNL     1      33.328 -21.953 -18.622  0.00  0.00    +0.020 C 
ATOM     13  C   UNL     1      33.765 -21.507 -20.016  0.00  0.00    +0.002 C 
ATOM     14  C   UNL     1      36.184 -21.655 -19.309  0.00  0.00    +0.002 C 
ATOM     15  C   UNL     1      35.115 -20.799 -19.983  0.00  0.00    +0.000 C 
ENDBRANCH   4  10
BRANCH   5  16
ATOM     16  C   UNL     1      35.515 -24.900 -13.721  0.00  0.00    +0.084 C 
ATOM     17  C   UNL     1      36.194 -26.013 -14.525  0.00  0.00    +0.020 C 
ATOM     18  C   UNL     1      36.541 -23.913 -13.162  0.00  0.00    +0.020 C 
ATOM     19  C   UNL     1      37.619 -24.623 -12.346  0.00  0.00    +0.002 C 
ATOM     20  C   UNL     1      37.271 -26.721 -13.707  0.00  0.00    +0.002 C 
ATOM     21  C   UNL     1      38.291 -25.735 -13.147  0.00  0.00    +0.000 C 
ENDBRANCH   5  16
BRANCH   7  24
ATOM     22  O   UNL     1      30.187 -22.837 -13.827  0.00  0.00    -0.274 OA
ATOM     23  N   UNL     1      30.428 -24.626 -15.297  0.00  0.00    -0.294 N 
ATOM     24  C   UNL     1      30.866 -23.521 -14.589  0.00  0.00    +0.240 C 
ATOM     25  H   UNL     1      31.069 -25.095 -15.879  0.00  0.00    +0.150 HD
BRANCH  23  26
ATOM     26  C   UNL     1      29.075 -25.128 -15.222  0.00  0.00    +0.200 C 
BRANCH  26  28
ATOM     27  O   UNL     1      27.804 -24.543 -17.180  0.00  0.00    -0.248 OA
ATOM     28  C   UNL     1      28.097 -24.301 -16.016  0.00  0.00    +0.334 C 
BRANCH  28  29
ATOM     29  O   UNL     1      27.574 -23.264 -15.320  0.00  0.00    -0.479 OA
ATOM     30  H   UNL     1      28.138 -22.695 -14.833  0.00  0.00    +0.295 HD
ENDBRANCH  28  29
ENDBRANCH  26  28
ENDBRANCH  23  26
ENDBRANCH   7  24
TORSDOF 6
ENDMDL
MODEL 2
REMARK VINA RESULT:     -11.2      1.603      6.652
REMARK  Name = 91617630
REMARK  6 active torsions:
REMARK  status: ('A' for Active; 'I' for Inactive)
REMARK    1  A    between atoms: N_4  and  C_10
REMARK    2  A    between atoms: N_5  and  C_16
REMARK    3  A    between atoms: C_7  and  C_24
REMARK    4  A    between atoms: N_23  and  C_26
REMARK    5  A    between atoms: C_26  and  C_28
REMARK    6  A    between atoms: C_28  and  O_29
REMARK                            x       y       z     vdW  Elec       q    Type
REMARK                         _______ _______ _______ _____ _____    ______ ____
ROOT
ATOM      1  O   UNL     1      31.619 -22.695 -17.263  0.00  0.00    -0.252 OA
ATOM      2  O   UNL     1      32.866 -24.557 -13.192  0.00  0.00    -0.273 OA
ATOM      3  O   UNL     1      36.091 -23.506 -16.282  0.00  0.00    -0.273 OA
ATOM      4  N   UNL     1      32.196 -23.535 -15.176  0.00  0.00    -0.215 N 
ATOM      5  N   UNL     1      33.873 -22.998 -16.787  0.00  0.00    -0.215 N 
ATOM      6  C   UNL     1      32.498 -23.033 -16.462  0.00  0.00    +0.319 C 
ATOM      7  C   UNL     1      34.531 -23.412 -14.472  0.00  0.00    +0.229 C 
ATOM      8  C   UNL     1      33.133 -23.916 -14.209  0.00  0.00    +0.250 C 
ATOM      9  C   UNL     1      34.924 -23.336 -15.927  0.00  0.00    +0.250 C 
ENDROOT
BRANCH   4  10
ATOM     10  C   UNL     1      30.800 -23.756 -14.883  0.00  0.00    +0.084 C 
ATOM     11  C   UNL     1      30.366 -25.146 -15.357  0.00  0.00    +0.020 C 
ATOM     12  C   UNL     1      29.935 -22.659 -15.508  0.00  0.00    +0.020 C 
ATOM     13  C   UNL     1      28.449 -22.904 -15.256  0.00  0.00    +0.002 C 
ATOM     14  C   UNL     1      28.879 -25.387 -15.107  0.00  0.00    +0.002 C 
ATOM     15  C   UNL     1      28.019 -24.289 -15.727  0.00  0.00    +0.000 C 
ENDBRANCH   4  10
BRANCH   5  16
ATOM     16  C   UNL     1      34.201 -22.666 -18.153  0.00  0.00    +0.084 C 
ATOM     17  C   UNL     1      33.176 -21.687 -18.734  0.00  0.00    +0.020 C 
ATOM     18  C   UNL     1      35.620 -22.104 -18.242  0.00  0.00    +0.020 C 
ATOM     19  C   UNL     1      35.975 -21.693 -19.669  0.00  0.00    +0.002 C 
ATOM     20  C   UNL     1      33.534 -21.279 -20.160  0.00  0.00    +0.002 C 
ATOM     21  C   UNL     1      34.951 -20.721 -20.247  0.00  0.00    +0.000 C 
ENDBRANCH   5  16
BRANCH   7  24
ATOM     22  O   UNL     1      36.151 -23.613 -12.727  0.00  0.00    -0.274 OA
ATOM     23  N   UNL     1      35.725 -25.454 -14.087  0.00  0.00    -0.294 N 
ATOM     24  C   UNL     1      35.551 -24.151 -13.654  0.00  0.00    +0.240 C 
ATOM     25  H   UNL     1      35.182 -25.774 -14.844  0.00  0.00    +0.150 HD
BRANCH  23  26
ATOM     26  C   UNL     1      36.666 -26.369 -13.483  0.00  0.00    +0.200 C 
BRANCH  26  28
ATOM     27  O   UNL     1      38.672 -27.430 -14.286  0.00  0.00    -0.248 OA
ATOM     28  C   UNL     1      37.512 -27.095 -14.496  0.00  0.00    +0.334 C 
BRANCH  28  29
ATOM     29  O   UNL     1      36.870 -27.340 -15.663  0.00  0.00    -0.479 OA
ATOM     30  H   UNL     1      36.693 -26.637 -16.256  0.00  0.00    +0.295 HD
ENDBRANCH  28  29
ENDBRANCH  26  28
ENDBRANCH  23  26
ENDBRANCH   7  24
TORSDOF 6
ENDMDL
MODEL 3
REMARK VINA RESULT:     -11.0      1.736      5.870
REMARK  Name = 91617630
REMARK  6 active torsions:
REMARK  status: ('A' for Active; 'I' for Inactive)
REMARK    1  A    between atoms: N_4  and  C_10
REMARK    2  A    between atoms: N_5  and  C_16
REMARK    3  A    between atoms: C_7  and  C_24
REMARK    4  A    between atoms: N_23  and  C_26
REMARK    5  A    between atoms: C_26  and  C_28
REMARK    6  A    between atoms: C_28  and  O_29
REMARK                            x       y       z     vdW  Elec       q    Type
REMARK                         _______ _______ _______ _____ _____    ______ ____
ROOT
ATOM      1  O   UNL     1      31.796 -23.323 -17.392  0.00  0.00    -0.252 OA
ATOM      2  O   UNL     1      36.263 -23.174 -16.122  0.00  0.00    -0.273 OA
ATOM      3  O   UNL     1      33.048 -24.106 -12.984  0.00  0.00    -0.273 OA
ATOM      4  N   UNL     1      34.049 -23.334 -16.830  0.00  0.00    -0.215 N 
ATOM      5  N   UNL     1      32.376 -23.808 -15.196  0.00  0.00    -0.215 N 
ATOM      6  C   UNL     1      32.675 -23.494 -16.541  0.00  0.00    +0.319 C 
ATOM      7  C   UNL     1      34.714 -24.299 -14.689  0.00  0.00    +0.229 C 
ATOM      8  C   UNL     1      35.101 -23.532 -15.928  0.00  0.00    +0.250 C 
ATOM      9  C   UNL     1      33.315 -24.045 -14.185  0.00  0.00    +0.250 C 
ENDROOT
BRANCH   4  10
ATOM     10  C   UNL     1      34.376 -22.834 -18.144  0.00  0.00    +0.084 C 
ATOM     11  C   UNL     1      35.755 -22.170 -18.137  0.00  0.00    +0.020 C 
ATOM     12  C   UNL     1      33.296 -21.870 -18.641  0.00  0.00    +0.020 C 
ATOM     13  C   UNL     1      33.649 -21.287 -20.008  0.00  0.00    +0.002 C 
ATOM     14  C   UNL     1      36.104 -21.584 -19.503  0.00  0.00    +0.002 C 
ATOM     15  C   UNL     1      35.024 -20.627 -19.999  0.00  0.00    +0.000 C 
ENDBRANCH   4  10
BRANCH   5  16
ATOM     16  C   UNL     1      30.980 -23.796 -14.830  0.00  0.00    +0.084 C 
ATOM     17  C   UNL     1      30.233 -22.687 -15.577  0.00  0.00    +0.020 C 
ATOM     18  C   UNL     1      30.347 -25.165 -15.087  0.00  0.00    +0.020 C 
ATOM     19  C   UNL     1      28.856 -25.166 -14.759  0.00  0.00    +0.002 C 
ATOM     20  C   UNL     1      28.743 -22.692 -15.246  0.00  0.00    +0.002 C 
ATOM     21  C   UNL     1      28.114 -24.058 -15.501  0.00  0.00    +0.000 C 
ENDBRANCH   5  16
BRANCH   7  24
ATOM     22  O   UNL     1      36.475 -23.168 -13.535  0.00  0.00    -0.274 OA
ATOM     23  N   UNL     1      35.744 -25.227 -12.733  0.00  0.00    -0.294 N 
ATOM     24  C   UNL     1      35.737 -24.148 -13.599  0.00  0.00    +0.240 C 
ATOM     25  H   UNL     1      35.102 -25.957 -12.888  0.00  0.00    +0.150 HD
BRANCH  23  26
ATOM     26  C   UNL     1      36.651 -25.337 -11.613  0.00  0.00    +0.200 C 
BRANCH  26  28
ATOM     27  O   UNL     1      35.437 -24.679  -9.642  0.00  0.00    -0.248 OA
ATOM     28  C   UNL     1      36.295 -24.415 -10.476  0.00  0.00    +0.334 C 
BRANCH  28  29
ATOM     29  O   UNL     1      37.011 -23.266 -10.466  0.00  0.00    -0.479 OA
ATOM     30  H   UNL     1      36.859 -22.614 -11.122  0.00  0.00    +0.295 HD
ENDBRANCH  28  29
ENDBRANCH  26  28
ENDBRANCH  23  26
ENDBRANCH   7  24
TORSDOF 6
ENDMDL
MODEL 4
REMARK VINA RESULT:     -10.8      1.848      6.238
REMARK  Name = 91617630
REMARK  6 active torsions:
REMARK  status: ('A' for Active; 'I' for Inactive)
REMARK    1  A    between atoms: N_4  and  C_10
REMARK    2  A    between atoms: N_5  and  C_16
REMARK    3  A    between atoms: C_7  and  C_24
REMARK    4  A    between atoms: N_23  and  C_26
REMARK    5  A    between atoms: C_26  and  C_28
REMARK    6  A    between atoms: C_28  and  O_29
REMARK                            x       y       z     vdW  Elec       q    Type
REMARK                         _______ _______ _______ _____ _____    ______ ____
ROOT
ATOM      1  O   UNL     1      31.713 -23.057 -17.609  0.00  0.00    -0.252 OA
ATOM      2  O   UNL     1      36.316 -22.838 -17.006  0.00  0.00    -0.273 OA
ATOM      3  O   UNL     1      33.631 -24.099 -13.505  0.00  0.00    -0.273 OA
ATOM      4  N   UNL     1      34.025 -23.027 -17.389  0.00  0.00    -0.215 N 
ATOM      5  N   UNL     1      32.628 -23.673 -15.565  0.00  0.00    -0.215 N 
ATOM      6  C   UNL     1      32.714 -23.256 -16.912  0.00  0.00    +0.319 C 
ATOM      7  C   UNL     1      35.028 -24.115 -15.446  0.00  0.00    +0.229 C 
ATOM      8  C   UNL     1      35.205 -23.249 -16.669  0.00  0.00    +0.250 C 
ATOM      9  C   UNL     1      33.713 -23.946 -14.724  0.00  0.00    +0.250 C 
ENDROOT
BRANCH   4  10
ATOM     10  C   UNL     1      34.138 -22.426 -18.696  0.00  0.00    +0.084 C 
ATOM     11  C   UNL     1      35.505 -21.756 -18.861  0.00  0.00    +0.020 C 
ATOM     12  C   UNL     1      32.999 -21.433 -18.936  0.00  0.00    +0.020 C 
ATOM     13  C   UNL     1      33.130 -20.744 -20.293  0.00  0.00    +0.002 C 
ATOM     14  C   UNL     1      35.633 -21.065 -20.217  0.00  0.00    +0.002 C 
ATOM     15  C   UNL     1      34.494 -20.079 -20.456  0.00  0.00    +0.000 C 
ENDBRANCH   4  10
BRANCH   5  16
ATOM     16  C   UNL     1      31.303 -23.736 -14.996  0.00  0.00    +0.084 C 
ATOM     17  C   UNL     1      30.377 -22.717 -15.667  0.00  0.00    +0.020 C 
ATOM     18  C   UNL     1      30.741 -25.155 -15.105  0.00  0.00    +0.020 C 
ATOM     19  C   UNL     1      29.317 -25.240 -14.559  0.00  0.00    +0.002 C 
ATOM     20  C   UNL     1      28.955 -22.805 -15.118  0.00  0.00    +0.002 C 
ATOM     21  C   UNL     1      28.397 -24.220 -15.225  0.00  0.00    +0.000 C 
ENDBRANCH   5  16
BRANCH   7  24
ATOM     22  O   UNL     1      36.205 -23.210 -13.574  0.00  0.00    -0.274 OA
ATOM     23  N   UNL     1      37.227 -24.863 -14.855  0.00  0.00    -0.294 N 
ATOM     24  C   UNL     1      36.198 -24.003 -14.512  0.00  0.00    +0.240 C 
ATOM     25  H   UNL     1      37.104 -25.454 -15.633  0.00  0.00    +0.150 HD
BRANCH  23  26
ATOM     26  C   UNL     1      38.475 -24.933 -14.130  0.00  0.00    +0.200 C 
BRANCH  26  28
ATOM     27  O   UNL     1      40.430 -26.087 -14.929  0.00  0.00    -0.248 OA
ATOM     28  C   UNL     1      39.291 -26.150 -14.482  0.00  0.00    +0.334 C 
BRANCH  28  29
ATOM     29  O   UNL     1      38.645 -27.319 -14.259  0.00  0.00    -0.479 OA
ATOM     30  H   UNL     1      37.816 -27.480 -14.665  0.00  0.00    +0.295 HD
ENDBRANCH  28  29
ENDBRANCH  26  28
ENDBRANCH  23  26
ENDBRANCH   7  24
TORSDOF 6
ENDMDL
MODEL 5
REMARK VINA RESULT:     -10.6      0.897      4.996
REMARK  Name = 91617630
REMARK  6 active torsions:
REMARK  status: ('A' for Active; 'I' for Inactive)
REMARK    1  A    between atoms: N_4  and  C_10
REMARK    2  A    between atoms: N_5  and  C_16
REMARK    3  A    between atoms: C_7  and  C_24
REMARK    4  A    between atoms: N_23  and  C_26
REMARK    5  A    between atoms: C_26  and  C_28
REMARK    6  A    between atoms: C_28  and  O_29
REMARK                            x       y       z     vdW  Elec       q    Type
REMARK                         _______ _______ _______ _____ _____    ______ ____
ROOT
ATOM      1  O   UNL     1      36.342 -24.243 -15.433  0.00  0.00    -0.252 OA
ATOM      2  O   UNL     1      32.530 -24.305 -12.777  0.00  0.00    -0.273 OA
ATOM      3  O   UNL     1      32.235 -22.874 -17.126  0.00  0.00    -0.273 OA
ATOM      4  N   UNL     1      34.451 -24.387 -14.094  0.00  0.00    -0.215 N 
ATOM      5  N   UNL     1      34.298 -23.632 -16.353  0.00  0.00    -0.215 N 
ATOM      6  C   UNL     1      35.119 -24.115 -15.309  0.00  0.00    +0.319 C 
ATOM      7  C   UNL     1      32.256 -24.223 -15.151  0.00  0.00    +0.229 C 
ATOM      8  C   UNL     1      33.071 -24.287 -13.883  0.00  0.00    +0.250 C 
ATOM      9  C   UNL     1      32.907 -23.489 -16.297  0.00  0.00    +0.250 C 
ENDROOT
BRANCH   4  10
ATOM     10  C   UNL     1      35.283 -24.703 -12.958  0.00  0.00    +0.084 C 
ATOM     11  C   UNL     1      36.030 -23.456 -12.477  0.00  0.00    +0.020 C 
ATOM     12  C   UNL     1      36.252 -25.838 -13.296  0.00  0.00    +0.020 C 
ATOM     13  C   UNL     1      37.180 -26.152 -12.124  0.00  0.00    +0.002 C 
ATOM     14  C   UNL     1      36.959 -23.773 -11.308  0.00  0.00    +0.002 C 
ATOM     15  C   UNL     1      37.922 -24.908 -11.646  0.00  0.00    +0.000 C 
ENDBRANCH   4  10
BRANCH   5  16
ATOM     16  C   UNL     1      34.976 -23.173 -17.542  0.00  0.00    +0.084 C 
ATOM     17  C   UNL     1      33.966 -22.724 -18.602  0.00  0.00    +0.020 C 
ATOM     18  C   UNL     1      35.958 -22.051 -17.199  0.00  0.00    +0.020 C 
ATOM     19  C   UNL     1      36.651 -21.508 -18.446  0.00  0.00    +0.002 C 
ATOM     20  C   UNL     1      34.662 -22.183 -19.848  0.00  0.00    +0.002 C 
ATOM     21  C   UNL     1      35.643 -21.066 -19.503  0.00  0.00    +0.000 C 
ENDBRANCH   5  16
BRANCH   7  24
ATOM     22  O   UNL     1      30.645 -22.721 -14.223  0.00  0.00    -0.274 OA
ATOM     23  N   UNL     1      29.901 -24.545 -15.464  0.00  0.00    -0.294 N 
ATOM     24  C   UNL     1      30.861 -23.729 -14.891  0.00  0.00    +0.240 C 
ATOM     25  H   UNL     1      30.199 -25.329 -15.980  0.00  0.00    +0.150 HD
BRANCH  23  26
ATOM     26  C   UNL     1      28.482 -24.302 -15.342  0.00  0.00    +0.200 C 
BRANCH  26  28
ATOM     27  O   UNL     1      27.371 -23.898 -17.438  0.00  0.00    -0.248 OA
ATOM     28  C   UNL     1      27.935 -23.442 -16.451  0.00  0.00    +0.334 C 
BRANCH  28  29
ATOM     29  O   UNL     1      28.128 -22.116 -16.254  0.00  0.00    -0.479 OA
ATOM     30  H   UNL     1      27.392 -21.537 -16.214  0.00  0.00    +0.295 HD
ENDBRANCH  28  29
ENDBRANCH  26  28
ENDBRANCH  23  26
ENDBRANCH   7  24
TORSDOF 6
ENDMDL
MODEL 6
REMARK VINA RESULT:     -10.5      1.818      5.027
REMARK  Name = 91617630
REMARK  6 active torsions:
REMARK  status: ('A' for Active; 'I' for Inactive)
REMARK    1  A    between atoms: N_4  and  C_10
REMARK    2  A    between atoms: N_5  and  C_16
REMARK    3  A    between atoms: C_7  and  C_24
REMARK    4  A    between atoms: N_23  and  C_26
REMARK    5  A    between atoms: C_26  and  C_28
REMARK    6  A    between atoms: C_28  and  O_29
REMARK                            x       y       z     vdW  Elec       q    Type
REMARK                         _______ _______ _______ _____ _____    ______ ____
ROOT
ATOM      1  O   UNL     1      32.732 -25.098 -12.777  0.00  0.00    -0.252 OA
ATOM      2  O   UNL     1      32.252 -22.778 -16.774  0.00  0.00    -0.273 OA
ATOM      3  O   UNL     1      36.454 -23.582 -15.115  0.00  0.00    -0.273 OA
ATOM      4  N   UNL     1      32.440 -24.031 -14.818  0.00  0.00    -0.215 N 
ATOM      5  N   UNL     1      34.626 -24.440 -13.950  0.00  0.00    -0.215 N 
ATOM      6  C   UNL     1      33.229 -24.579 -13.782  0.00  0.00    +0.319 C 
ATOM      7  C   UNL     1      34.375 -23.764 -16.284  0.00  0.00    +0.229 C 
ATOM      8  C   UNL     1      32.929 -23.448 -15.993  0.00  0.00    +0.250 C 
ATOM      9  C   UNL     1      35.262 -23.891 -15.070  0.00  0.00    +0.250 C 
ENDROOT
BRANCH   4  10
ATOM     10  C   UNL     1      31.016 -23.991 -14.590  0.00  0.00    +0.084 C 
ATOM     11  C   UNL     1      30.330 -25.173 -15.280  0.00  0.00    +0.020 C 
ATOM     12  C   UNL     1      30.430 -22.657 -15.057  0.00  0.00    +0.020 C 
ATOM     13  C   UNL     1      28.914 -22.615 -14.876  0.00  0.00    +0.002 C 
ATOM     14  C   UNL     1      28.814 -25.127 -15.100  0.00  0.00    +0.002 C 
ATOM     15  C   UNL     1      28.232 -23.794 -15.562  0.00  0.00    +0.000 C 
ENDBRANCH   4  10
BRANCH   5  16
ATOM     16  C   UNL     1      35.449 -24.822 -12.827  0.00  0.00    +0.084 C 
ATOM     17  C   UNL     1      36.555 -25.785 -13.270  0.00  0.00    +0.020 C 
ATOM     18  C   UNL     1      36.030 -23.584 -12.142  0.00  0.00    +0.020 C 
ATOM     19  C   UNL     1      36.948 -23.961 -10.983  0.00  0.00    +0.002 C 
ATOM     20  C   UNL     1      37.471 -26.160 -12.108  0.00  0.00    +0.002 C 
ATOM     21  C   UNL     1      38.047 -24.924 -11.424  0.00  0.00    +0.000 C 
ENDBRANCH   5  16
BRANCH   7  24
ATOM     22  O   UNL     1      35.945 -22.141 -17.065  0.00  0.00    -0.274 OA
ATOM     23  N   UNL     1      34.236 -22.831 -18.488  0.00  0.00    -0.294 N 
ATOM     24  C   UNL     1      34.954 -22.827 -17.305  0.00  0.00    +0.240 C 
ATOM     25  H   UNL     1      33.456 -23.428 -18.561  0.00  0.00    +0.150 HD
BRANCH  23  26
ATOM     26  C   UNL     1      34.573 -22.000 -19.621  0.00  0.00    +0.200 C 
BRANCH  26  28
ATOM     27  O   UNL     1      33.611 -20.165 -20.846  0.00  0.00    -0.248 OA
ATOM     28  C   UNL     1      33.505 -20.987 -19.944  0.00  0.00    +0.334 C 
BRANCH  28  29
ATOM     29  O   UNL     1      32.418 -21.071 -19.141  0.00  0.00    -0.479 OA
ATOM     30  H   UNL     1      31.570 -21.212 -19.515  0.00  0.00    +0.295 HD
ENDBRANCH  28  29
ENDBRANCH  26  28
ENDBRANCH  23  26
ENDBRANCH   7  24
TORSDOF 6
ENDMDL
MODEL 7
REMARK VINA RESULT:     -10.3      0.887      5.184
REMARK  Name = 91617630
REMARK  6 active torsions:
REMARK  status: ('A' for Active; 'I' for Inactive)
REMARK    1  A    between atoms: N_4  and  C_10
REMARK    2  A    between atoms: N_5  and  C_16
REMARK    3  A    between atoms: C_7  and  C_24
REMARK    4  A    between atoms: N_23  and  C_26
REMARK    5  A    between atoms: C_26  and  C_28
REMARK    6  A    between atoms: C_28  and  O_29
REMARK                            x       y       z     vdW  Elec       q    Type
REMARK                         _______ _______ _______ _____ _____    ______ ____
ROOT
ATOM      1  O   UNL     1      36.402 -23.142 -16.845  0.00  0.00    -0.252 OA
ATOM      2  O   UNL     1      33.310 -23.861 -13.452  0.00  0.00    -0.273 OA
ATOM      3  O   UNL     1      31.847 -22.636 -17.625  0.00  0.00    -0.273 OA
ATOM      4  N   UNL     1      34.894 -23.609 -15.142  0.00  0.00    -0.215 N 
ATOM      5  N   UNL     1      34.133 -22.962 -17.310  0.00  0.00    -0.215 N 
ATOM      6  C   UNL     1      35.231 -23.248 -16.467  0.00  0.00    +0.319 C 
ATOM      7  C   UNL     1      32.538 -23.899 -15.715  0.00  0.00    +0.229 C 
ATOM      8  C   UNL     1      33.595 -23.770 -14.647  0.00  0.00    +0.250 C 
ATOM      9  C   UNL     1      32.783 -23.086 -16.963  0.00  0.00    +0.250 C 
ENDROOT
BRANCH   4  10
ATOM     10  C   UNL     1      35.989 -23.727 -14.209  0.00  0.00    +0.084 C 
ATOM     11  C   UNL     1      36.647 -25.104 -14.328  0.00  0.00    +0.020 C 
ATOM     12  C   UNL     1      35.513 -23.458 -12.780  0.00  0.00    +0.020 C 
ATOM     13  C   UNL     1      36.645 -23.631 -11.769  0.00  0.00    +0.002 C 
ATOM     14  C   UNL     1      37.776 -25.277 -13.314  0.00  0.00    +0.002 C 
ATOM     15  C   UNL     1      37.301 -25.003 -11.890  0.00  0.00    +0.000 C 
ENDBRANCH   4  10
BRANCH   5  16
ATOM     16  C   UNL     1      34.448 -22.414 -18.608  0.00  0.00    +0.084 C 
ATOM     17  C   UNL     1      33.344 -21.460 -19.075  0.00  0.00    +0.020 C 
ATOM     18  C   UNL     1      35.810 -21.719 -18.581  0.00  0.00    +0.020 C 
ATOM     19  C   UNL     1      36.145 -21.083 -19.928  0.00  0.00    +0.002 C 
ATOM     20  C   UNL     1      33.683 -20.827 -20.422  0.00  0.00    +0.002 C 
ATOM     21  C   UNL     1      35.043 -20.136 -20.394  0.00  0.00    +0.000 C 
ENDBRANCH   5  16
BRANCH   7  24
ATOM     22  O   UNL     1      30.923 -22.783 -14.353  0.00  0.00    -0.274 OA
ATOM     23  N   UNL     1      30.243 -24.588 -15.657  0.00  0.00    -0.294 N 
ATOM     24  C   UNL     1      31.160 -23.676 -15.164  0.00  0.00    +0.240 C 
ATOM     25  H   UNL     1      30.554 -25.260 -16.305  0.00  0.00    +0.150 HD
BRANCH  23  26
ATOM     26  C   UNL     1      28.852 -24.603 -15.265  0.00  0.00    +0.200 C 
BRANCH  26  28
ATOM     27  O   UNL     1      27.453 -23.885 -17.088  0.00  0.00    -0.248 OA
ATOM     28  C   UNL     1      28.015 -23.613 -16.034  0.00  0.00    +0.334 C 
BRANCH  28  29
ATOM     29  O   UNL     1      27.944 -22.394 -15.449  0.00  0.00    -0.479 OA
ATOM     30  H   UNL     1      28.165 -22.295 -14.544  0.00  0.00    +0.295 HD
ENDBRANCH  28  29
ENDBRANCH  26  28
ENDBRANCH  23  26
ENDBRANCH   7  24
TORSDOF 6
ENDMDL
MODEL 8
REMARK VINA RESULT:      -9.5      1.887      5.821
REMARK  Name = 91617630
REMARK  6 active torsions:
REMARK  status: ('A' for Active; 'I' for Inactive)
REMARK    1  A    between atoms: N_4  and  C_10
REMARK    2  A    between atoms: N_5  and  C_16
REMARK    3  A    between atoms: C_7  and  C_24
REMARK    4  A    between atoms: N_23  and  C_26
REMARK    5  A    between atoms: C_26  and  C_28
REMARK    6  A    between atoms: C_28  and  O_29
REMARK                            x       y       z     vdW  Elec       q    Type
REMARK                         _______ _______ _______ _____ _____    ______ ____
ROOT
ATOM      1  O   UNL     1      33.340 -24.679 -13.731  0.00  0.00    -0.252 OA
ATOM      2  O   UNL     1      31.599 -22.544 -17.473  0.00  0.00    -0.273 OA
ATOM      3  O   UNL     1      36.148 -22.792 -16.920  0.00  0.00    -0.273 OA
ATOM      4  N   UNL     1      32.421 -23.710 -15.631  0.00  0.00    -0.215 N 
ATOM      5  N   UNL     1      34.786 -23.830 -15.338  0.00  0.00    -0.215 N 
ATOM      6  C   UNL     1      33.504 -24.131 -14.827  0.00  0.00    +0.319 C 
ATOM      7  C   UNL     1      33.882 -23.254 -17.533  0.00  0.00    +0.229 C 
ATOM      8  C   UNL     1      32.526 -23.106 -16.889  0.00  0.00    +0.250 C 
ATOM      9  C   UNL     1      35.052 -23.240 -16.579  0.00  0.00    +0.250 C 
ENDROOT
BRANCH   4  10
ATOM     10  C   UNL     1      31.104 -23.836 -15.054  0.00  0.00    +0.084 C 
ATOM     11  C   UNL     1      30.504 -25.205 -15.381  0.00  0.00    +0.020 C 
ATOM     12  C   UNL     1      30.194 -22.701 -15.530  0.00  0.00    +0.020 C 
ATOM     13  C   UNL     1      28.779 -22.845 -14.974  0.00  0.00    +0.002 C 
ATOM     14  C   UNL     1      29.088 -25.346 -14.827  0.00  0.00    +0.002 C 
ATOM     15  C   UNL     1      28.183 -24.211 -15.300  0.00  0.00    +0.000 C 
ENDBRANCH   4  10
BRANCH   5  16
ATOM     16  C   UNL     1      35.903 -24.080 -14.458  0.00  0.00    +0.084 C 
ATOM     17  C   UNL     1      35.603 -23.570 -13.045  0.00  0.00    +0.020 C 
ATOM     18  C   UNL     1      36.256 -25.568 -14.450  0.00  0.00    +0.020 C 
ATOM     19  C   UNL     1      37.400 -25.870 -13.485  0.00  0.00    +0.002 C 
ATOM     20  C   UNL     1      36.750 -23.874 -12.084  0.00  0.00    +0.002 C 
ATOM     21  C   UNL     1      37.102 -25.358 -12.079  0.00  0.00    +0.000 C 
ENDBRANCH   5  16
BRANCH   7  24
ATOM     22  O   UNL     1      33.117 -21.823 -19.287  0.00  0.00    -0.274 OA
ATOM     23  N   UNL     1      35.406 -22.010 -18.904  0.00  0.00    -0.294 N 
ATOM     24  C   UNL     1      34.070 -22.283 -18.663  0.00  0.00    +0.240 C 
ATOM     25  H   UNL     1      36.082 -22.442 -18.333  0.00  0.00    +0.150 HD
BRANCH  23  26
ATOM     26  C   UNL     1      35.856 -21.125 -19.953  0.00  0.00    +0.200 C 
BRANCH  26  28
ATOM     27  O   UNL     1      37.386 -19.285 -20.211  0.00  0.00    -0.248 OA
ATOM     28  C   UNL     1      36.902 -20.146 -19.486  0.00  0.00    +0.334 C 
BRANCH  28  29
ATOM     29  O   UNL     1      37.258 -20.310 -18.190  0.00  0.00    -0.479 OA
ATOM     30  H   UNL     1      37.147 -19.606 -17.582  0.00  0.00    +0.295 HD
ENDBRANCH  28  29
ENDBRANCH  26  28
ENDBRANCH  23  26
ENDBRANCH   7  24
TORSDOF 6
ENDMDL
MODEL 9
REMARK VINA RESULT:      -9.4      1.679      2.147
REMARK  Name = 91617630
REMARK  6 active torsions:
REMARK  status: ('A' for Active; 'I' for Inactive)
REMARK    1  A    between atoms: N_4  and  C_10
REMARK    2  A    between atoms: N_5  and  C_16
REMARK    3  A    between atoms: C_7  and  C_24
REMARK    4  A    between atoms: N_23  and  C_26
REMARK    5  A    between atoms: C_26  and  C_28
REMARK    6  A    between atoms: C_28  and  O_29
REMARK                            x       y       z     vdW  Elec       q    Type
REMARK                         _______ _______ _______ _____ _____    ______ ____
ROOT
ATOM      1  O   UNL     1      37.124 -22.580 -17.019  0.00  0.00    -0.252 OA
ATOM      2  O   UNL     1      32.610 -22.806 -18.098  0.00  0.00    -0.273 OA
ATOM      3  O   UNL     1      34.086 -24.617 -14.149  0.00  0.00    -0.273 OA
ATOM      4  N   UNL     1      34.866 -22.579 -17.560  0.00  0.00    -0.215 N 
ATOM      5  N   UNL     1      35.635 -23.530 -15.510  0.00  0.00    -0.215 N 
ATOM      6  C   UNL     1      35.960 -22.858 -16.710  0.00  0.00    +0.319 C 
ATOM      7  C   UNL     1      33.246 -23.119 -15.814  0.00  0.00    +0.229 C 
ATOM      8  C   UNL     1      33.522 -22.843 -17.271  0.00  0.00    +0.250 C 
ATOM      9  C   UNL     1      34.343 -23.852 -15.080  0.00  0.00    +0.250 C 
ENDROOT
BRANCH   4  10
ATOM     10  C   UNL     1      35.183 -22.063 -18.869  0.00  0.00    +0.084 C 
ATOM     11  C   UNL     1      36.445 -21.198 -18.814  0.00  0.00    +0.020 C 
ATOM     12  C   UNL     1      33.999 -21.284 -19.446  0.00  0.00    +0.020 C 
ATOM     13  C   UNL     1      34.332 -20.682 -20.809  0.00  0.00    +0.002 C 
ATOM     14  C   UNL     1      36.774 -20.595 -20.177  0.00  0.00    +0.002 C 
ATOM     15  C   UNL     1      35.591 -19.822 -20.752  0.00  0.00    +0.000 C 
ENDBRANCH   4  10
BRANCH   5  16
ATOM     16  C   UNL     1      36.746 -23.992 -14.712  0.00  0.00    +0.084 C 
ATOM     17  C   UNL     1      36.613 -23.504 -13.266  0.00  0.00    +0.020 C 
ATOM     18  C   UNL     1      36.855 -25.516 -14.777  0.00  0.00    +0.020 C 
ATOM     19  C   UNL     1      37.989 -26.038 -13.898  0.00  0.00    +0.002 C 
ATOM     20  C   UNL     1      37.749 -24.027 -12.391  0.00  0.00    +0.002 C 
ATOM     21  C   UNL     1      37.859 -25.547 -12.459  0.00  0.00    +0.000 C 
ENDBRANCH   5  16
BRANCH   7  24
ATOM     22  O   UNL     1      31.472 -24.609 -16.401  0.00  0.00    -0.274 OA
ATOM     23  N   UNL     1      31.257 -23.299 -14.488  0.00  0.00    -0.294 N 
ATOM     24  C   UNL     1      31.908 -23.771 -15.615  0.00  0.00    +0.240 C 
ATOM     25  H   UNL     1      31.711 -22.623 -13.934  0.00  0.00    +0.150 HD
BRANCH  23  26
ATOM     26  C   UNL     1      29.944 -23.747 -14.087  0.00  0.00    +0.200 C 
BRANCH  26  28
ATOM     27  O   UNL     1      29.327 -26.070 -14.219  0.00  0.00    -0.248 OA
ATOM     28  C   UNL     1      29.929 -25.182 -13.627  0.00  0.00    +0.334 C 
BRANCH  28  29
ATOM     29  O   UNL     1      30.642 -25.397 -12.497  0.00  0.00    -0.479 OA
ATOM     30  H   UNL     1      30.357 -26.041 -11.879  0.00  0.00    +0.295 HD
ENDBRANCH  28  29
ENDBRANCH  26  28
ENDBRANCH  23  26
ENDBRANCH   7  24
TORSDOF 6
ENDMDL
