MODEL 1
REMARK VINA RESULT:     -12.1      0.000      0.000
REMARK  Name = 54713659
REMARK  4 active torsions:
REMARK  status: ('A' for Active; 'I' for Inactive)
REMARK    1  A    between atoms: C_14  and  O_30
REMARK    2  A    between atoms: C_15  and  C_19
REMARK    3  A    between atoms: N_18  and  C_21
REMARK    4  A    between atoms: C_21  and  C_24
REMARK                            x       y       z     vdW  Elec       q    Type
REMARK                         _______ _______ _______ _____ _____    ______ ____
ROOT
ATOM      1  O   UNL     1      32.130 -12.506 -19.529  0.00  0.00    -0.334 OA
ATOM      2  O   UNL     1      33.074 -12.212 -24.012  0.00  0.00    -0.268 OA
ATOM      3  O   UNL     1      34.731 -16.927 -25.136  0.00  0.00    -0.283 OA
ATOM      4  N   UNL     1      32.517 -12.509 -21.799  0.00  0.00    -0.251 N 
ATOM      5  N   UNL     1      33.938 -14.882 -21.722  0.00  0.00    -0.275 N 
ATOM      6  C   UNL     1      32.398 -13.363 -20.646  0.00  0.00    +0.215 C 
ATOM      7  C   UNL     1      32.053 -11.181 -21.484  0.00  0.00    +0.107 C 
ATOM      8  C   UNL     1      33.676 -14.156 -20.474  0.00  0.00    +0.147 C 
ATOM      9  C   UNL     1      32.285 -11.146 -19.983  0.00  0.00    +0.164 C 
ATOM     10  C   UNL     1      33.044 -12.918 -23.006  0.00  0.00    +0.268 C 
ATOM     11  C   UNL     1      33.644 -14.308 -22.974  0.00  0.00    +0.143 C 
ATOM     12  C   UNL     1      30.583 -11.009 -21.853  0.00  0.00    +0.024 C 
ATOM     13  C   UNL     1      34.536 -16.133 -21.689  0.00  0.00    +0.074 C 
ATOM     14  C   UNL     1      33.888 -14.939 -24.142  0.00  0.00    +0.191 C 
ATOM     15  C   UNL     1      34.834 -16.868 -22.768  0.00  0.00    +0.110 C 
ATOM     16  C   UNL     1      34.504 -16.304 -24.103  0.00  0.00    +0.236 C 
ENDROOT
BRANCH  15  19
ATOM     17  O   UNL     1      35.730 -18.902 -23.529  0.00  0.00    -0.270 OA
ATOM     18  N   UNL     1      35.695 -18.470 -21.238  0.00  0.00    -0.297 N 
ATOM     19  C   UNL     1      35.461 -18.175 -22.571  0.00  0.00    +0.251 C 
ATOM     20  H   UNL     1      35.434 -17.804 -20.561  0.00  0.00    +0.150 HD
BRANCH  18  21
ATOM     21  C   UNL     1      36.303 -19.702 -20.788  0.00  0.00    +0.119 C 
BRANCH  21  24
ATOM     22  F   UNL     1      37.092 -21.789 -19.049  0.00  0.00    -0.204 F 
ATOM     23  F   UNL     1      32.618 -23.008 -18.105  0.00  0.00    -0.204 F 
ATOM     24  C   UNL     1      35.321 -20.584 -20.072  0.00  0.00    +0.025 C 
ATOM     25  C   UNL     1      35.778 -21.597 -19.228  0.00  0.00    +0.140 C 
ATOM     26  C   UNL     1      33.951 -20.390 -20.251  0.00  0.00    +0.002 C 
ATOM     27  C   UNL     1      34.865 -22.415 -18.563  0.00  0.00    +0.059 C 
ATOM     28  C   UNL     1      33.039 -21.210 -19.587  0.00  0.00    +0.030 C 
ATOM     29  C   UNL     1      33.495 -22.222 -18.743  0.00  0.00    +0.142 C 
ENDBRANCH  21  24
ENDBRANCH  18  21
ENDBRANCH  15  19
BRANCH  14  30
ATOM     30  O   UNL     1      33.595 -14.410 -25.379  0.00  0.00    -0.502 OA
ATOM     31  H   UNL     1      32.747 -14.540 -25.756  0.00  0.00    +0.292 HD
ENDBRANCH  14  30
TORSDOF 4
ENDMDL
MODEL 2
REMARK VINA RESULT:     -11.8      6.810     11.760
REMARK  Name = 54713659
REMARK  4 active torsions:
REMARK  status: ('A' for Active; 'I' for Inactive)
REMARK    1  A    between atoms: C_14  and  O_30
REMARK    2  A    between atoms: C_15  and  C_19
REMARK    3  A    between atoms: N_18  and  C_21
REMARK    4  A    between atoms: C_21  and  C_24
REMARK                            x       y       z     vdW  Elec       q    Type
REMARK                         _______ _______ _______ _____ _____    ______ ____
ROOT
ATOM      1  O   UNL     1      38.627 -24.390 -13.434  0.00  0.00    -0.334 OA
ATOM      2  O   UNL     1      34.588 -25.174 -11.398  0.00  0.00    -0.268 OA
ATOM      3  O   UNL     1      31.232 -24.373 -15.183  0.00  0.00    -0.283 OA
ATOM      4  N   UNL     1      36.557 -24.881 -12.551  0.00  0.00    -0.251 N 
ATOM      5  N   UNL     1      35.196 -23.695 -14.647  0.00  0.00    -0.275 N 
ATOM      6  C   UNL     1      37.255 -24.617 -13.782  0.00  0.00    +0.215 C 
ATOM      7  C   UNL     1      37.501 -25.105 -11.484  0.00  0.00    +0.107 C 
ATOM      8  C   UNL     1      36.627 -23.422 -14.468  0.00  0.00    +0.147 C 
ATOM      9  C   UNL     1      38.701 -24.327 -11.995  0.00  0.00    +0.164 C 
ATOM     10  C   UNL     1      35.184 -24.872 -12.430  0.00  0.00    +0.268 C 
ATOM     11  C   UNL     1      34.461 -24.397 -13.673  0.00  0.00    +0.143 C 
ATOM     12  C   UNL     1      37.797 -26.591 -11.312  0.00  0.00    +0.024 C 
ATOM     13  C   UNL     1      34.528 -23.212 -15.763  0.00  0.00    +0.074 C 
ATOM     14  C   UNL     1      33.141 -24.650 -13.795  0.00  0.00    +0.191 C 
ATOM     15  C   UNL     1      33.224 -23.388 -16.010  0.00  0.00    +0.110 C 
ATOM     16  C   UNL     1      32.429 -24.155 -15.016  0.00  0.00    +0.236 C 
ENDROOT
BRANCH  15  19
ATOM     17  O   UNL     1      31.447 -22.677 -17.371  0.00  0.00    -0.270 OA
ATOM     18  N   UNL     1      33.628 -22.489 -18.172  0.00  0.00    -0.297 N 
ATOM     19  C   UNL     1      32.663 -22.821 -17.236  0.00  0.00    +0.251 C 
ATOM     20  H   UNL     1      34.573 -22.653 -17.946  0.00  0.00    +0.150 HD
BRANCH  18  21
ATOM     21  C   UNL     1      33.324 -21.915 -19.463  0.00  0.00    +0.119 C 
BRANCH  21  24
ATOM     22  F   UNL     1      32.970 -19.934 -21.452  0.00  0.00    -0.204 F 
ATOM     23  F   UNL     1      37.548 -18.735 -21.402  0.00  0.00    -0.204 F 
ATOM     24  C   UNL     1      34.449 -21.067 -19.981  0.00  0.00    +0.025 C 
ATOM     25  C   UNL     1      34.206 -20.107 -20.964  0.00  0.00    +0.140 C 
ATOM     26  C   UNL     1      35.740 -21.239 -19.478  0.00  0.00    +0.002 C 
ATOM     27  C   UNL     1      35.252 -19.319 -21.444  0.00  0.00    +0.059 C 
ATOM     28  C   UNL     1      36.786 -20.452 -19.959  0.00  0.00    +0.030 C 
ATOM     29  C   UNL     1      36.543 -19.491 -20.941  0.00  0.00    +0.142 C 
ENDBRANCH  21  24
ENDBRANCH  18  21
ENDBRANCH  15  19
BRANCH  14  30
ATOM     30  O   UNL     1      32.401 -25.348 -12.868  0.00  0.00    -0.502 OA
ATOM     31  H   UNL     1      32.701 -25.414 -11.982  0.00  0.00    +0.292 HD
ENDBRANCH  14  30
TORSDOF 4
ENDMDL
MODEL 3
REMARK VINA RESULT:     -11.5      4.695      9.660
REMARK  Name = 54713659
REMARK  4 active torsions:
REMARK  status: ('A' for Active; 'I' for Inactive)
REMARK    1  A    between atoms: C_14  and  O_30
REMARK    2  A    between atoms: C_15  and  C_19
REMARK    3  A    between atoms: N_18  and  C_21
REMARK    4  A    between atoms: C_21  and  C_24
REMARK                            x       y       z     vdW  Elec       q    Type
REMARK                         _______ _______ _______ _____ _____    ______ ____
ROOT
ATOM      1  O   UNL     1      38.076 -23.543 -14.539  0.00  0.00    -0.334 OA
ATOM      2  O   UNL     1      33.744 -23.684 -16.052  0.00  0.00    -0.268 OA
ATOM      3  O   UNL     1      34.034 -21.268 -20.559  0.00  0.00    -0.283 OA
ATOM      4  N   UNL     1      35.965 -23.666 -15.453  0.00  0.00    -0.251 N 
ATOM      5  N   UNL     1      36.506 -21.754 -17.379  0.00  0.00    -0.275 N 
ATOM      6  C   UNL     1      37.334 -23.332 -15.748  0.00  0.00    +0.215 C 
ATOM      7  C   UNL     1      35.882 -24.344 -14.184  0.00  0.00    +0.107 C 
ATOM      8  C   UNL     1      37.410 -21.900 -16.231  0.00  0.00    +0.147 C 
ATOM      9  C   UNL     1      37.122 -23.808 -13.490  0.00  0.00    +0.164 C 
ATOM     10  C   UNL     1      34.902 -23.332 -16.266  0.00  0.00    +0.268 C 
ATOM     11  C   UNL     1      35.275 -22.436 -17.428  0.00  0.00    +0.143 C 
ATOM     12  C   UNL     1      35.920 -25.858 -14.365  0.00  0.00    +0.024 C 
ATOM     13  C   UNL     1      36.829 -20.890 -18.415  0.00  0.00    +0.074 C 
ATOM     14  C   UNL     1      34.411 -22.311 -18.458  0.00  0.00    +0.191 C 
ATOM     15  C   UNL     1      36.067 -20.671 -19.494  0.00  0.00    +0.110 C 
ATOM     16  C   UNL     1      34.777 -21.403 -19.591  0.00  0.00    +0.236 C 
ENDROOT
BRANCH  15  19
ATOM     17  O   UNL     1      37.706 -19.319 -20.495  0.00  0.00    -0.270 OA
ATOM     18  N   UNL     1      35.574 -19.390 -21.433  0.00  0.00    -0.297 N 
ATOM     19  C   UNL     1      36.546 -19.733 -20.509  0.00  0.00    +0.251 C 
ATOM     20  H   UNL     1      34.678 -19.789 -21.338  0.00  0.00    +0.150 HD
BRANCH  18  21
ATOM     21  C   UNL     1      35.802 -18.477 -22.530  0.00  0.00    +0.119 C 
BRANCH  21  24
ATOM     22  F   UNL     1      35.072 -16.673 -24.584  0.00  0.00    -0.204 F 
ATOM     23  F   UNL     1      33.666 -13.370 -21.500  0.00  0.00    -0.204 F 
ATOM     24  C   UNL     1      35.233 -17.115 -22.257  0.00  0.00    +0.025 C 
ATOM     25  C   UNL     1      34.894 -16.273 -23.317  0.00  0.00    +0.140 C 
ATOM     26  C   UNL     1      35.042 -16.691 -20.941  0.00  0.00    +0.002 C 
ATOM     27  C   UNL     1      34.364 -15.009 -23.062  0.00  0.00    +0.059 C 
ATOM     28  C   UNL     1      34.514 -15.426 -20.686  0.00  0.00    +0.030 C 
ATOM     29  C   UNL     1      34.174 -14.584 -21.746  0.00  0.00    +0.142 C 
ENDBRANCH  21  24
ENDBRANCH  18  21
ENDBRANCH  15  19
BRANCH  14  30
ATOM     30  O   UNL     1      33.210 -22.978 -18.540  0.00  0.00    -0.502 OA
ATOM     31  H   UNL     1      32.493 -22.598 -19.008  0.00  0.00    +0.292 HD
ENDBRANCH  14  30
TORSDOF 4
ENDMDL
MODEL 4
REMARK VINA RESULT:     -11.5      2.744      4.880
REMARK  Name = 54713659
REMARK  4 active torsions:
REMARK  status: ('A' for Active; 'I' for Inactive)
REMARK    1  A    between atoms: C_14  and  O_30
REMARK    2  A    between atoms: C_15  and  C_19
REMARK    3  A    between atoms: N_18  and  C_21
REMARK    4  A    between atoms: C_21  and  C_24
REMARK                            x       y       z     vdW  Elec       q    Type
REMARK                         _______ _______ _______ _____ _____    ______ ____
ROOT
ATOM      1  O   UNL     1      32.883  -7.165 -23.355  0.00  0.00    -0.334 OA
ATOM      2  O   UNL     1      31.261  -9.744 -19.921  0.00  0.00    -0.268 OA
ATOM      3  O   UNL     1      32.774 -14.460 -21.228  0.00  0.00    -0.283 OA
ATOM      4  N   UNL     1      32.226  -8.536 -21.625  0.00  0.00    -0.251 N 
ATOM      5  N   UNL     1      32.643 -10.852 -23.080  0.00  0.00    -0.275 N 
ATOM      6  C   UNL     1      33.036  -8.483 -22.813  0.00  0.00    +0.215 C 
ATOM      7  C   UNL     1      31.798  -7.209 -21.256  0.00  0.00    +0.107 C 
ATOM      8  C   UNL     1      32.587  -9.561 -23.776  0.00  0.00    +0.147 C 
ATOM      9  C   UNL     1      31.839  -6.510 -22.604  0.00  0.00    +0.164 C 
ATOM     10  C   UNL     1      31.887  -9.705 -20.978  0.00  0.00    +0.268 C 
ATOM     11  C   UNL     1      32.307 -10.959 -21.717  0.00  0.00    +0.143 C 
ATOM     12  C   UNL     1      32.751  -6.584 -20.243  0.00  0.00    +0.024 C 
ATOM     13  C   UNL     1      32.976 -12.005 -23.774  0.00  0.00    +0.074 C 
ATOM     14  C   UNL     1      32.329 -12.132 -21.049  0.00  0.00    +0.191 C 
ATOM     15  C   UNL     1      33.037 -13.231 -23.239  0.00  0.00    +0.110 C 
ATOM     16  C   UNL     1      32.721 -13.371 -21.793  0.00  0.00    +0.236 C 
ENDROOT
BRANCH  15  19
ATOM     17  O   UNL     1      32.960 -14.453 -25.243  0.00  0.00    -0.270 OA
ATOM     18  N   UNL     1      34.286 -15.236 -23.493  0.00  0.00    -0.297 N 
ATOM     19  C   UNL     1      33.410 -14.352 -24.101  0.00  0.00    +0.251 C 
ATOM     20  H   UNL     1      34.575 -15.046 -22.571  0.00  0.00    +0.150 HD
BRANCH  18  21
ATOM     21  C   UNL     1      34.799 -16.423 -24.139  0.00  0.00    +0.119 C 
BRANCH  21  24
ATOM     22  F   UNL     1      33.879 -19.038 -24.703  0.00  0.00    -0.204 F 
ATOM     23  F   UNL     1      35.361 -20.709 -20.531  0.00  0.00    -0.204 F 
ATOM     24  C   UNL     1      34.948 -17.566 -23.178  0.00  0.00    +0.025 C 
ATOM     25  C   UNL     1      34.472 -18.833 -23.518  0.00  0.00    +0.140 C 
ATOM     26  C   UNL     1      35.564 -17.362 -21.942  0.00  0.00    +0.002 C 
ATOM     27  C   UNL     1      34.611 -19.894 -22.625  0.00  0.00    +0.059 C 
ATOM     28  C   UNL     1      35.703 -18.424 -21.049  0.00  0.00    +0.030 C 
ATOM     29  C   UNL     1      35.227 -19.690 -21.389  0.00  0.00    +0.142 C 
ENDBRANCH  21  24
ENDBRANCH  18  21
ENDBRANCH  15  19
BRANCH  14  30
ATOM     30  O   UNL     1      32.023 -12.264 -19.713  0.00  0.00    -0.502 OA
ATOM     31  H   UNL     1      32.548 -12.810 -19.163  0.00  0.00    +0.292 HD
ENDBRANCH  14  30
TORSDOF 4
ENDMDL
MODEL 5
REMARK VINA RESULT:     -11.1      1.847      3.341
REMARK  Name = 54713659
REMARK  4 active torsions:
REMARK  status: ('A' for Active; 'I' for Inactive)
REMARK    1  A    between atoms: C_14  and  O_30
REMARK    2  A    between atoms: C_15  and  C_19
REMARK    3  A    between atoms: N_18  and  C_21
REMARK    4  A    between atoms: C_21  and  C_24
REMARK                            x       y       z     vdW  Elec       q    Type
REMARK                         _______ _______ _______ _____ _____    ______ ____
ROOT
ATOM      1  O   UNL     1      32.806  -8.989 -23.987  0.00  0.00    -0.334 OA
ATOM      2  O   UNL     1      31.094 -11.132 -20.306  0.00  0.00    -0.268 OA
ATOM      3  O   UNL     1      33.665 -15.563 -20.272  0.00  0.00    -0.283 OA
ATOM      4  N   UNL     1      32.112 -10.102 -22.094  0.00  0.00    -0.251 N 
ATOM      5  N   UNL     1      33.207 -12.510 -22.905  0.00  0.00    -0.275 N 
ATOM      6  C   UNL     1      33.100 -10.108 -23.140  0.00  0.00    +0.215 C 
ATOM      7  C   UNL     1      31.386  -8.856 -22.104  0.00  0.00    +0.107 C 
ATOM      8  C   UNL     1      33.040 -11.426 -23.881  0.00  0.00    +0.147 C 
ATOM      9  C   UNL     1      31.542  -8.445 -23.558  0.00  0.00    +0.164 C 
ATOM     10  C   UNL     1      31.884 -11.166 -21.248  0.00  0.00    +0.268 C 
ATOM     11  C   UNL     1      32.655 -12.417 -21.613  0.00  0.00    +0.143 C 
ATOM     12  C   UNL     1      32.008  -7.849 -21.141  0.00  0.00    +0.024 C 
ATOM     13  C   UNL     1      33.868 -13.676 -23.263  0.00  0.00    +0.074 C 
ATOM     14  C   UNL     1      32.772 -13.401 -20.696  0.00  0.00    +0.191 C 
ATOM     15  C   UNL     1      34.056 -14.727 -22.456  0.00  0.00    +0.110 C 
ATOM     16  C   UNL     1      33.515 -14.645 -21.074  0.00  0.00    +0.236 C 
ENDROOT
BRANCH  15  19
ATOM     17  O   UNL     1      34.916 -16.060 -24.190  0.00  0.00    -0.270 OA
ATOM     18  N   UNL     1      35.264 -16.717 -21.981  0.00  0.00    -0.297 N 
ATOM     19  C   UNL     1      34.781 -15.887 -22.978  0.00  0.00    +0.251 C 
ATOM     20  H   UNL     1      35.091 -16.470 -21.043  0.00  0.00    +0.150 HD
BRANCH  18  21
ATOM     21  C   UNL     1      36.010 -17.927 -22.242  0.00  0.00    +0.119 C 
BRANCH  21  24
ATOM     22  F   UNL     1      37.821 -19.389 -20.633  0.00  0.00    -0.204 F 
ATOM     23  F   UNL     1      34.401 -22.160 -18.894  0.00  0.00    -0.204 F 
ATOM     24  C   UNL     1      35.583 -19.056 -21.349  0.00  0.00    +0.025 C 
ATOM     25  C   UNL     1      36.528 -19.737 -20.581  0.00  0.00    +0.140 C 
ATOM     26  C   UNL     1      34.238 -19.424 -21.288  0.00  0.00    +0.002 C 
ATOM     27  C   UNL     1      36.129 -20.784 -19.752  0.00  0.00    +0.059 C 
ATOM     28  C   UNL     1      33.840 -20.473 -20.459  0.00  0.00    +0.030 C 
ATOM     29  C   UNL     1      34.785 -21.153 -19.690  0.00  0.00    +0.142 C 
ENDBRANCH  21  24
ENDBRANCH  18  21
ENDBRANCH  15  19
BRANCH  14  30
ATOM     30  O   UNL     1      32.258 -13.331 -19.421  0.00  0.00    -0.502 OA
ATOM     31  H   UNL     1      32.708 -12.842 -18.761  0.00  0.00    +0.292 HD
ENDBRANCH  14  30
TORSDOF 4
ENDMDL
MODEL 6
REMARK VINA RESULT:     -10.5      4.904      8.214
REMARK  Name = 54713659
REMARK  4 active torsions:
REMARK  status: ('A' for Active; 'I' for Inactive)
REMARK    1  A    between atoms: C_14  and  O_30
REMARK    2  A    between atoms: C_15  and  C_19
REMARK    3  A    between atoms: N_18  and  C_21
REMARK    4  A    between atoms: C_21  and  C_24
REMARK                            x       y       z     vdW  Elec       q    Type
REMARK                         _______ _______ _______ _____ _____    ______ ____
ROOT
ATOM      1  O   UNL     1      37.935 -18.944 -20.694  0.00  0.00    -0.334 OA
ATOM      2  O   UNL     1      33.629 -20.133 -21.750  0.00  0.00    -0.268 OA
ATOM      3  O   UNL     1      32.166 -22.855 -17.665  0.00  0.00    -0.283 OA
ATOM      4  N   UNL     1      35.728 -19.491 -21.063  0.00  0.00    -0.251 N 
ATOM      5  N   UNL     1      35.686 -21.384 -19.045  0.00  0.00    -0.275 N 
ATOM      6  C   UNL     1      36.763 -19.475 -20.062  0.00  0.00    +0.215 C 
ATOM      7  C   UNL     1      36.139 -18.726 -22.214  0.00  0.00    +0.107 C 
ATOM      8  C   UNL     1      36.974 -20.878 -19.535  0.00  0.00    +0.147 C 
ATOM      9  C   UNL     1      37.650 -18.832 -22.103  0.00  0.00    +0.164 C 
ATOM     10  C   UNL     1      34.543 -20.183 -20.930  0.00  0.00    +0.268 C 
ATOM     11  C   UNL     1      34.482 -21.066 -19.702  0.00  0.00    +0.143 C 
ATOM     12  C   UNL     1      35.645 -17.286 -22.125  0.00  0.00    +0.024 C 
ATOM     13  C   UNL     1      35.642 -22.236 -17.951  0.00  0.00    +0.074 C 
ATOM     14  C   UNL     1      33.282 -21.528 -19.290  0.00  0.00    +0.191 C 
ATOM     15  C   UNL     1      34.525 -22.766 -17.439  0.00  0.00    +0.110 C 
ATOM     16  C   UNL     1      33.233 -22.422 -18.089  0.00  0.00    +0.236 C 
ENDROOT
BRANCH  15  19
ATOM     17  O   UNL     1      34.248 -24.813 -16.320  0.00  0.00    -0.270 OA
ATOM     18  N   UNL     1      35.211 -23.023 -15.179  0.00  0.00    -0.297 N 
ATOM     19  C   UNL     1      34.639 -23.646 -16.275  0.00  0.00    +0.251 C 
ATOM     20  H   UNL     1      35.484 -22.081 -15.267  0.00  0.00    +0.150 HD
BRANCH  18  21
ATOM     21  C   UNL     1      35.429 -23.683 -13.911  0.00  0.00    +0.119 C 
BRANCH  21  24
ATOM     22  F   UNL     1      36.052 -25.667 -11.993  0.00  0.00    -0.204 F 
ATOM     23  F   UNL     1      40.407 -26.308 -13.730  0.00  0.00    -0.204 F 
ATOM     24  C   UNL     1      36.756 -24.383 -13.862  0.00  0.00    +0.025 C 
ATOM     25  C   UNL     1      36.999 -25.353 -12.889  0.00  0.00    +0.140 C 
ATOM     26  C   UNL     1      37.747 -24.063 -14.790  0.00  0.00    +0.002 C 
ATOM     27  C   UNL     1      38.231 -26.004 -12.844  0.00  0.00    +0.059 C 
ATOM     28  C   UNL     1      38.980 -24.713 -14.745  0.00  0.00    +0.030 C 
ATOM     29  C   UNL     1      39.223 -25.684 -13.773  0.00  0.00    +0.142 C 
ENDBRANCH  21  24
ENDBRANCH  18  21
ENDBRANCH  15  19
BRANCH  14  30
ATOM     30  O   UNL     1      32.088 -21.221 -19.902  0.00  0.00    -0.502 OA
ATOM     31  H   UNL     1      32.026 -21.221 -20.837  0.00  0.00    +0.292 HD
ENDBRANCH  14  30
TORSDOF 4
ENDMDL
MODEL 7
REMARK VINA RESULT:     -10.4      1.970      2.956
REMARK  Name = 54713659
REMARK  4 active torsions:
REMARK  status: ('A' for Active; 'I' for Inactive)
REMARK    1  A    between atoms: C_14  and  O_30
REMARK    2  A    between atoms: C_15  and  C_19
REMARK    3  A    between atoms: N_18  and  C_21
REMARK    4  A    between atoms: C_21  and  C_24
REMARK                            x       y       z     vdW  Elec       q    Type
REMARK                         _______ _______ _______ _____ _____    ______ ____
ROOT
ATOM      1  O   UNL     1      33.743 -12.960 -22.067  0.00  0.00    -0.334 OA
ATOM      2  O   UNL     1      33.939 -16.000 -25.501  0.00  0.00    -0.268 OA
ATOM      3  O   UNL     1      35.168 -20.353 -23.098  0.00  0.00    -0.283 OA
ATOM      4  N   UNL     1      33.745 -14.593 -23.691  0.00  0.00    -0.251 N 
ATOM      5  N   UNL     1      35.049 -16.427 -22.081  0.00  0.00    -0.275 N 
ATOM      6  C   UNL     1      33.781 -14.379 -22.268  0.00  0.00    +0.215 C 
ATOM      7  C   UNL     1      33.401 -13.368 -24.368  0.00  0.00    +0.107 C 
ATOM      8  C   UNL     1      35.033 -15.010 -21.696  0.00  0.00    +0.147 C 
ATOM      9  C   UNL     1      33.881 -12.339 -23.361  0.00  0.00    +0.164 C 
ATOM     10  C   UNL     1      34.045 -15.797 -24.293  0.00  0.00    +0.268 C 
ATOM     11  C   UNL     1      34.577 -16.845 -23.339  0.00  0.00    +0.143 C 
ATOM     12  C   UNL     1      31.900 -13.282 -24.623  0.00  0.00    +0.024 C 
ATOM     13  C   UNL     1      35.587 -17.376 -21.224  0.00  0.00    +0.074 C 
ATOM     14  C   UNL     1      34.594 -18.136 -23.734  0.00  0.00    +0.191 C 
ATOM     15  C   UNL     1      35.667 -18.686 -21.486  0.00  0.00    +0.110 C 
ATOM     16  C   UNL     1      35.145 -19.164 -22.794  0.00  0.00    +0.236 C 
ENDROOT
BRANCH  15  19
ATOM     17  O   UNL     1      37.262 -19.229 -19.849  0.00  0.00    -0.270 OA
ATOM     18  N   UNL     1      35.575 -20.763 -20.335  0.00  0.00    -0.297 N 
ATOM     19  C   UNL     1      36.258 -19.566 -20.478  0.00  0.00    +0.251 C 
ATOM     20  H   UNL     1      34.782 -20.917 -20.898  0.00  0.00    +0.150 HD
BRANCH  18  21
ATOM     21  C   UNL     1      35.965 -21.798 -19.404  0.00  0.00    +0.119 C 
BRANCH  21  24
ATOM     22  F   UNL     1      36.328 -22.917 -16.831  0.00  0.00    -0.204 F 
ATOM     23  F   UNL     1      31.673 -23.417 -16.138  0.00  0.00    -0.204 F 
ATOM     24  C   UNL     1      34.822 -22.230 -18.532  0.00  0.00    +0.025 C 
ATOM     25  C   UNL     1      35.070 -22.776 -17.273  0.00  0.00    +0.140 C 
ATOM     26  C   UNL     1      33.509 -22.085 -18.983  0.00  0.00    +0.002 C 
ATOM     27  C   UNL     1      34.007 -23.177 -16.464  0.00  0.00    +0.059 C 
ATOM     28  C   UNL     1      32.446 -22.487 -18.174  0.00  0.00    +0.030 C 
ATOM     29  C   UNL     1      32.694 -23.032 -16.915  0.00  0.00    +0.142 C 
ENDBRANCH  21  24
ENDBRANCH  18  21
ENDBRANCH  15  19
BRANCH  14  30
ATOM     30  O   UNL     1      34.124 -18.576 -24.950  0.00  0.00    -0.502 OA
ATOM     31  H   UNL     1      33.684 -19.401 -25.013  0.00  0.00    +0.292 HD
ENDBRANCH  14  30
TORSDOF 4
ENDMDL
MODEL 8
REMARK VINA RESULT:     -10.1      4.361      8.717
REMARK  Name = 54713659
REMARK  4 active torsions:
REMARK  status: ('A' for Active; 'I' for Inactive)
REMARK    1  A    between atoms: C_14  and  O_30
REMARK    2  A    between atoms: C_15  and  C_19
REMARK    3  A    between atoms: N_18  and  C_21
REMARK    4  A    between atoms: C_21  and  C_24
REMARK                            x       y       z     vdW  Elec       q    Type
REMARK                         _______ _______ _______ _____ _____    ______ ____
ROOT
ATOM      1  O   UNL     1      35.791 -18.074 -20.720  0.00  0.00    -0.334 OA
ATOM      2  O   UNL     1      33.571 -18.143 -24.737  0.00  0.00    -0.268 OA
ATOM      3  O   UNL     1      33.342 -13.183 -25.995  0.00  0.00    -0.283 OA
ATOM      4  N   UNL     1      34.799 -18.000 -22.797  0.00  0.00    -0.251 N 
ATOM      5  N   UNL     1      34.340 -15.275 -22.665  0.00  0.00    -0.275 N 
ATOM      6  C   UNL     1      35.520 -17.211 -21.832  0.00  0.00    +0.215 C 
ATOM      7  C   UNL     1      34.861 -19.396 -22.443  0.00  0.00    +0.107 C 
ATOM      8  C   UNL     1      34.686 -16.009 -21.442  0.00  0.00    +0.147 C 
ATOM      9  C   UNL     1      35.068 -19.302 -20.941  0.00  0.00    +0.164 C 
ATOM     10  C   UNL     1      34.120 -17.465 -23.871  0.00  0.00    +0.268 C 
ATOM     11  C   UNL     1      34.056 -15.952 -23.866  0.00  0.00    +0.143 C 
ATOM     12  C   UNL     1      36.019 -20.093 -23.150  0.00  0.00    +0.024 C 
ATOM     13  C   UNL     1      34.231 -13.892 -22.640  0.00  0.00    +0.074 C 
ATOM     14  C   UNL     1      33.716 -15.310 -25.004  0.00  0.00    +0.191 C 
ATOM     15  C   UNL     1      33.903 -13.131 -23.692  0.00  0.00    +0.110 C 
ATOM     16  C   UNL     1      33.631 -13.815 -24.983  0.00  0.00    +0.236 C 
ENDROOT
BRANCH  15  19
ATOM     17  O   UNL     1      34.857 -10.997 -23.463  0.00  0.00    -0.270 OA
ATOM     18  N   UNL     1      32.536 -11.209 -23.405  0.00  0.00    -0.297 N 
ATOM     19  C   UNL     1      33.833 -11.681 -23.511  0.00  0.00    +0.251 C 
ATOM     20  H   UNL     1      31.798 -11.859 -23.458  0.00  0.00    +0.150 HD
BRANCH  18  21
ATOM     21  C   UNL     1      32.207  -9.814 -23.218  0.00  0.00    +0.119 C 
BRANCH  21  24
ATOM     22  F   UNL     1      32.939  -7.314 -22.115  0.00  0.00    -0.204 F 
ATOM     23  F   UNL     1      31.465  -8.532 -17.786  0.00  0.00    -0.204 F 
ATOM     24  C   UNL     1      32.010  -9.471 -21.770  0.00  0.00    +0.025 C 
ATOM     25  C   UNL     1      32.394  -8.219 -21.290  0.00  0.00    +0.140 C 
ATOM     26  C   UNL     1      31.442 -10.406 -20.904  0.00  0.00    +0.002 C 
ATOM     27  C   UNL     1      32.210  -7.901 -19.945  0.00  0.00    +0.059 C 
ATOM     28  C   UNL     1      31.259 -10.088 -19.559  0.00  0.00    +0.030 C 
ATOM     29  C   UNL     1      31.642  -8.836 -19.078  0.00  0.00    +0.142 C 
ENDBRANCH  21  24
ENDBRANCH  18  21
ENDBRANCH  15  19
BRANCH  14  30
ATOM     30  O   UNL     1      33.450 -15.946 -26.196  0.00  0.00    -0.502 OA
ATOM     31  H   UNL     1      34.151 -16.160 -26.779  0.00  0.00    +0.292 HD
ENDBRANCH  14  30
TORSDOF 4
ENDMDL
MODEL 9
REMARK VINA RESULT:      -9.9      5.596      8.557
REMARK  Name = 54713659
REMARK  4 active torsions:
REMARK  status: ('A' for Active; 'I' for Inactive)
REMARK    1  A    between atoms: C_14  and  O_30
REMARK    2  A    between atoms: C_15  and  C_19
REMARK    3  A    between atoms: N_18  and  C_21
REMARK    4  A    between atoms: C_21  and  C_24
REMARK                            x       y       z     vdW  Elec       q    Type
REMARK                         _______ _______ _______ _____ _____    ______ ____
ROOT
ATOM      1  O   UNL     1      30.497  -3.210 -23.897  0.00  0.00    -0.334 OA
ATOM      2  O   UNL     1      34.553  -4.971 -25.131  0.00  0.00    -0.268 OA
ATOM      3  O   UNL     1      34.259  -9.796 -23.438  0.00  0.00    -0.283 OA
ATOM      4  N   UNL     1      32.445  -4.232 -24.578  0.00  0.00    -0.251 N 
ATOM      5  N   UNL     1      32.075  -6.417 -22.921  0.00  0.00    -0.275 N 
ATOM      6  C   UNL     1      31.139  -4.485 -24.029  0.00  0.00    +0.215 C 
ATOM      7  C   UNL     1      32.530  -2.874 -25.053  0.00  0.00    +0.107 C 
ATOM      8  C   UNL     1      31.280  -5.202 -22.703  0.00  0.00    +0.147 C 
ATOM      9  C   UNL     1      31.487  -2.199 -24.180  0.00  0.00    +0.164 C 
ATOM     10  C   UNL     1      33.464  -5.162 -24.593  0.00  0.00    +0.268 C 
ATOM     11  C   UNL     1      33.147  -6.432 -23.833  0.00  0.00    +0.143 C 
ATOM     12  C   UNL     1      32.195  -2.788 -26.539  0.00  0.00    +0.024 C 
ATOM     13  C   UNL     1      31.814  -7.562 -22.183  0.00  0.00    +0.074 C 
ATOM     14  C   UNL     1      33.910  -7.526 -24.044  0.00  0.00    +0.191 C 
ATOM     15  C   UNL     1      32.489  -8.712 -22.290  0.00  0.00    +0.110 C 
ATOM     16  C   UNL     1      33.606  -8.771 -23.270  0.00  0.00    +0.236 C 
ENDROOT
BRANCH  15  19
ATOM     17  O   UNL     1      31.920  -9.694 -20.234  0.00  0.00    -0.270 OA
ATOM     18  N   UNL     1      31.945 -11.021 -22.150  0.00  0.00    -0.297 N 
ATOM     19  C   UNL     1      32.092  -9.838 -21.445  0.00  0.00    +0.251 C 
ATOM     20  H   UNL     1      32.112 -11.009 -23.121  0.00  0.00    +0.150 HD
BRANCH  18  21
ATOM     21  C   UNL     1      31.561 -12.273 -21.538  0.00  0.00    +0.119 C 
BRANCH  21  24
ATOM     22  F   UNL     1      32.373 -13.994 -19.444  0.00  0.00    -0.204 F 
ATOM     23  F   UNL     1      35.508 -16.236 -22.190  0.00  0.00    -0.204 F 
ATOM     24  C   UNL     1      32.613 -13.330 -21.710  0.00  0.00    +0.025 C 
ATOM     25  C   UNL     1      32.968 -14.145 -20.636  0.00  0.00    +0.140 C 
ATOM     26  C   UNL     1      33.237 -13.496 -22.948  0.00  0.00    +0.002 C 
ATOM     27  C   UNL     1      33.945 -15.127 -20.797  0.00  0.00    +0.059 C 
ATOM     28  C   UNL     1      34.215 -14.477 -23.109  0.00  0.00    +0.030 C 
ATOM     29  C   UNL     1      34.569 -15.293 -22.035  0.00  0.00    +0.142 C 
ENDBRANCH  21  24
ENDBRANCH  18  21
ENDBRANCH  15  19
BRANCH  14  30
ATOM     30  O   UNL     1      34.953  -7.574 -24.941  0.00  0.00    -0.502 OA
ATOM     31  H   UNL     1      34.781  -7.683 -25.856  0.00  0.00    +0.292 HD
ENDBRANCH  14  30
TORSDOF 4
ENDMDL
