MODEL 1
REMARK VINA RESULT:     -12.2      0.000      0.000
REMARK  Name = 10389239
REMARK  2 active torsions:
REMARK  status: ('A' for Active; 'I' for Inactive)
REMARK    1  A    between atoms: C_2  and  C_14
REMARK    2  A    between atoms: C_4  and  C_20
REMARK                            x       y       z     vdW  Elec       q    Type
REMARK                         _______ _______ _______ _____ _____    ______ ____
ROOT
ATOM      1  N   UNL     1      32.450 -22.763 -17.637  0.00  0.00    -0.244 NA
ATOM      2  C   UNL     1      34.435 -23.787 -15.958  0.00  0.00    +0.016 C 
ATOM      3  C   UNL     1      34.781 -22.964 -17.023  0.00  0.00    +0.020 C 
ATOM      4  C   UNL     1      33.759 -22.482 -17.826  0.00  0.00    +0.083 C 
ATOM      5  C   UNL     1      33.100 -24.101 -15.730  0.00  0.00    +0.022 C 
ATOM      6  C   UNL     1      32.154 -23.567 -16.591  0.00  0.00    +0.099 C 
ENDROOT
BRANCH   2  14
ATOM      7  O   UNL     1      36.408 -26.173 -11.281  0.00  0.00    -0.270 OA
ATOM      8  N   UNL     1      36.793 -24.245 -15.410  0.00  0.00    -0.316 N 
ATOM      9  N   UNL     1      38.505 -26.202 -12.250  0.00  0.00    -0.300 N 
ATOM     10  C   UNL     1      37.520 -24.819 -14.407  0.00  0.00    +0.031 C 
ATOM     11  C   UNL     1      38.997 -24.924 -14.348  0.00  0.00    +0.063 C 
ATOM     12  C   UNL     1      36.653 -25.270 -13.435  0.00  0.00    +0.064 C 
ATOM     13  C   UNL     1      39.347 -26.116 -13.450  0.00  0.00    +0.096 C 
ATOM     14  C   UNL     1      35.460 -24.317 -15.089  0.00  0.00    +0.048 C 
ATOM     15  C   UNL     1      35.344 -24.943 -13.864  0.00  0.00    +0.020 C 
ATOM     16  C   UNL     1      37.140 -25.919 -12.232  0.00  0.00    +0.247 C 
ATOM     17  H   UNL     1      37.164 -23.846 -16.230  0.00  0.00    +0.152 HD
ATOM     18  H   UNL     1      38.932 -26.476 -11.407  0.00  0.00    +0.150 HD
ENDBRANCH   2  14
BRANCH   4  20
ATOM     19  N   UNL     1      33.237 -20.409 -20.878  0.00  0.00    -0.244 NA
ATOM     20  C   UNL     1      34.041 -21.622 -18.951  0.00  0.00    +0.037 C 
ATOM     21  C   UNL     1      35.329 -21.177 -19.211  0.00  0.00    +0.005 C 
ATOM     22  C   UNL     1      35.578 -20.342 -20.309  0.00  0.00    +0.018 C 
ATOM     23  C   UNL     1      34.488 -19.978 -21.128  0.00  0.00    +0.081 C 
ATOM     24  C   UNL     1      33.039 -21.213 -19.809  0.00  0.00    +0.100 C 
ATOM     25  C   UNL     1      36.871 -19.873 -20.599  0.00  0.00    +0.001 C 
ATOM     26  C   UNL     1      34.736 -19.149 -22.218  0.00  0.00    +0.019 C 
ATOM     27  C   UNL     1      37.090 -19.045 -21.697  0.00  0.00    +0.000 C 
ATOM     28  C   UNL     1      36.021 -18.683 -22.507  0.00  0.00    +0.002 C 
ENDBRANCH   4  20
TORSDOF 2
ENDMDL
MODEL 2
REMARK VINA RESULT:     -12.1      6.513     11.799
REMARK  Name = 10389239
REMARK  2 active torsions:
REMARK  status: ('A' for Active; 'I' for Inactive)
REMARK    1  A    between atoms: C_2  and  C_14
REMARK    2  A    between atoms: C_4  and  C_20
REMARK                            x       y       z     vdW  Elec       q    Type
REMARK                         _______ _______ _______ _____ _____    ______ ____
ROOT
ATOM      1  N   UNL     1      35.106 -17.648 -23.873  0.00  0.00    -0.244 NA
ATOM      2  C   UNL     1      33.997 -15.223 -23.036  0.00  0.00    +0.016 C 
ATOM      3  C   UNL     1      34.330 -16.196 -22.101  0.00  0.00    +0.020 C 
ATOM      4  C   UNL     1      34.876 -17.381 -22.567  0.00  0.00    +0.083 C 
ATOM      5  C   UNL     1      34.216 -15.459 -24.389  0.00  0.00    +0.022 C 
ATOM      6  C   UNL     1      34.769 -16.678 -24.751  0.00  0.00    +0.099 C 
ENDROOT
BRANCH   2  14
ATOM      7  O   UNL     1      32.510  -9.845 -23.606  0.00  0.00    -0.270 OA
ATOM      8  N   UNL     1      32.956 -13.786 -21.327  0.00  0.00    -0.316 N 
ATOM      9  N   UNL     1      31.515  -9.961 -21.524  0.00  0.00    -0.300 N 
ATOM     10  C   UNL     1      32.481 -12.512 -21.211  0.00  0.00    +0.031 C 
ATOM     11  C   UNL     1      31.912 -11.899 -19.988  0.00  0.00    +0.063 C 
ATOM     12  C   UNL     1      32.636 -11.869 -22.422  0.00  0.00    +0.064 C 
ATOM     13  C   UNL     1      30.975 -10.766 -20.422  0.00  0.00    +0.096 C 
ATOM     14  C   UNL     1      33.425 -13.970 -22.606  0.00  0.00    +0.048 C 
ATOM     15  C   UNL     1      33.244 -12.793 -23.305  0.00  0.00    +0.020 C 
ATOM     16  C   UNL     1      32.228 -10.488 -22.599  0.00  0.00    +0.247 C 
ATOM     17  H   UNL     1      32.962 -14.462 -20.613  0.00  0.00    +0.152 HD
ATOM     18  H   UNL     1      31.364  -8.988 -21.501  0.00  0.00    +0.150 HD
ENDBRANCH   2  14
BRANCH   4  20
ATOM     19  N   UNL     1      36.964 -19.562 -20.383  0.00  0.00    -0.244 NA
ATOM     20  C   UNL     1      35.247 -18.438 -21.656  0.00  0.00    +0.037 C 
ATOM     21  C   UNL     1      34.305 -19.333 -21.171  0.00  0.00    +0.005 C 
ATOM     22  C   UNL     1      34.689 -20.350 -20.287  0.00  0.00    +0.018 C 
ATOM     23  C   UNL     1      36.047 -20.430 -19.915  0.00  0.00    +0.081 C 
ATOM     24  C   UNL     1      36.553 -18.595 -21.235  0.00  0.00    +0.100 C 
ATOM     25  C   UNL     1      33.758 -21.273 -19.778  0.00  0.00    +0.001 C 
ATOM     26  C   UNL     1      36.428 -21.440 -19.037  0.00  0.00    +0.019 C 
ATOM     27  C   UNL     1      34.167 -22.274 -18.901  0.00  0.00    +0.000 C 
ATOM     28  C   UNL     1      35.504 -22.358 -18.530  0.00  0.00    +0.002 C 
ENDBRANCH   4  20
TORSDOF 2
ENDMDL
MODEL 3
REMARK VINA RESULT:     -11.8      3.335      8.486
REMARK  Name = 10389239
REMARK  2 active torsions:
REMARK  status: ('A' for Active; 'I' for Inactive)
REMARK    1  A    between atoms: C_2  and  C_14
REMARK    2  A    between atoms: C_4  and  C_20
REMARK                            x       y       z     vdW  Elec       q    Type
REMARK                         _______ _______ _______ _____ _____    ______ ____
ROOT
ATOM      1  N   UNL     1      35.979 -23.576 -15.256  0.00  0.00    -0.244 NA
ATOM      2  C   UNL     1      35.998 -22.032 -17.585  0.00  0.00    +0.016 C 
ATOM      3  C   UNL     1      34.800 -22.536 -17.093  0.00  0.00    +0.020 C 
ATOM      4  C   UNL     1      34.844 -23.296 -15.935  0.00  0.00    +0.083 C 
ATOM      5  C   UNL     1      37.188 -22.298 -16.916  0.00  0.00    +0.022 C 
ATOM      6  C   UNL     1      37.124 -23.068 -15.765  0.00  0.00    +0.099 C 
ENDROOT
BRANCH   2  14
ATOM      7  O   UNL     1      38.283 -18.626 -21.410  0.00  0.00    -0.270 OA
ATOM      8  N   UNL     1      34.882 -21.053 -19.550  0.00  0.00    -0.316 N 
ATOM      9  N   UNL     1      36.332 -18.792 -22.637  0.00  0.00    -0.300 N 
ATOM     10  C   UNL     1      35.192 -20.256 -20.614  0.00  0.00    +0.031 C 
ATOM     11  C   UNL     1      34.254 -19.794 -21.664  0.00  0.00    +0.063 C 
ATOM     12  C   UNL     1      36.529 -19.925 -20.544  0.00  0.00    +0.064 C 
ATOM     13  C   UNL     1      35.072 -19.488 -22.923  0.00  0.00    +0.096 C 
ATOM     14  C   UNL     1      36.010 -21.234 -18.788  0.00  0.00    +0.048 C 
ATOM     15  C   UNL     1      37.046 -20.540 -19.379  0.00  0.00    +0.020 C 
ATOM     16  C   UNL     1      37.147 -19.072 -21.542  0.00  0.00    +0.247 C 
ATOM     17  H   UNL     1      33.995 -21.435 -19.360  0.00  0.00    +0.152 HD
ATOM     18  H   UNL     1      36.619 -18.083 -23.258  0.00  0.00    +0.150 HD
ENDBRANCH   2  14
BRANCH   4  20
ATOM     19  N   UNL     1      32.592 -25.184 -13.645  0.00  0.00    -0.244 NA
ATOM     20  C   UNL     1      33.641 -23.852 -15.365  0.00  0.00    +0.037 C 
ATOM     21  C   UNL     1      32.400 -23.622 -15.940  0.00  0.00    +0.005 C 
ATOM     22  C   UNL     1      31.245 -24.174 -15.368  0.00  0.00    +0.018 C 
ATOM     23  C   UNL     1      31.389 -24.960 -14.206  0.00  0.00    +0.081 C 
ATOM     24  C   UNL     1      33.682 -24.635 -14.228  0.00  0.00    +0.100 C 
ATOM     25  C   UNL     1      29.972 -23.959 -15.926  0.00  0.00    +0.001 C 
ATOM     26  C   UNL     1      30.242 -25.506 -13.638  0.00  0.00    +0.019 C 
ATOM     27  C   UNL     1      28.842 -24.519 -15.338  0.00  0.00    +0.000 C 
ATOM     28  C   UNL     1      28.977 -25.293 -14.192  0.00  0.00    +0.002 C 
ENDBRANCH   4  20
TORSDOF 2
ENDMDL
MODEL 4
REMARK VINA RESULT:     -11.4      1.370      1.970
REMARK  Name = 10389239
REMARK  2 active torsions:
REMARK  status: ('A' for Active; 'I' for Inactive)
REMARK    1  A    between atoms: C_2  and  C_14
REMARK    2  A    between atoms: C_4  and  C_20
REMARK                            x       y       z     vdW  Elec       q    Type
REMARK                         _______ _______ _______ _____ _____    ______ ____
ROOT
ATOM      1  N   UNL     1      32.948 -22.553 -18.246  0.00  0.00    -0.244 NA
ATOM      2  C   UNL     1      34.429 -23.543 -16.093  0.00  0.00    +0.016 C 
ATOM      3  C   UNL     1      35.037 -22.727 -17.040  0.00  0.00    +0.020 C 
ATOM      4  C   UNL     1      34.259 -22.262 -18.089  0.00  0.00    +0.083 C 
ATOM      5  C   UNL     1      33.083 -23.866 -16.220  0.00  0.00    +0.022 C 
ATOM      6  C   UNL     1      32.393 -23.349 -17.305  0.00  0.00    +0.099 C 
ENDROOT
BRANCH   2  14
ATOM      7  O   UNL     1      37.280 -27.442 -13.243  0.00  0.00    -0.270 OA
ATOM      8  N   UNL     1      35.422 -23.307 -13.851  0.00  0.00    -0.316 N 
ATOM      9  N   UNL     1      37.770 -25.838 -11.654  0.00  0.00    -0.300 N 
ATOM     10  C   UNL     1      36.163 -24.047 -12.975  0.00  0.00    +0.031 C 
ATOM     11  C   UNL     1      36.604 -23.622 -11.626  0.00  0.00    +0.063 C 
ATOM     12  C   UNL     1      36.420 -25.277 -13.543  0.00  0.00    +0.064 C 
ATOM     13  C   UNL     1      37.859 -24.424 -11.268  0.00  0.00    +0.096 C 
ATOM     14  C   UNL     1      35.193 -24.055 -14.981  0.00  0.00    +0.048 C 
ATOM     15  C   UNL     1      35.797 -25.285 -14.813  0.00  0.00    +0.020 C 
ATOM     16  C   UNL     1      37.184 -26.288 -12.835  0.00  0.00    +0.247 C 
ATOM     17  H   UNL     1      35.104 -22.388 -13.699  0.00  0.00    +0.152 HD
ATOM     18  H   UNL     1      38.149 -26.508 -11.040  0.00  0.00    +0.150 HD
ENDBRANCH   2  14
BRANCH   4  20
ATOM     19  N   UNL     1      36.735 -20.239 -20.002  0.00  0.00    -0.244 NA
ATOM     20  C   UNL     1      34.821 -21.410 -19.110  0.00  0.00    +0.037 C 
ATOM     21  C   UNL     1      34.046 -20.939 -20.160  0.00  0.00    +0.005 C 
ATOM     22  C   UNL     1      34.614 -20.113 -21.139  0.00  0.00    +0.018 C 
ATOM     23  C   UNL     1      35.981 -19.783 -21.020  0.00  0.00    +0.081 C 
ATOM     24  C   UNL     1      36.149 -21.033 -19.078  0.00  0.00    +0.100 C 
ATOM     25  C   UNL     1      33.857 -19.620 -22.216  0.00  0.00    +0.001 C 
ATOM     26  C   UNL     1      36.544 -18.963 -21.993  0.00  0.00    +0.019 C 
ATOM     27  C   UNL     1      34.447 -18.800 -23.175  0.00  0.00    +0.000 C 
ATOM     28  C   UNL     1      35.792 -18.472 -23.063  0.00  0.00    +0.002 C 
ENDBRANCH   4  20
TORSDOF 2
ENDMDL
MODEL 5
REMARK VINA RESULT:     -11.3      9.555     13.610
REMARK  Name = 10389239
REMARK  2 active torsions:
REMARK  status: ('A' for Active; 'I' for Inactive)
REMARK    1  A    between atoms: C_2  and  C_14
REMARK    2  A    between atoms: C_4  and  C_20
REMARK                            x       y       z     vdW  Elec       q    Type
REMARK                         _______ _______ _______ _____ _____    ______ ____
ROOT
ATOM      1  N   UNL     1      31.238  -9.995 -21.509  0.00  0.00    -0.244 NA
ATOM      2  C   UNL     1      32.563 -12.399 -22.032  0.00  0.00    +0.016 C 
ATOM      3  C   UNL     1      32.834 -11.273 -22.800  0.00  0.00    +0.020 C 
ATOM      4  C   UNL     1      32.150 -10.105 -22.501  0.00  0.00    +0.083 C 
ATOM      5  C   UNL     1      31.630 -12.326 -21.003  0.00  0.00    +0.022 C 
ATOM      6  C   UNL     1      31.002 -11.111 -20.784  0.00  0.00    +0.099 C 
ENDROOT
BRANCH   2  14
ATOM      7  O   UNL     1      35.427 -17.027 -20.678  0.00  0.00    -0.270 OA
ATOM      8  N   UNL     1      33.446 -14.099 -23.580  0.00  0.00    -0.316 N 
ATOM      9  N   UNL     1      35.304 -17.680 -22.891  0.00  0.00    -0.300 N 
ATOM     10  C   UNL     1      34.118 -15.286 -23.524  0.00  0.00    +0.031 C 
ATOM     11  C   UNL     1      34.555 -16.099 -24.684  0.00  0.00    +0.063 C 
ATOM     12  C   UNL     1      34.350 -15.601 -22.202  0.00  0.00    +0.064 C 
ATOM     13  C   UNL     1      34.684 -17.553 -24.216  0.00  0.00    +0.096 C 
ATOM     14  C   UNL     1      33.247 -13.641 -22.300  0.00  0.00    +0.048 C 
ATOM     15  C   UNL     1      33.804 -14.552 -21.425  0.00  0.00    +0.020 C 
ATOM     16  C   UNL     1      35.061 -16.810 -21.829  0.00  0.00    +0.247 C 
ATOM     17  H   UNL     1      33.152 -13.646 -24.403  0.00  0.00    +0.152 HD
ATOM     18  H   UNL     1      35.930 -18.425 -22.744  0.00  0.00    +0.150 HD
ENDBRANCH   2  14
BRANCH   4  20
ATOM     19  N   UNL     1      31.474  -7.003 -24.451  0.00  0.00    -0.244 NA
ATOM     20  C   UNL     1      32.379  -8.896 -23.255  0.00  0.00    +0.037 C 
ATOM     21  C   UNL     1      33.664  -8.447 -23.522  0.00  0.00    +0.005 C 
ATOM     22  C   UNL     1      33.861  -7.270 -24.256  0.00  0.00    +0.018 C 
ATOM     23  C   UNL     1      32.722  -6.570 -24.708  0.00  0.00    +0.081 C 
ATOM     24  C   UNL     1      31.327  -8.144 -23.739  0.00  0.00    +0.100 C 
ATOM     25  C   UNL     1      35.150  -6.788 -24.543  0.00  0.00    +0.001 C 
ATOM     26  C   UNL     1      32.919  -5.401 -25.437  0.00  0.00    +0.019 C 
ATOM     27  C   UNL     1      35.317  -5.615 -25.275  0.00  0.00    +0.000 C 
ATOM     28  C   UNL     1      34.200  -4.921 -25.723  0.00  0.00    +0.002 C 
ENDBRANCH   4  20
TORSDOF 2
ENDMDL
MODEL 6
REMARK VINA RESULT:     -11.2     10.598     14.441
REMARK  Name = 10389239
REMARK  2 active torsions:
REMARK  status: ('A' for Active; 'I' for Inactive)
REMARK    1  A    between atoms: C_2  and  C_14
REMARK    2  A    between atoms: C_4  and  C_20
REMARK                            x       y       z     vdW  Elec       q    Type
REMARK                         _______ _______ _______ _____ _____    ______ ____
ROOT
ATOM      1  N   UNL     1      31.248  -9.739 -20.501  0.00  0.00    -0.244 NA
ATOM      2  C   UNL     1      32.382 -12.009 -21.670  0.00  0.00    +0.016 C 
ATOM      3  C   UNL     1      32.345 -10.809 -22.371  0.00  0.00    +0.020 C 
ATOM      4  C   UNL     1      31.771  -9.713 -21.747  0.00  0.00    +0.083 C 
ATOM      5  C   UNL     1      31.852 -12.077 -20.386  0.00  0.00    +0.022 C 
ATOM      6  C   UNL     1      31.302 -10.923 -19.852  0.00  0.00    +0.099 C 
ENDROOT
BRANCH   2  14
ATOM      7  O   UNL     1      33.497 -15.555 -25.870  0.00  0.00    -0.270 OA
ATOM      8  N   UNL     1      33.657 -14.113 -21.533  0.00  0.00    -0.316 N 
ATOM      9  N   UNL     1      34.865 -16.737 -24.431  0.00  0.00    -0.300 N 
ATOM     10  C   UNL     1      34.088 -15.106 -22.364  0.00  0.00    +0.031 C 
ATOM     11  C   UNL     1      34.846 -16.314 -21.962  0.00  0.00    +0.063 C 
ATOM     12  C   UNL     1      33.683 -14.815 -23.649  0.00  0.00    +0.064 C 
ATOM     13  C   UNL     1      35.635 -16.801 -23.183  0.00  0.00    +0.096 C 
ATOM     14  C   UNL     1      32.968 -13.183 -22.273  0.00  0.00    +0.048 C 
ATOM     15  C   UNL     1      32.964 -13.597 -23.590  0.00  0.00    +0.020 C 
ATOM     16  C   UNL     1      33.989 -15.702 -24.755  0.00  0.00    +0.247 C 
ATOM     17  H   UNL     1      33.814 -14.069 -20.562  0.00  0.00    +0.152 HD
ATOM     18  H   UNL     1      34.974 -17.471 -25.078  0.00  0.00    +0.150 HD
ENDBRANCH   2  14
BRANCH   4  20
ATOM     19  N   UNL     1      31.533  -7.181 -24.470  0.00  0.00    -0.244 NA
ATOM     20  C   UNL     1      31.697  -8.434 -22.413  0.00  0.00    +0.037 C 
ATOM     21  C   UNL     1      31.717  -7.248 -21.694  0.00  0.00    +0.005 C 
ATOM     22  C   UNL     1      31.644  -6.018 -22.363  0.00  0.00    +0.018 C 
ATOM     23  C   UNL     1      31.552  -6.031 -23.771  0.00  0.00    +0.081 C 
ATOM     24  C   UNL     1      31.606  -8.346 -23.788  0.00  0.00    +0.100 C 
ATOM     25  C   UNL     1      31.661  -4.798 -21.664  0.00  0.00    +0.001 C 
ATOM     26  C   UNL     1      31.479  -4.809 -24.434  0.00  0.00    +0.019 C 
ATOM     27  C   UNL     1      31.587  -3.590 -22.354  0.00  0.00    +0.000 C 
ATOM     28  C   UNL     1      31.496  -3.597 -23.740  0.00  0.00    +0.002 C 
ENDBRANCH   4  20
TORSDOF 2
ENDMDL
MODEL 7
REMARK VINA RESULT:     -11.2      4.323      9.291
REMARK  Name = 10389239
REMARK  2 active torsions:
REMARK  status: ('A' for Active; 'I' for Inactive)
REMARK    1  A    between atoms: C_2  and  C_14
REMARK    2  A    between atoms: C_4  and  C_20
REMARK                            x       y       z     vdW  Elec       q    Type
REMARK                         _______ _______ _______ _____ _____    ______ ____
ROOT
ATOM      1  N   UNL     1      35.620 -22.640 -17.737  0.00  0.00    -0.244 NA
ATOM      2  C   UNL     1      35.245 -20.845 -19.845  0.00  0.00    +0.016 C 
ATOM      3  C   UNL     1      34.151 -21.315 -19.127  0.00  0.00    +0.020 C 
ATOM      4  C   UNL     1      34.390 -22.204 -18.091  0.00  0.00    +0.083 C 
ATOM      5  C   UNL     1      36.526 -21.272 -19.512  0.00  0.00    +0.022 C 
ATOM      6  C   UNL     1      36.658 -22.162 -18.458  0.00  0.00    +0.099 C 
ENDROOT
BRANCH   2  14
ATOM      7  O   UNL     1      33.755 -19.330 -25.036  0.00  0.00    -0.270 OA
ATOM      8  N   UNL     1      35.441 -18.603 -20.847  0.00  0.00    -0.316 N 
ATOM      9  N   UNL     1      34.198 -17.137 -24.459  0.00  0.00    -0.300 N 
ATOM     10  C   UNL     1      35.139 -17.975 -22.020  0.00  0.00    +0.031 C 
ATOM     11  C   UNL     1      35.418 -16.557 -22.350  0.00  0.00    +0.063 C 
ATOM     12  C   UNL     1      34.547 -18.885 -22.870  0.00  0.00    +0.064 C 
ATOM     13  C   UNL     1      34.416 -16.119 -23.424  0.00  0.00    +0.096 C 
ATOM     14  C   UNL     1      35.052 -19.918 -20.934  0.00  0.00    +0.048 C 
ATOM     15  C   UNL     1      34.500 -20.122 -22.183  0.00  0.00    +0.020 C 
ATOM     16  C   UNL     1      34.124 -18.505 -24.205  0.00  0.00    +0.247 C 
ATOM     17  H   UNL     1      35.866 -18.183 -20.065  0.00  0.00    +0.152 HD
ATOM     18  H   UNL     1      34.098 -16.833 -25.390  0.00  0.00    +0.150 HD
ENDBRANCH   2  14
BRANCH   4  20
ATOM     19  N   UNL     1      30.928 -23.009 -16.976  0.00  0.00    -0.244 NA
ATOM     20  C   UNL     1      33.305 -22.734 -17.301  0.00  0.00    +0.037 C 
ATOM     21  C   UNL     1      33.545 -23.456 -16.141  0.00  0.00    +0.005 C 
ATOM     22  C   UNL     1      32.474 -23.960 -15.391  0.00  0.00    +0.018 C 
ATOM     23  C   UNL     1      31.164 -23.710 -15.850  0.00  0.00    +0.081 C 
ATOM     24  C   UNL     1      31.988 -22.539 -17.671  0.00  0.00    +0.100 C 
ATOM     25  C   UNL     1      32.683 -24.696 -14.212  0.00  0.00    +0.001 C 
ATOM     26  C   UNL     1      30.101 -24.211 -15.105  0.00  0.00    +0.019 C 
ATOM     27  C   UNL     1      31.601 -25.186 -13.485  0.00  0.00    +0.000 C 
ATOM     28  C   UNL     1      30.309 -24.943 -13.933  0.00  0.00    +0.002 C 
ENDBRANCH   4  20
TORSDOF 2
ENDMDL
MODEL 8
REMARK VINA RESULT:     -11.1     10.068     14.052
REMARK  Name = 10389239
REMARK  2 active torsions:
REMARK  status: ('A' for Active; 'I' for Inactive)
REMARK    1  A    between atoms: C_2  and  C_14
REMARK    2  A    between atoms: C_4  and  C_20
REMARK                            x       y       z     vdW  Elec       q    Type
REMARK                         _______ _______ _______ _____ _____    ______ ____
ROOT
ATOM      1  N   UNL     1      31.393  -9.624 -21.393  0.00  0.00    -0.244 NA
ATOM      2  C   UNL     1      32.532 -12.079 -22.086  0.00  0.00    +0.016 C 
ATOM      3  C   UNL     1      32.778 -10.953 -22.862  0.00  0.00    +0.020 C 
ATOM      4  C   UNL     1      32.190  -9.759 -22.476  0.00  0.00    +0.083 C 
ATOM      5  C   UNL     1      31.717 -11.981 -20.964  0.00  0.00    +0.022 C 
ATOM      6  C   UNL     1      31.177 -10.741 -20.663  0.00  0.00    +0.099 C 
ENDROOT
BRANCH   2  14
ATOM      7  O   UNL     1      33.749 -16.335 -25.530  0.00  0.00    -0.270 OA
ATOM      8  N   UNL     1      33.762 -14.137 -21.519  0.00  0.00    -0.316 N 
ATOM      9  N   UNL     1      35.037 -17.253 -23.845  0.00  0.00    -0.300 N 
ATOM     10  C   UNL     1      34.208 -15.268 -22.139  0.00  0.00    +0.031 C 
ATOM     11  C   UNL     1      34.927 -16.393 -21.496  0.00  0.00    +0.063 C 
ATOM     12  C   UNL     1      33.859 -15.209 -23.472  0.00  0.00    +0.064 C 
ATOM     13  C   UNL     1      35.755 -17.099 -22.574  0.00  0.00    +0.096 C 
ATOM     14  C   UNL     1      33.120 -13.348 -22.443  0.00  0.00    +0.048 C 
ATOM     15  C   UNL     1      33.161 -13.993 -23.663  0.00  0.00    +0.020 C 
ATOM     16  C   UNL     1      34.193 -16.284 -24.387  0.00  0.00    +0.247 C 
ATOM     17  H   UNL     1      33.881 -13.922 -20.566  0.00  0.00    +0.152 HD
ATOM     18  H   UNL     1      35.158 -18.092 -24.345  0.00  0.00    +0.150 HD
ENDBRANCH   2  14
BRANCH   4  20
ATOM     19  N   UNL     1      31.470  -6.610 -24.333  0.00  0.00    -0.244 NA
ATOM     20  C   UNL     1      32.400  -8.548 -23.233  0.00  0.00    +0.037 C 
ATOM     21  C   UNL     1      33.675  -8.139 -23.596  0.00  0.00    +0.005 C 
ATOM     22  C   UNL     1      33.854  -6.959 -24.331  0.00  0.00    +0.018 C 
ATOM     23  C   UNL     1      32.708  -6.215 -24.684  0.00  0.00    +0.081 C 
ATOM     24  C   UNL     1      31.340  -7.755 -23.624  0.00  0.00    +0.100 C 
ATOM     25  C   UNL     1      35.132  -6.517 -24.713  0.00  0.00    +0.001 C 
ATOM     26  C   UNL     1      32.886  -5.044 -25.413  0.00  0.00    +0.019 C 
ATOM     27  C   UNL     1      35.281  -5.341 -25.444  0.00  0.00    +0.000 C 
ATOM     28  C   UNL     1      34.156  -4.604 -25.794  0.00  0.00    +0.002 C 
ENDBRANCH   4  20
TORSDOF 2
ENDMDL
MODEL 9
REMARK VINA RESULT:     -11.0      2.935      8.757
REMARK  Name = 10389239
REMARK  2 active torsions:
REMARK  status: ('A' for Active; 'I' for Inactive)
REMARK    1  A    between atoms: C_2  and  C_14
REMARK    2  A    between atoms: C_4  and  C_20
REMARK                            x       y       z     vdW  Elec       q    Type
REMARK                         _______ _______ _______ _____ _____    ______ ____
ROOT
ATOM      1  N   UNL     1      33.842 -23.997 -16.481  0.00  0.00    -0.244 NA
ATOM      2  C   UNL     1      34.602 -22.180 -18.464  0.00  0.00    +0.016 C 
ATOM      3  C   UNL     1      35.391 -22.346 -17.331  0.00  0.00    +0.020 C 
ATOM      4  C   UNL     1      34.970 -23.259 -16.377  0.00  0.00    +0.083 C 
ATOM      5  C   UNL     1      33.434 -22.921 -18.607  0.00  0.00    +0.022 C 
ATOM      6  C   UNL     1      33.102 -23.809 -17.596  0.00  0.00    +0.099 C 
ENDROOT
BRANCH   2  14
ATOM      7  O   UNL     1      38.152 -18.778 -21.161  0.00  0.00    -0.270 OA
ATOM      8  N   UNL     1      34.095 -20.748 -20.403  0.00  0.00    -0.316 N 
ATOM      9  N   UNL     1      36.503 -18.403 -22.736  0.00  0.00    -0.300 N 
ATOM     10  C   UNL     1      34.745 -19.887 -21.239  0.00  0.00    +0.031 C 
ATOM     11  C   UNL     1      34.134 -19.118 -22.348  0.00  0.00    +0.063 C 
ATOM     12  C   UNL     1      36.072 -19.828 -20.868  0.00  0.00    +0.064 C 
ATOM     13  C   UNL     1      35.238 -18.802 -23.364  0.00  0.00    +0.096 C 
ATOM     14  C   UNL     1      34.993 -21.243 -19.489  0.00  0.00    +0.048 C 
ATOM     15  C   UNL     1      36.228 -20.682 -19.751  0.00  0.00    +0.020 C 
ATOM     16  C   UNL     1      37.013 -18.979 -21.574  0.00  0.00    +0.247 C 
ATOM     17  H   UNL     1      33.139 -20.979 -20.448  0.00  0.00    +0.152 HD
ATOM     18  H   UNL     1      37.022 -17.683 -23.162  0.00  0.00    +0.150 HD
ENDBRANCH   2  14
BRANCH   4  20
ATOM     19  N   UNL     1      37.893 -23.707 -14.111  0.00  0.00    -0.244 NA
ATOM     20  C   UNL     1      35.737 -23.484 -15.175  0.00  0.00    +0.037 C 
ATOM     21  C   UNL     1      35.115 -23.693 -13.954  0.00  0.00    +0.005 C 
ATOM     22  C   UNL     1      35.882 -23.910 -12.800  0.00  0.00    +0.018 C 
ATOM     23  C   UNL     1      37.287 -23.909 -12.926  0.00  0.00    +0.081 C 
ATOM     24  C   UNL     1      37.118 -23.502 -15.200  0.00  0.00    +0.100 C 
ATOM     25  C   UNL     1      35.282 -24.124 -11.547  0.00  0.00    +0.001 C 
ATOM     26  C   UNL     1      38.047 -24.124 -11.781  0.00  0.00    +0.019 C 
ATOM     27  C   UNL     1      36.067 -24.337 -10.417  0.00  0.00    +0.000 C 
ATOM     28  C   UNL     1      37.452 -24.337 -10.535  0.00  0.00    +0.002 C 
ENDBRANCH   4  20
TORSDOF 2
ENDMDL
