MODEL 1
REMARK VINA RESULT:     -12.2      0.000      0.000
REMARK  Name = 45268539
REMARK  6 active torsions:
REMARK  status: ('A' for Active; 'I' for Inactive)
REMARK    1  A    between atoms: N_2  and  C_22
REMARK    2  A    between atoms: N_3  and  C_7
REMARK    3  A    between atoms: N_3  and  O_12
REMARK    4  A    between atoms: C_8  and  C_14
REMARK    5  A    between atoms: C_15  and  C_16
REMARK    6  A    between atoms: C_22  and  C_26
REMARK                            x       y       z     vdW  Elec       q    Type
REMARK                         _______ _______ _______ _____ _____    ______ ____
ROOT
ATOM      1  O   UNL     1      31.910 -23.961 -16.642  0.00  0.00    -0.273 OA
ATOM      2  N   UNL     1      34.087 -23.514 -15.800  0.00  0.00    -0.253 N 
ATOM      3  C   UNL     1      35.209 -22.853 -16.337  0.00  0.00    +0.052 C 
ATOM      4  C   UNL     1      34.931 -22.388 -17.622  0.00  0.00    +0.018 C 
ATOM      5  C   UNL     1      33.035 -23.511 -16.700  0.00  0.00    +0.252 C 
ATOM      6  C   UNL     1      33.564 -22.776 -17.908  0.00  0.00    +0.202 C 
ATOM      7  C   UNL     1      35.851 -21.702 -18.387  0.00  0.00    -0.001 C 
ATOM      8  C   UNL     1      36.449 -22.639 -15.765  0.00  0.00    +0.015 C 
ATOM      9  C   UNL     1      37.106 -21.481 -17.817  0.00  0.00    -0.000 C 
ATOM     10  C   UNL     1      37.402 -21.945 -16.520  0.00  0.00    +0.001 C 
ENDROOT
BRANCH   7  11
ATOM     11  C   UNL     1      35.569 -21.217 -19.726  0.00  0.00    -0.000 C 
ATOM     12  C   UNL     1      35.453 -19.912 -20.077  0.00  0.00    -0.000 C 
BRANCH  12  13
ATOM     13  C   UNL     1      35.184 -19.418 -21.439  0.00  0.00    -0.000 C 
ATOM     14  C   UNL     1      34.733 -20.297 -22.424  0.00  0.00    -0.000 C 
ATOM     15  C   UNL     1      35.378 -18.071 -21.744  0.00  0.00    -0.000 C 
ATOM     16  C   UNL     1      34.478 -19.830 -23.713  0.00  0.00    +0.000 C 
ATOM     17  C   UNL     1      35.123 -17.603 -23.033  0.00  0.00    +0.000 C 
ATOM     18  C   UNL     1      34.674 -18.483 -24.018  0.00  0.00    +0.000 C 
ENDBRANCH  12  13
ENDBRANCH   7  11
BRANCH   6  19
ATOM     19  N   UNL     1      32.874 -22.567 -18.972  0.00  0.00    -0.075 NA
BRANCH  19  20
ATOM     20  O   UNL     1      32.324 -21.284 -18.898  0.00  0.00    -0.294 OA
ATOM     21  H   UNL     1      32.842 -20.569 -18.582  0.00  0.00    +0.238 HD
ENDBRANCH  19  20
ENDBRANCH   6  19
BRANCH   2  22
ATOM     22  C   UNL     1      34.068 -24.104 -14.484  0.00  0.00    +0.128 C 
BRANCH  22  26
ATOM     23  F   UNL     1      36.916 -27.838 -15.747  0.00  0.00    -0.204 F 
ATOM     24  O   UNL     1      35.802 -23.677 -12.332  0.00  0.00    -0.448 OA
ATOM     25  O   UNL     1      37.442 -24.500 -10.785  0.00  0.00    -0.311 OA
ATOM     26  C   UNL     1      35.271 -24.966 -14.236  0.00  0.00    +0.034 C 
ATOM     27  C   UNL     1      36.121 -24.728 -13.155  0.00  0.00    +0.138 C 
ATOM     28  C   UNL     1      37.231 -25.551 -12.928  0.00  0.00    +0.043 C 
ATOM     29  C   UNL     1      35.542 -26.019 -15.110  0.00  0.00    +0.030 C 
ATOM     30  C   UNL     1      38.131 -25.281 -11.761  0.00  0.00    +0.176 C 
ATOM     31  C   UNL     1      37.501 -26.597 -13.816  0.00  0.00    +0.031 C 
ATOM     32  C   UNL     1      36.657 -26.831 -14.903  0.00  0.00    +0.140 C 
ATOM     33  C   UNL     1      36.840 -23.362 -11.397  0.00  0.00    +0.361 C 
ENDBRANCH  22  26
ENDBRANCH   2  22
TORSDOF 6
ENDMDL
MODEL 2
REMARK VINA RESULT:     -11.8      8.051     13.542
REMARK  Name = 45268539
REMARK  6 active torsions:
REMARK  status: ('A' for Active; 'I' for Inactive)
REMARK    1  A    between atoms: N_2  and  C_22
REMARK    2  A    between atoms: N_3  and  C_7
REMARK    3  A    between atoms: N_3  and  O_12
REMARK    4  A    between atoms: C_8  and  C_14
REMARK    5  A    between atoms: C_15  and  C_16
REMARK    6  A    between atoms: C_22  and  C_26
REMARK                            x       y       z     vdW  Elec       q    Type
REMARK                         _______ _______ _______ _____ _____    ______ ____
ROOT
ATOM      1  O   UNL     1      31.964 -12.003 -19.958  0.00  0.00    -0.273 OA
ATOM      2  N   UNL     1      32.448 -12.173 -22.279  0.00  0.00    -0.253 N 
ATOM      3  C   UNL     1      33.115 -13.141 -23.054  0.00  0.00    +0.052 C 
ATOM      4  C   UNL     1      33.562 -14.188 -22.247  0.00  0.00    +0.018 C 
ATOM      5  C   UNL     1      32.426 -12.538 -20.944  0.00  0.00    +0.252 C 
ATOM      6  C   UNL     1      33.153 -13.860 -20.895  0.00  0.00    +0.202 C 
ATOM      7  C   UNL     1      34.249 -15.276 -22.742  0.00  0.00    -0.001 C 
ATOM      8  C   UNL     1      33.351 -13.154 -24.416  0.00  0.00    +0.015 C 
ATOM      9  C   UNL     1      34.491 -15.297 -24.116  0.00  0.00    -0.000 C 
ATOM     10  C   UNL     1      34.047 -14.248 -24.945  0.00  0.00    +0.001 C 
ENDROOT
BRANCH   7  11
ATOM     11  C   UNL     1      34.717 -16.368 -21.908  0.00  0.00    -0.000 C 
ATOM     12  C   UNL     1      34.959 -17.632 -22.335  0.00  0.00    -0.000 C 
BRANCH  12  13
ATOM     13  C   UNL     1      35.451 -18.736 -21.492  0.00  0.00    -0.000 C 
ATOM     14  C   UNL     1      34.575 -19.736 -21.072  0.00  0.00    -0.000 C 
ATOM     15  C   UNL     1      36.794 -18.782 -21.116  0.00  0.00    -0.000 C 
ATOM     16  C   UNL     1      35.041 -20.782 -20.273  0.00  0.00    +0.000 C 
ATOM     17  C   UNL     1      37.260 -19.827 -20.319  0.00  0.00    +0.000 C 
ATOM     18  C   UNL     1      36.383 -20.826 -19.897  0.00  0.00    +0.000 C 
ENDBRANCH  12  13
ENDBRANCH   7  11
BRANCH   6  19
ATOM     19  N   UNL     1      33.344 -14.528 -19.813  0.00  0.00    -0.075 NA
BRANCH  19  20
ATOM     20  O   UNL     1      32.103 -14.938 -19.320  0.00  0.00    -0.294 OA
ATOM     21  H   UNL     1      32.011 -15.784 -18.927  0.00  0.00    +0.238 HD
ENDBRANCH  19  20
ENDBRANCH   6  19
BRANCH   2  22
ATOM     22  C   UNL     1      31.873 -10.971 -22.833  0.00  0.00    +0.128 C 
BRANCH  22  26
ATOM     23  F   UNL     1      35.595  -8.321 -24.498  0.00  0.00    -0.204 F 
ATOM     24  O   UNL     1      31.681  -9.142 -20.726  0.00  0.00    -0.448 OA
ATOM     25  O   UNL     1      32.685  -7.479 -19.315  0.00  0.00    -0.311 OA
ATOM     26  C   UNL     1      32.795  -9.794 -22.702  0.00  0.00    +0.034 C 
ATOM     27  C   UNL     1      32.674  -8.896 -21.641  0.00  0.00    +0.138 C 
ATOM     28  C   UNL     1      33.553  -7.812 -21.524  0.00  0.00    +0.043 C 
ATOM     29  C   UNL     1      33.784  -9.598 -23.665  0.00  0.00    +0.030 C 
ATOM     30  C   UNL     1      33.409  -6.859 -20.377  0.00  0.00    +0.176 C 
ATOM     31  C   UNL     1      34.534  -7.617 -22.501  0.00  0.00    +0.031 C 
ATOM     32  C   UNL     1      34.650  -8.509 -23.568  0.00  0.00    +0.140 C 
ATOM     33  C   UNL     1      31.480  -8.059 -19.811  0.00  0.00    +0.361 C 
ENDBRANCH  22  26
ENDBRANCH   2  22
TORSDOF 6
ENDMDL
MODEL 3
REMARK VINA RESULT:     -11.3      8.050     13.693
REMARK  Name = 45268539
REMARK  6 active torsions:
REMARK  status: ('A' for Active; 'I' for Inactive)
REMARK    1  A    between atoms: N_2  and  C_22
REMARK    2  A    between atoms: N_3  and  C_7
REMARK    3  A    between atoms: N_3  and  O_12
REMARK    4  A    between atoms: C_8  and  C_14
REMARK    5  A    between atoms: C_15  and  C_16
REMARK    6  A    between atoms: C_22  and  C_26
REMARK                            x       y       z     vdW  Elec       q    Type
REMARK                         _______ _______ _______ _____ _____    ______ ____
ROOT
ATOM      1  O   UNL     1      31.887 -12.083 -20.015  0.00  0.00    -0.273 OA
ATOM      2  N   UNL     1      32.371 -12.238 -22.337  0.00  0.00    -0.253 N 
ATOM      3  C   UNL     1      33.074 -13.182 -23.111  0.00  0.00    +0.052 C 
ATOM      4  C   UNL     1      33.563 -14.209 -22.304  0.00  0.00    +0.018 C 
ATOM      5  C   UNL     1      32.367 -12.601 -21.000  0.00  0.00    +0.252 C 
ATOM      6  C   UNL     1      33.145 -13.894 -20.951  0.00  0.00    +0.202 C 
ATOM      7  C   UNL     1      34.290 -15.271 -22.798  0.00  0.00    -0.001 C 
ATOM      8  C   UNL     1      33.307 -13.189 -24.474  0.00  0.00    +0.015 C 
ATOM      9  C   UNL     1      34.530 -15.285 -24.172  0.00  0.00    -0.000 C 
ATOM     10  C   UNL     1      34.044 -14.256 -25.002  0.00  0.00    +0.001 C 
ENDROOT
BRANCH   7  11
ATOM     11  C   UNL     1      34.803 -16.341 -21.962  0.00  0.00    -0.000 C 
ATOM     12  C   UNL     1      34.859 -17.650 -22.314  0.00  0.00    -0.000 C 
BRANCH  12  13
ATOM     13  C   UNL     1      35.395 -18.735 -21.473  0.00  0.00    -0.000 C 
ATOM     14  C   UNL     1      36.745 -18.742 -21.119  0.00  0.00    -0.000 C 
ATOM     15  C   UNL     1      34.553 -19.754 -21.029  0.00  0.00    -0.000 C 
ATOM     16  C   UNL     1      37.252 -19.769 -20.323  0.00  0.00    +0.000 C 
ATOM     17  C   UNL     1      35.060 -20.781 -20.232  0.00  0.00    +0.000 C 
ATOM     18  C   UNL     1      36.409 -20.789 -19.880  0.00  0.00    +0.000 C 
ENDBRANCH  12  13
ENDBRANCH   7  11
BRANCH   6  19
ATOM     19  N   UNL     1      33.364 -14.552 -19.868  0.00  0.00    -0.075 NA
BRANCH  19  20
ATOM     20  O   UNL     1      32.135 -14.936 -19.325  0.00  0.00    -0.294 OA
ATOM     21  H   UNL     1      31.809 -15.803 -19.470  0.00  0.00    +0.238 HD
ENDBRANCH  19  20
ENDBRANCH   6  19
BRANCH   2  22
ATOM     22  C   UNL     1      31.749 -11.061 -22.891  0.00  0.00    +0.128 C 
BRANCH  22  26
ATOM     23  F   UNL     1      31.468  -7.474 -19.621  0.00  0.00    -0.204 F 
ATOM     24  O   UNL     1      34.087  -9.847 -23.831  0.00  0.00    -0.448 OA
ATOM     25  O   UNL     1      35.464  -7.897 -24.081  0.00  0.00    -0.311 OA
ATOM     26  C   UNL     1      32.298  -9.799 -22.293  0.00  0.00    +0.034 C 
ATOM     27  C   UNL     1      33.468  -9.217 -22.781  0.00  0.00    +0.138 C 
ATOM     28  C   UNL     1      33.958  -8.030 -22.222  0.00  0.00    +0.043 C 
ATOM     29  C   UNL     1      31.623  -9.207 -21.225  0.00  0.00    +0.030 C 
ATOM     30  C   UNL     1      35.215  -7.418 -22.760  0.00  0.00    +0.176 C 
ATOM     31  C   UNL     1      33.281  -7.450 -21.144  0.00  0.00    +0.031 C 
ATOM     32  C   UNL     1      32.116  -8.036 -20.649  0.00  0.00    +0.140 C 
ATOM     33  C   UNL     1      35.387  -9.320 -24.114  0.00  0.00    +0.361 C 
ENDBRANCH  22  26
ENDBRANCH   2  22
TORSDOF 6
ENDMDL
MODEL 4
REMARK VINA RESULT:     -10.8      1.891      2.515
REMARK  Name = 45268539
REMARK  6 active torsions:
REMARK  status: ('A' for Active; 'I' for Inactive)
REMARK    1  A    between atoms: N_2  and  C_22
REMARK    2  A    between atoms: N_3  and  C_7
REMARK    3  A    between atoms: N_3  and  O_12
REMARK    4  A    between atoms: C_8  and  C_14
REMARK    5  A    between atoms: C_15  and  C_16
REMARK    6  A    between atoms: C_22  and  C_26
REMARK                            x       y       z     vdW  Elec       q    Type
REMARK                         _______ _______ _______ _____ _____    ______ ____
ROOT
ATOM      1  O   UNL     1      31.837 -24.335 -15.878  0.00  0.00    -0.273 OA
ATOM      2  N   UNL     1      34.108 -24.112 -15.211  0.00  0.00    -0.253 N 
ATOM      3  C   UNL     1      35.219 -23.464 -15.784  0.00  0.00    +0.052 C 
ATOM      4  C   UNL     1      34.859 -22.846 -16.982  0.00  0.00    +0.018 C 
ATOM      5  C   UNL     1      32.980 -23.949 -15.999  0.00  0.00    +0.252 C 
ATOM      6  C   UNL     1      33.447 -23.120 -17.171  0.00  0.00    +0.202 C 
ATOM      7  C   UNL     1      35.750 -22.136 -17.759  0.00  0.00    -0.001 C 
ATOM      8  C   UNL     1      36.518 -23.386 -15.318  0.00  0.00    +0.015 C 
ATOM      9  C   UNL     1      37.064 -22.053 -17.294  0.00  0.00    -0.000 C 
ATOM     10  C   UNL     1      37.444 -22.672 -16.087  0.00  0.00    +0.001 C 
ENDROOT
BRANCH   7  11
ATOM     11  C   UNL     1      35.382 -21.493 -19.006  0.00  0.00    -0.000 C 
ATOM     12  C   UNL     1      36.038 -20.450 -19.573  0.00  0.00    -0.000 C 
BRANCH  12  13
ATOM     13  C   UNL     1      35.674 -19.807 -20.849  0.00  0.00    -0.000 C 
ATOM     14  C   UNL     1      36.452 -18.764 -21.350  0.00  0.00    -0.000 C 
ATOM     15  C   UNL     1      34.554 -20.244 -21.555  0.00  0.00    -0.000 C 
ATOM     16  C   UNL     1      36.108 -18.155 -22.558  0.00  0.00    +0.000 C 
ATOM     17  C   UNL     1      34.210 -19.636 -22.762  0.00  0.00    +0.000 C 
ATOM     18  C   UNL     1      34.986 -18.591 -23.264  0.00  0.00    +0.000 C 
ENDBRANCH  12  13
ENDBRANCH   7  11
BRANCH   6  19
ATOM     19  N   UNL     1      32.679 -22.755 -18.135  0.00  0.00    -0.075 NA
BRANCH  19  20
ATOM     20  O   UNL     1      31.479 -22.287 -17.594  0.00  0.00    -0.294 OA
ATOM     21  H   UNL     1      31.254 -22.490 -16.706  0.00  0.00    +0.238 HD
ENDBRANCH  19  20
ENDBRANCH   6  19
BRANCH   2  22
ATOM     22  C   UNL     1      34.168 -24.840 -13.967  0.00  0.00    +0.128 C 
BRANCH  22  26
ATOM     23  F   UNL     1      37.023 -22.485 -10.812  0.00  0.00    -0.204 F 
ATOM     24  O   UNL     1      36.338 -26.531 -14.470  0.00  0.00    -0.448 OA
ATOM     25  O   UNL     1      38.704 -26.937 -14.472  0.00  0.00    -0.311 OA
ATOM     26  C   UNL     1      35.493 -24.675 -13.282  0.00  0.00    +0.034 C 
ATOM     27  C   UNL     1      36.558 -25.536 -13.551  0.00  0.00    +0.138 C 
ATOM     28  C   UNL     1      37.793 -25.359 -12.916  0.00  0.00    +0.043 C 
ATOM     29  C   UNL     1      35.654 -23.644 -12.357  0.00  0.00    +0.030 C 
ATOM     30  C   UNL     1      38.925 -26.291 -13.219  0.00  0.00    +0.176 C 
ATOM     31  C   UNL     1      37.941 -24.329 -11.981  0.00  0.00    +0.031 C 
ATOM     32  C   UNL     1      36.874 -23.473 -11.704  0.00  0.00    +0.140 C 
ATOM     33  C   UNL     1      37.393 -27.497 -14.514  0.00  0.00    +0.361 C 
ENDBRANCH  22  26
ENDBRANCH   2  22
TORSDOF 6
ENDMDL
MODEL 5
REMARK VINA RESULT:     -10.4      4.122     10.357
REMARK  Name = 45268539
REMARK  6 active torsions:
REMARK  status: ('A' for Active; 'I' for Inactive)
REMARK    1  A    between atoms: N_2  and  C_22
REMARK    2  A    between atoms: N_3  and  C_7
REMARK    3  A    between atoms: N_3  and  O_12
REMARK    4  A    between atoms: C_8  and  C_14
REMARK    5  A    between atoms: C_15  and  C_16
REMARK    6  A    between atoms: C_22  and  C_26
REMARK                            x       y       z     vdW  Elec       q    Type
REMARK                         _______ _______ _______ _____ _____    ______ ____
ROOT
ATOM      1  O   UNL     1      37.988 -18.961 -21.021  0.00  0.00    -0.273 OA
ATOM      2  N   UNL     1      35.682 -19.205 -21.542  0.00  0.00    -0.253 N 
ATOM      3  C   UNL     1      34.642 -19.964 -20.971  0.00  0.00    +0.052 C 
ATOM      4  C   UNL     1      35.116 -20.701 -19.885  0.00  0.00    +0.018 C 
ATOM      5  C   UNL     1      36.872 -19.408 -20.864  0.00  0.00    +0.252 C 
ATOM      6  C   UNL     1      36.527 -20.389 -19.769  0.00  0.00    +0.202 C 
ATOM      7  C   UNL     1      34.313 -21.535 -19.137  0.00  0.00    -0.001 C 
ATOM      8  C   UNL     1      33.314 -20.043 -21.347  0.00  0.00    +0.015 C 
ATOM      9  C   UNL     1      32.971 -21.620 -19.510  0.00  0.00    -0.000 C 
ATOM     10  C   UNL     1      32.476 -20.883 -20.603  0.00  0.00    +0.001 C 
ENDROOT
BRANCH   7  11
ATOM     11  C   UNL     1      34.801 -22.306 -18.008  0.00  0.00    -0.000 C 
ATOM     12  C   UNL     1      34.040 -22.754 -16.978  0.00  0.00    -0.000 C 
BRANCH  12  13
ATOM     13  C   UNL     1      34.531 -23.552 -15.840  0.00  0.00    -0.000 C 
ATOM     14  C   UNL     1      35.902 -23.740 -15.661  0.00  0.00    -0.000 C 
ATOM     15  C   UNL     1      33.626 -24.116 -14.942  0.00  0.00    -0.000 C 
ATOM     16  C   UNL     1      36.367 -24.495 -14.584  0.00  0.00    +0.000 C 
ATOM     17  C   UNL     1      34.091 -24.871 -13.865  0.00  0.00    +0.000 C 
ATOM     18  C   UNL     1      35.461 -25.061 -13.686  0.00  0.00    +0.000 C 
ENDBRANCH  12  13
ENDBRANCH   7  11
BRANCH   6  19
ATOM     19  N   UNL     1      37.381 -20.832 -18.916  0.00  0.00    -0.075 NA
BRANCH  19  20
ATOM     20  O   UNL     1      37.633 -19.827 -17.977  0.00  0.00    -0.294 OA
ATOM     21  H   UNL     1      36.927 -19.462 -17.481  0.00  0.00    +0.238 HD
ENDBRANCH  19  20
ENDBRANCH   6  19
BRANCH   2  22
ATOM     22  C   UNL     1      35.499 -18.339 -22.682  0.00  0.00    +0.128 C 
BRANCH  22  26
ATOM     23  F   UNL     1      34.698 -14.968 -19.270  0.00  0.00    -0.204 F 
ATOM     24  O   UNL     1      34.387 -16.554 -24.524  0.00  0.00    -0.448 OA
ATOM     25  O   UNL     1      32.967 -14.681 -25.012  0.00  0.00    -0.311 OA
ATOM     26  C   UNL     1      34.989 -16.985 -22.284  0.00  0.00    +0.034 C 
ATOM     27  C   UNL     1      34.441 -16.114 -23.226  0.00  0.00    +0.138 C 
ATOM     28  C   UNL     1      33.955 -14.860 -22.836  0.00  0.00    +0.043 C 
ATOM     29  C   UNL     1      35.074 -16.595 -20.947  0.00  0.00    +0.030 C 
ATOM     30  C   UNL     1      33.368 -13.938 -23.861  0.00  0.00    +0.176 C 
ATOM     31  C   UNL     1      34.054 -14.473 -21.496  0.00  0.00    +0.031 C 
ATOM     32  C   UNL     1      34.610 -15.340 -20.554  0.00  0.00    +0.140 C 
ATOM     33  C   UNL     1      34.030 -15.523 -25.451  0.00  0.00    +0.361 C 
ENDBRANCH  22  26
ENDBRANCH   2  22
TORSDOF 6
ENDMDL
MODEL 6
REMARK VINA RESULT:     -10.4      6.885     12.736
REMARK  Name = 45268539
REMARK  6 active torsions:
REMARK  status: ('A' for Active; 'I' for Inactive)
REMARK    1  A    between atoms: N_2  and  C_22
REMARK    2  A    between atoms: N_3  and  C_7
REMARK    3  A    between atoms: N_3  and  O_12
REMARK    4  A    between atoms: C_8  and  C_14
REMARK    5  A    between atoms: C_15  and  C_16
REMARK    6  A    between atoms: C_22  and  C_26
REMARK                            x       y       z     vdW  Elec       q    Type
REMARK                         _______ _______ _______ _____ _____    ______ ____
ROOT
ATOM      1  O   UNL     1      34.219 -13.103 -20.717  0.00  0.00    -0.273 OA
ATOM      2  N   UNL     1      34.268 -14.054 -22.895  0.00  0.00    -0.253 N 
ATOM      3  C   UNL     1      34.444 -15.370 -23.366  0.00  0.00    +0.052 C 
ATOM      4  C   UNL     1      34.621 -16.250 -22.298  0.00  0.00    +0.018 C 
ATOM      5  C   UNL     1      34.321 -14.013 -21.512  0.00  0.00    +0.252 C 
ATOM      6  C   UNL     1      34.553 -15.445 -21.094  0.00  0.00    +0.202 C 
ATOM      7  C   UNL     1      34.816 -17.604 -22.467  0.00  0.00    -0.001 C 
ATOM      8  C   UNL     1      34.457 -15.834 -24.668  0.00  0.00    +0.015 C 
ATOM      9  C   UNL     1      34.831 -18.081 -23.779  0.00  0.00    -0.000 C 
ATOM     10  C   UNL     1      34.653 -17.205 -24.868  0.00  0.00    +0.001 C 
ENDROOT
BRANCH   7  11
ATOM     11  C   UNL     1      35.003 -18.525 -21.360  0.00  0.00    -0.000 C 
ATOM     12  C   UNL     1      34.537 -19.798 -21.314  0.00  0.00    -0.000 C 
BRANCH  12  13
ATOM     13  C   UNL     1      34.742 -20.739 -20.198  0.00  0.00    -0.000 C 
ATOM     14  C   UNL     1      33.646 -21.367 -19.606  0.00  0.00    -0.000 C 
ATOM     15  C   UNL     1      36.031 -21.002 -19.734  0.00  0.00    -0.000 C 
ATOM     16  C   UNL     1      33.840 -22.258 -18.549  0.00  0.00    +0.000 C 
ATOM     17  C   UNL     1      36.224 -21.892 -18.679  0.00  0.00    +0.000 C 
ATOM     18  C   UNL     1      35.129 -22.520 -18.085  0.00  0.00    +0.000 C 
ENDBRANCH  12  13
ENDBRANCH   7  11
BRANCH   6  19
ATOM     19  N   UNL     1      34.664 -15.820 -19.869  0.00  0.00    -0.075 NA
BRANCH  19  20
ATOM     20  O   UNL     1      33.525 -15.404 -19.174  0.00  0.00    -0.294 OA
ATOM     21  H   UNL     1      33.606 -14.807 -18.456  0.00  0.00    +0.238 HD
ENDBRANCH  19  20
ENDBRANCH   6  19
BRANCH   2  22
ATOM     22  C   UNL     1      34.061 -12.921 -23.764  0.00  0.00    +0.128 C 
BRANCH  22  26
ATOM     23  F   UNL     1      30.133 -11.625 -21.206  0.00  0.00    -0.204 F 
ATOM     24  O   UNL     1      34.763 -10.214 -23.813  0.00  0.00    -0.448 OA
ATOM     25  O   UNL     1      34.142  -7.900 -23.675  0.00  0.00    -0.311 OA
ATOM     26  C   UNL     1      33.222 -11.860 -23.113  0.00  0.00    +0.034 C 
ATOM     27  C   UNL     1      33.599 -10.517 -23.152  0.00  0.00    +0.138 C 
ATOM     28  C   UNL     1      32.797  -9.536 -22.555  0.00  0.00    +0.043 C 
ATOM     29  C   UNL     1      32.050 -12.231 -22.456  0.00  0.00    +0.030 C 
ATOM     30  C   UNL     1      33.216  -8.099 -22.608  0.00  0.00    +0.176 C 
ATOM     31  C   UNL     1      31.629  -9.919 -21.888  0.00  0.00    +0.031 C 
ATOM     32  C   UNL     1      31.256 -11.263 -21.841  0.00  0.00    +0.140 C 
ATOM     33  C   UNL     1      35.190  -8.864 -23.607  0.00  0.00    +0.361 C 
ENDBRANCH  22  26
ENDBRANCH   2  22
TORSDOF 6
ENDMDL
MODEL 7
REMARK VINA RESULT:     -10.3      3.811      9.038
REMARK  Name = 45268539
REMARK  6 active torsions:
REMARK  status: ('A' for Active; 'I' for Inactive)
REMARK    1  A    between atoms: N_2  and  C_22
REMARK    2  A    between atoms: N_3  and  C_7
REMARK    3  A    between atoms: N_3  and  O_12
REMARK    4  A    between atoms: C_8  and  C_14
REMARK    5  A    between atoms: C_15  and  C_16
REMARK    6  A    between atoms: C_22  and  C_26
REMARK                            x       y       z     vdW  Elec       q    Type
REMARK                         _______ _______ _______ _____ _____    ______ ____
ROOT
ATOM      1  O   UNL     1      33.403 -20.608 -20.863  0.00  0.00    -0.273 OA
ATOM      2  N   UNL     1      35.454 -20.733 -19.669  0.00  0.00    -0.253 N 
ATOM      3  C   UNL     1      35.852 -21.430 -18.511  0.00  0.00    +0.052 C 
ATOM      4  C   UNL     1      34.791 -22.181 -18.005  0.00  0.00    +0.018 C 
ATOM      5  C   UNL     1      34.128 -20.994 -19.971  0.00  0.00    +0.252 C 
ATOM      6  C   UNL     1      33.668 -21.944 -18.891  0.00  0.00    +0.202 C 
ATOM      7  C   UNL     1      34.897 -22.964 -16.875  0.00  0.00    -0.001 C 
ATOM      8  C   UNL     1      37.083 -21.442 -17.882  0.00  0.00    +0.015 C 
ATOM      9  C   UNL     1      36.137 -22.981 -16.235  0.00  0.00    -0.000 C 
ATOM     10  C   UNL     1      37.218 -22.228 -16.732  0.00  0.00    +0.001 C 
ENDROOT
BRANCH   7  11
ATOM     11  C   UNL     1      33.796 -23.746 -16.343  0.00  0.00    -0.000 C 
ATOM     12  C   UNL     1      32.897 -23.310 -15.427  0.00  0.00    -0.000 C 
BRANCH  12  13
ATOM     13  C   UNL     1      31.769 -24.098 -14.899  0.00  0.00    -0.000 C 
ATOM     14  C   UNL     1      31.901 -24.784 -13.692  0.00  0.00    -0.000 C 
ATOM     15  C   UNL     1      30.568 -24.157 -15.606  0.00  0.00    -0.000 C 
ATOM     16  C   UNL     1      30.833 -25.530 -13.192  0.00  0.00    +0.000 C 
ATOM     17  C   UNL     1      29.500 -24.903 -15.107  0.00  0.00    +0.000 C 
ATOM     18  C   UNL     1      29.633 -25.590 -13.900  0.00  0.00    +0.000 C 
ENDBRANCH  12  13
ENDBRANCH   7  11
BRANCH   6  19
ATOM     19  N   UNL     1      32.476 -22.422 -18.825  0.00  0.00    -0.075 NA
BRANCH  19  20
ATOM     20  O   UNL     1      31.666 -21.499 -18.157  0.00  0.00    -0.294 OA
ATOM     21  H   UNL     1      32.005 -20.656 -17.929  0.00  0.00    +0.238 HD
ENDBRANCH  19  20
ENDBRANCH   6  19
BRANCH   2  22
ATOM     22  C   UNL     1      36.334 -19.871 -20.418  0.00  0.00    +0.128 C 
BRANCH  22  26
ATOM     23  F   UNL     1      34.724 -20.764 -24.919  0.00  0.00    -0.204 F 
ATOM     24  O   UNL     1      35.530 -17.219 -20.796  0.00  0.00    -0.448 OA
ATOM     25  O   UNL     1      35.012 -15.389 -22.261  0.00  0.00    -0.311 OA
ATOM     26  C   UNL     1      35.704 -19.394 -21.694  0.00  0.00    +0.034 C 
ATOM     27  C   UNL     1      35.310 -18.065 -21.853  0.00  0.00    +0.138 C 
ATOM     28  C   UNL     1      34.738 -17.633 -23.056  0.00  0.00    +0.043 C 
ATOM     29  C   UNL     1      35.505 -20.304 -22.732  0.00  0.00    +0.030 C 
ATOM     30  C   UNL     1      34.323 -16.202 -23.210  0.00  0.00    +0.176 C 
ATOM     31  C   UNL     1      34.532 -18.555 -24.087  0.00  0.00    +0.031 C 
ATOM     32  C   UNL     1      34.917 -19.886 -23.926  0.00  0.00    +0.140 C 
ATOM     33  C   UNL     1      34.893 -15.947 -20.954  0.00  0.00    +0.361 C 
ENDBRANCH  22  26
ENDBRANCH   2  22
TORSDOF 6
ENDMDL
MODEL 8
REMARK VINA RESULT:     -10.3      2.458      3.428
REMARK  Name = 45268539
REMARK  6 active torsions:
REMARK  status: ('A' for Active; 'I' for Inactive)
REMARK    1  A    between atoms: N_2  and  C_22
REMARK    2  A    between atoms: N_3  and  C_7
REMARK    3  A    between atoms: N_3  and  O_12
REMARK    4  A    between atoms: C_8  and  C_14
REMARK    5  A    between atoms: C_15  and  C_16
REMARK    6  A    between atoms: C_22  and  C_26
REMARK                            x       y       z     vdW  Elec       q    Type
REMARK                         _______ _______ _______ _____ _____    ______ ____
ROOT
ATOM      1  O   UNL     1      37.410 -23.183 -15.274  0.00  0.00    -0.273 OA
ATOM      2  N   UNL     1      35.078 -23.631 -15.379  0.00  0.00    -0.253 N 
ATOM      3  C   UNL     1      34.075 -23.290 -16.307  0.00  0.00    +0.052 C 
ATOM      4  C   UNL     1      34.612 -22.538 -17.352  0.00  0.00    +0.018 C 
ATOM      5  C   UNL     1      36.306 -23.124 -15.771  0.00  0.00    +0.252 C 
ATOM      6  C   UNL     1      36.027 -22.400 -17.067  0.00  0.00    +0.202 C 
ATOM      7  C   UNL     1      33.855 -22.067 -18.404  0.00  0.00    -0.001 C 
ATOM      8  C   UNL     1      32.727 -23.599 -16.284  0.00  0.00    +0.015 C 
ATOM      9  C   UNL     1      32.494 -22.376 -18.389  0.00  0.00    -0.000 C 
ATOM     10  C   UNL     1      31.936 -23.133 -17.341  0.00  0.00    +0.001 C 
ENDROOT
BRANCH   7  11
ATOM     11  C   UNL     1      34.407 -21.283 -19.494  0.00  0.00    -0.000 C 
ATOM     12  C   UNL     1      33.705 -20.426 -20.276  0.00  0.00    -0.000 C 
BRANCH  12  13
ATOM     13  C   UNL     1      34.269 -19.617 -21.371  0.00  0.00    -0.000 C 
ATOM     14  C   UNL     1      35.210 -18.626 -21.093  0.00  0.00    -0.000 C 
ATOM     15  C   UNL     1      33.863 -19.844 -22.686  0.00  0.00    -0.000 C 
ATOM     16  C   UNL     1      35.744 -17.860 -22.130  0.00  0.00    +0.000 C 
ATOM     17  C   UNL     1      34.397 -19.079 -23.723  0.00  0.00    +0.000 C 
ATOM     18  C   UNL     1      35.337 -18.086 -23.445  0.00  0.00    +0.000 C 
ENDBRANCH  12  13
ENDBRANCH   7  11
BRANCH   6  19
ATOM     19  N   UNL     1      36.928 -21.787 -17.748  0.00  0.00    -0.075 NA
BRANCH  19  20
ATOM     20  O   UNL     1      37.322 -20.649 -17.040  0.00  0.00    -0.294 OA
ATOM     21  H   UNL     1      36.818 -19.861 -17.101  0.00  0.00    +0.238 HD
ENDBRANCH  19  20
ENDBRANCH   6  19
BRANCH   2  22
ATOM     22  C   UNL     1      34.829 -24.407 -14.189  0.00  0.00    +0.128 C 
BRANCH  22  26
ATOM     23  F   UNL     1      37.292 -22.748 -10.338  0.00  0.00    -0.204 F 
ATOM     24  O   UNL     1      36.912 -26.233 -14.573  0.00  0.00    -0.448 OA
ATOM     25  O   UNL     1      39.206 -26.870 -14.261  0.00  0.00    -0.311 OA
ATOM     26  C   UNL     1      36.030 -24.459 -13.290  0.00  0.00    +0.034 C 
ATOM     27  C   UNL     1      37.053 -25.383 -13.504  0.00  0.00    +0.138 C 
ATOM     28  C   UNL     1      38.175 -25.408 -12.666  0.00  0.00    +0.043 C 
ATOM     29  C   UNL     1      36.114 -23.569 -12.220  0.00  0.00    +0.030 C 
ATOM     30  C   UNL     1      39.265 -26.406 -12.913  0.00  0.00    +0.176 C 
ATOM     31  C   UNL     1      38.245 -24.520 -11.589  0.00  0.00    +0.031 C 
ATOM     32  C   UNL     1      37.218 -23.601 -11.368  0.00  0.00    +0.140 C 
ATOM     33  C   UNL     1      37.881 -27.287 -14.582  0.00  0.00    +0.361 C 
ENDBRANCH  22  26
ENDBRANCH   2  22
TORSDOF 6
ENDMDL
MODEL 9
REMARK VINA RESULT:     -10.1      1.855      2.599
REMARK  Name = 45268539
REMARK  6 active torsions:
REMARK  status: ('A' for Active; 'I' for Inactive)
REMARK    1  A    between atoms: N_2  and  C_22
REMARK    2  A    between atoms: N_3  and  C_7
REMARK    3  A    between atoms: N_3  and  O_12
REMARK    4  A    between atoms: C_8  and  C_14
REMARK    5  A    between atoms: C_15  and  C_16
REMARK    6  A    between atoms: C_22  and  C_26
REMARK                            x       y       z     vdW  Elec       q    Type
REMARK                         _______ _______ _______ _____ _____    ______ ____
ROOT
ATOM      1  O   UNL     1      37.493 -22.313 -15.359  0.00  0.00    -0.273 OA
ATOM      2  N   UNL     1      35.253 -23.091 -15.534  0.00  0.00    -0.253 N 
ATOM      3  C   UNL     1      34.265 -22.961 -16.529  0.00  0.00    +0.052 C 
ATOM      4  C   UNL     1      34.751 -22.217 -17.605  0.00  0.00    +0.018 C 
ATOM      5  C   UNL     1      36.420 -22.446 -15.909  0.00  0.00    +0.252 C 
ATOM      6  C   UNL     1      36.116 -21.862 -17.268  0.00  0.00    +0.202 C 
ATOM      7  C   UNL     1      33.996 -21.933 -18.723  0.00  0.00    -0.001 C 
ATOM      8  C   UNL     1      32.974 -23.454 -16.543  0.00  0.00    +0.015 C 
ATOM      9  C   UNL     1      32.692 -22.428 -18.745  0.00  0.00    -0.000 C 
ATOM     10  C   UNL     1      32.185 -23.180 -17.667  0.00  0.00    +0.001 C 
ENDROOT
BRANCH   7  11
ATOM     11  C   UNL     1      34.496 -21.159 -19.845  0.00  0.00    -0.000 C 
ATOM     12  C   UNL     1      33.804 -20.194 -20.500  0.00  0.00    -0.000 C 
BRANCH  12  13
ATOM     13  C   UNL     1      34.317 -19.395 -21.627  0.00  0.00    -0.000 C 
ATOM     14  C   UNL     1      35.169 -18.317 -21.388  0.00  0.00    -0.000 C 
ATOM     15  C   UNL     1      33.952 -19.719 -22.934  0.00  0.00    -0.000 C 
ATOM     16  C   UNL     1      35.655 -17.562 -22.456  0.00  0.00    +0.000 C 
ATOM     17  C   UNL     1      34.437 -18.964 -24.001  0.00  0.00    +0.000 C 
ATOM     18  C   UNL     1      35.288 -17.885 -23.762  0.00  0.00    +0.000 C 
ENDBRANCH  12  13
ENDBRANCH   7  11
BRANCH   6  19
ATOM     19  N   UNL     1      36.962 -21.179 -17.954  0.00  0.00    -0.075 NA
BRANCH  19  20
ATOM     20  O   UNL     1      37.520 -20.201 -17.125  0.00  0.00    -0.294 OA
ATOM     21  H   UNL     1      38.417 -19.954 -17.231  0.00  0.00    +0.238 HD
ENDBRANCH  19  20
ENDBRANCH   6  19
BRANCH   2  22
ATOM     22  C   UNL     1      35.048 -23.808 -14.299  0.00  0.00    +0.128 C 
BRANCH  22  26
ATOM     23  F   UNL     1      36.779 -28.076 -15.859  0.00  0.00    -0.204 F 
ATOM     24  O   UNL     1      36.929 -23.945 -12.235  0.00  0.00    -0.448 OA
ATOM     25  O   UNL     1      38.370 -25.236 -10.814  0.00  0.00    -0.311 OA
ATOM     26  C   UNL     1      35.999 -24.959 -14.152  0.00  0.00    +0.034 C 
ATOM     27  C   UNL     1      36.929 -25.000 -13.113  0.00  0.00    +0.138 C 
ATOM     28  C   UNL     1      37.799 -26.089 -12.979  0.00  0.00    +0.043 C 
ATOM     29  C   UNL     1      35.950 -26.001 -15.078  0.00  0.00    +0.030 C 
ATOM     30  C   UNL     1      38.790 -26.117 -11.856  0.00  0.00    +0.176 C 
ATOM     31  C   UNL     1      37.750 -27.124 -13.919  0.00  0.00    +0.031 C 
ATOM     32  C   UNL     1      36.826 -27.080 -14.965  0.00  0.00    +0.140 C 
ATOM     33  C   UNL     1      38.053 -23.953 -11.349  0.00  0.00    +0.361 C 
ENDBRANCH  22  26
ENDBRANCH   2  22
TORSDOF 6
ENDMDL
