MODEL 1
REMARK VINA RESULT:     -12.3      0.000      0.000
REMARK  Name = 24743471
REMARK  3 active torsions:
REMARK  status: ('A' for Active; 'I' for Inactive)
REMARK    1  A    between atoms: C_1  and  N_7
REMARK    2  A    between atoms: C_6  and  C_17
REMARK    3  A    between atoms: C_22  and  N_24
REMARK                            x       y       z     vdW  Elec       q    Type
REMARK                         _______ _______ _______ _____ _____    ______ ____
ROOT
ATOM      1  C   UNL     1      36.065 -23.611 -15.430  0.00  0.00    +0.048 C 
ATOM      2  C   UNL     1      34.820 -23.643 -16.058  0.00  0.00    +0.015 C 
ATOM      3  C   UNL     1      37.090 -22.823 -15.952  0.00  0.00    +0.015 C 
ATOM      4  C   UNL     1      34.601 -22.886 -17.210  0.00  0.00    +0.001 C 
ATOM      5  C   UNL     1      36.870 -22.066 -17.103  0.00  0.00    +0.001 C 
ATOM      6  C   UNL     1      35.625 -22.098 -17.731  0.00  0.00    +0.000 C 
ENDROOT
BRANCH   1   7
ATOM      7  N   UNL     1      36.283 -24.359 -14.289  0.00  0.00    -0.311 N 
ATOM      8  N   UNL     1      38.940 -26.540 -13.673  0.00  0.00    +0.387 N 
ATOM      9  C   UNL     1      36.854 -26.117 -12.791  0.00  0.00    -0.003 C 
ATOM     10  C   UNL     1      36.794 -25.733 -14.280  0.00  0.00    +0.050 C 
ATOM     11  C   UNL     1      35.972 -25.105 -12.080  0.00  0.00    +0.021 C 
ATOM     12  C   UNL     1      38.333 -26.048 -12.438  0.00  0.00    -0.076 C 
ATOM     13  C   UNL     1      38.251 -25.824 -14.752  0.00  0.00    -0.057 C 
ATOM     14  C   UNL     1      36.072 -23.847 -12.937  0.00  0.00    +0.091 C 
ATOM     15  C   UNL     1      40.380 -26.340 -13.705  0.00  0.00    -0.101 C 
ATOM     16  H   UNL     1      38.829 -27.551 -13.767  0.00  0.00    -0.080 HD
ENDBRANCH   1   7
BRANCH   6  17
ATOM     17  C   UNL     1      35.398 -21.313 -18.925  0.00  0.00    +0.000 C 
ATOM     18  C   UNL     1      36.472 -20.696 -19.568  0.00  0.00    +0.001 C 
ATOM     19  C   UNL     1      34.107 -21.172 -19.433  0.00  0.00    +0.001 C 
ATOM     20  C   UNL     1      36.254 -19.939 -20.720  0.00  0.00    +0.017 C 
ATOM     21  C   UNL     1      33.888 -20.414 -20.584  0.00  0.00    +0.017 C 
ATOM     22  C   UNL     1      34.962 -19.798 -21.227  0.00  0.00    +0.077 C 
BRANCH  22  24
ATOM     23  O   UNL     1      35.614 -16.939 -21.730  0.00  0.00    -0.268 OA
ATOM     24  N   UNL     1      34.737 -19.014 -22.418  0.00  0.00    -0.155 N 
ATOM     25  N   UNL     1      34.175 -19.736 -23.446  0.00  0.00    -0.170 NA
ATOM     26  C   UNL     1      35.054 -17.658 -22.557  0.00  0.00    +0.272 C 
ATOM     27  C   UNL     1      34.695 -17.018 -23.848  0.00  0.00    +0.062 C 
ATOM     28  C   UNL     1      33.908 -19.126 -24.549  0.00  0.00    +0.118 C 
ATOM     29  C   UNL     1      34.137 -17.714 -24.831  0.00  0.00    +0.027 C 
ENDBRANCH  22  24
ENDBRANCH   6  17
TORSDOF 3
ENDMDL
MODEL 2
REMARK VINA RESULT:     -10.8      1.109      2.071
REMARK  Name = 24743471
REMARK  3 active torsions:
REMARK  status: ('A' for Active; 'I' for Inactive)
REMARK    1  A    between atoms: C_1  and  N_7
REMARK    2  A    between atoms: C_6  and  C_17
REMARK    3  A    between atoms: C_22  and  N_24
REMARK                            x       y       z     vdW  Elec       q    Type
REMARK                         _______ _______ _______ _____ _____    ______ ____
ROOT
ATOM      1  C   UNL     1      36.529 -23.934 -15.386  0.00  0.00    +0.048 C 
ATOM      2  C   UNL     1      37.531 -23.110 -15.899  0.00  0.00    +0.015 C 
ATOM      3  C   UNL     1      35.263 -23.940 -15.973  0.00  0.00    +0.015 C 
ATOM      4  C   UNL     1      37.267 -22.292 -16.997  0.00  0.00    +0.001 C 
ATOM      5  C   UNL     1      35.000 -23.122 -17.071  0.00  0.00    +0.001 C 
ATOM      6  C   UNL     1      36.003 -22.298 -17.583  0.00  0.00    +0.000 C 
ENDROOT
BRANCH   1   7
ATOM      7  N   UNL     1      36.789 -24.746 -14.299  0.00  0.00    -0.311 N 
ATOM      8  N   UNL     1      37.266 -23.748 -10.987  0.00  0.00    +0.387 N 
ATOM      9  C   UNL     1      37.659 -25.623 -12.267  0.00  0.00    -0.003 C 
ATOM     10  C   UNL     1      37.721 -24.415 -13.217  0.00  0.00    +0.050 C 
ATOM     11  C   UNL     1      37.034 -26.743 -13.080  0.00  0.00    +0.021 C 
ATOM     12  C   UNL     1      36.829 -25.139 -11.086  0.00  0.00    -0.076 C 
ATOM     13  C   UNL     1      37.237 -23.237 -12.362  0.00  0.00    -0.057 C 
ATOM     14  C   UNL     1      36.123 -26.027 -14.072  0.00  0.00    +0.091 C 
ATOM     15  C   UNL     1      36.435 -22.966 -10.085  0.00  0.00    -0.101 C 
ATOM     16  H   UNL     1      38.202 -23.679 -10.584  0.00  0.00    -0.080 HD
ENDBRANCH   1   7
BRANCH   6  17
ATOM     17  C   UNL     1      35.728 -21.449 -18.723  0.00  0.00    +0.000 C 
ATOM     18  C   UNL     1      36.764 -20.731 -19.321  0.00  0.00    +0.001 C 
ATOM     19  C   UNL     1      34.430 -21.348 -19.221  0.00  0.00    +0.001 C 
ATOM     20  C   UNL     1      36.500 -19.913 -20.420  0.00  0.00    +0.017 C 
ATOM     21  C   UNL     1      34.166 -20.530 -20.320  0.00  0.00    +0.017 C 
ATOM     22  C   UNL     1      35.202 -19.812 -20.918  0.00  0.00    +0.077 C 
BRANCH  22  24
ATOM     23  O   UNL     1      35.409 -16.851 -21.131  0.00  0.00    -0.268 OA
ATOM     24  N   UNL     1      34.929 -18.965 -22.056  0.00  0.00    -0.155 N 
ATOM     25  N   UNL     1      34.561 -19.666 -23.180  0.00  0.00    -0.170 NA
ATOM     26  C   UNL     1      35.029 -17.569 -22.057  0.00  0.00    +0.272 C 
ATOM     27  C   UNL     1      34.655 -16.874 -23.314  0.00  0.00    +0.062 C 
ATOM     28  C   UNL     1      34.270 -19.004 -24.247  0.00  0.00    +0.118 C 
ATOM     29  C   UNL     1      34.283 -17.553 -24.393  0.00  0.00    +0.027 C 
ENDBRANCH  22  24
ENDBRANCH   6  17
TORSDOF 3
ENDMDL
MODEL 3
REMARK VINA RESULT:     -10.5      8.095     15.367
REMARK  Name = 24743471
REMARK  3 active torsions:
REMARK  status: ('A' for Active; 'I' for Inactive)
REMARK    1  A    between atoms: C_1  and  N_7
REMARK    2  A    between atoms: C_6  and  C_17
REMARK    3  A    between atoms: C_22  and  N_24
REMARK                            x       y       z     vdW  Elec       q    Type
REMARK                         _______ _______ _______ _____ _____    ______ ____
ROOT
ATOM      1  C   UNL     1      32.538  -8.507 -22.764  0.00  0.00    +0.048 C 
ATOM      2  C   UNL     1      33.794  -8.905 -23.221  0.00  0.00    +0.015 C 
ATOM      3  C   UNL     1      31.587  -9.465 -22.412  0.00  0.00    +0.015 C 
ATOM      4  C   UNL     1      34.100 -10.263 -23.327  0.00  0.00    +0.001 C 
ATOM      5  C   UNL     1      31.894 -10.822 -22.517  0.00  0.00    +0.001 C 
ATOM      6  C   UNL     1      33.150 -11.220 -22.975  0.00  0.00    +0.000 C 
ENDROOT
BRANCH   1   7
ATOM      7  N   UNL     1      32.234  -7.164 -22.659  0.00  0.00    -0.311 N 
ATOM      8  N   UNL     1      33.025  -4.636 -24.934  0.00  0.00    +0.387 N 
ATOM      9  C   UNL     1      32.346  -4.789 -22.738  0.00  0.00    -0.003 C 
ATOM     10  C   UNL     1      33.132  -6.074 -23.052  0.00  0.00    +0.050 C 
ATOM     11  C   UNL     1      31.237  -5.217 -21.793  0.00  0.00    +0.021 C 
ATOM     12  C   UNL     1      31.879  -4.285 -24.097  0.00  0.00    -0.076 C 
ATOM     13  C   UNL     1      33.362  -6.015 -24.567  0.00  0.00    -0.057 C 
ATOM     14  C   UNL     1      30.947  -6.664 -22.180  0.00  0.00    +0.091 C 
ATOM     15  C   UNL     1      32.743  -4.492 -26.354  0.00  0.00    -0.101 C 
ATOM     16  H   UNL     1      33.812  -4.005 -24.774  0.00  0.00    -0.080 HD
ENDBRANCH   1   7
BRANCH   6  17
ATOM     17  C   UNL     1      33.467 -12.628 -23.084  0.00  0.00    +0.000 C 
ATOM     18  C   UNL     1      33.762 -13.366 -21.937  0.00  0.00    +0.001 C 
ATOM     19  C   UNL     1      33.478 -13.246 -24.334  0.00  0.00    +0.001 C 
ATOM     20  C   UNL     1      34.067 -14.724 -22.042  0.00  0.00    +0.017 C 
ATOM     21  C   UNL     1      33.783 -14.603 -24.438  0.00  0.00    +0.017 C 
ATOM     22  C   UNL     1      34.078 -15.342 -23.292  0.00  0.00    +0.077 C 
BRANCH  22  24
ATOM     23  O   UNL     1      33.142 -17.314 -25.314  0.00  0.00    -0.268 OA
ATOM     24  N   UNL     1      34.394 -16.747 -23.400  0.00  0.00    -0.155 N 
ATOM     25  N   UNL     1      35.278 -17.181 -22.440  0.00  0.00    -0.170 NA
ATOM     26  C   UNL     1      33.883 -17.609 -24.376  0.00  0.00    +0.272 C 
ATOM     27  C   UNL     1      34.290 -19.034 -24.286  0.00  0.00    +0.062 C 
ATOM     28  C   UNL     1      35.608 -18.426 -22.429  0.00  0.00    +0.118 C 
ATOM     29  C   UNL     1      35.130 -19.454 -23.346  0.00  0.00    +0.027 C 
ENDBRANCH  22  24
ENDBRANCH   6  17
TORSDOF 3
ENDMDL
MODEL 4
REMARK VINA RESULT:     -10.5      1.396      2.515
REMARK  Name = 24743471
REMARK  3 active torsions:
REMARK  status: ('A' for Active; 'I' for Inactive)
REMARK    1  A    between atoms: C_1  and  N_7
REMARK    2  A    between atoms: C_6  and  C_17
REMARK    3  A    between atoms: C_22  and  N_24
REMARK                            x       y       z     vdW  Elec       q    Type
REMARK                         _______ _______ _______ _____ _____    ______ ____
ROOT
ATOM      1  C   UNL     1      36.403 -23.833 -15.747  0.00  0.00    +0.048 C 
ATOM      2  C   UNL     1      37.419 -22.982 -16.182  0.00  0.00    +0.015 C 
ATOM      3  C   UNL     1      35.155 -23.806 -16.372  0.00  0.00    +0.015 C 
ATOM      4  C   UNL     1      37.188 -22.105 -17.242  0.00  0.00    +0.001 C 
ATOM      5  C   UNL     1      34.925 -22.929 -17.432  0.00  0.00    +0.001 C 
ATOM      6  C   UNL     1      35.942 -22.078 -17.866  0.00  0.00    +0.000 C 
ENDROOT
BRANCH   1   7
ATOM      7  N   UNL     1      36.630 -24.702 -14.699  0.00  0.00    -0.311 N 
ATOM      8  N   UNL     1      37.226 -23.873 -11.360  0.00  0.00    +0.387 N 
ATOM      9  C   UNL     1      37.478 -25.715 -12.720  0.00  0.00    -0.003 C 
ATOM     10  C   UNL     1      37.599 -24.474 -13.623  0.00  0.00    +0.050 C 
ATOM     11  C   UNL     1      36.769 -26.759 -13.565  0.00  0.00    +0.021 C 
ATOM     12  C   UNL     1      36.700 -25.229 -11.505  0.00  0.00    -0.076 C 
ATOM     13  C   UNL     1      37.204 -23.305 -12.712  0.00  0.00    -0.057 C 
ATOM     14  C   UNL     1      35.889 -25.948 -14.509  0.00  0.00    +0.091 C 
ATOM     15  C   UNL     1      36.461 -23.078 -10.411  0.00  0.00    -0.101 C 
ATOM     16  H   UNL     1      38.170 -23.878 -10.972  0.00  0.00    -0.080 HD
ENDBRANCH   1   7
BRANCH   6  17
ATOM     17  C   UNL     1      35.702 -21.168 -18.966  0.00  0.00    +0.000 C 
ATOM     18  C   UNL     1      34.424 -21.059 -19.513  0.00  0.00    +0.001 C 
ATOM     19  C   UNL     1      36.749 -20.402 -19.478  0.00  0.00    +0.001 C 
ATOM     20  C   UNL     1      34.192 -20.182 -20.573  0.00  0.00    +0.017 C 
ATOM     21  C   UNL     1      36.517 -19.525 -20.538  0.00  0.00    +0.017 C 
ATOM     22  C   UNL     1      35.238 -19.416 -21.085  0.00  0.00    +0.077 C 
BRANCH  22  24
ATOM     23  O   UNL     1      34.442 -20.040 -23.883  0.00  0.00    -0.268 OA
ATOM     24  N   UNL     1      34.998 -18.508 -22.183  0.00  0.00    -0.155 N 
ATOM     25  N   UNL     1      35.132 -17.184 -21.832  0.00  0.00    -0.170 NA
ATOM     26  C   UNL     1      34.650 -18.896 -23.481  0.00  0.00    +0.272 C 
ATOM     27  C   UNL     1      34.497 -17.811 -24.483  0.00  0.00    +0.062 C 
ATOM     28  C   UNL     1      34.964 -16.290 -22.744  0.00  0.00    +0.118 C 
ATOM     29  C   UNL     1      34.644 -16.534 -24.145  0.00  0.00    +0.027 C 
ENDBRANCH  22  24
ENDBRANCH   6  17
TORSDOF 3
ENDMDL
MODEL 5
REMARK VINA RESULT:     -10.3      6.497     13.696
REMARK  Name = 24743471
REMARK  3 active torsions:
REMARK  status: ('A' for Active; 'I' for Inactive)
REMARK    1  A    between atoms: C_1  and  N_7
REMARK    2  A    between atoms: C_6  and  C_17
REMARK    3  A    between atoms: C_22  and  N_24
REMARK                            x       y       z     vdW  Elec       q    Type
REMARK                         _______ _______ _______ _____ _____    ______ ____
ROOT
ATOM      1  C   UNL     1      32.654 -10.888 -23.016  0.00  0.00    +0.048 C 
ATOM      2  C   UNL     1      32.024 -11.609 -22.002  0.00  0.00    +0.015 C 
ATOM      3  C   UNL     1      33.754 -11.435 -23.679  0.00  0.00    +0.015 C 
ATOM      4  C   UNL     1      32.492 -12.875 -21.650  0.00  0.00    +0.001 C 
ATOM      5  C   UNL     1      34.222 -12.701 -23.327  0.00  0.00    +0.001 C 
ATOM      6  C   UNL     1      33.590 -13.420 -22.313  0.00  0.00    +0.000 C 
ENDROOT
BRANCH   1   7
ATOM      7  N   UNL     1      32.191  -9.636 -23.367  0.00  0.00    -0.311 N 
ATOM      8  N   UNL     1      31.816  -6.864 -21.276  0.00  0.00    +0.387 N 
ATOM      9  C   UNL     1      31.084  -7.530 -23.356  0.00  0.00    -0.003 C 
ATOM     10  C   UNL     1      31.312  -8.810 -22.533  0.00  0.00    +0.050 C 
ATOM     11  C   UNL     1      31.489  -7.887 -24.776  0.00  0.00    +0.021 C 
ATOM     12  C   UNL     1      31.955  -6.481 -22.679  0.00  0.00    -0.076 C 
ATOM     13  C   UNL     1      32.001  -8.319 -21.254  0.00  0.00    -0.057 C 
ATOM     14  C   UNL     1      32.565  -8.955 -24.605  0.00  0.00    +0.091 C 
ATOM     15  C   UNL     1      32.760  -6.171 -20.412  0.00  0.00    -0.101 C 
ATOM     16  H   UNL     1      30.902  -6.600 -20.905  0.00  0.00    -0.080 HD
ENDBRANCH   1   7
BRANCH   6  17
ATOM     17  C   UNL     1      34.077 -14.734 -21.948  0.00  0.00    +0.000 C 
ATOM     18  C   UNL     1      34.174 -15.092 -20.603  0.00  0.00    +0.001 C 
ATOM     19  C   UNL     1      34.449 -15.640 -22.940  0.00  0.00    +0.001 C 
ATOM     20  C   UNL     1      34.643 -16.358 -20.251  0.00  0.00    +0.017 C 
ATOM     21  C   UNL     1      34.918 -16.906 -22.588  0.00  0.00    +0.017 C 
ATOM     22  C   UNL     1      35.015 -17.264 -21.243  0.00  0.00    +0.077 C 
BRANCH  22  24
ATOM     23  O   UNL     1      33.527 -19.838 -21.126  0.00  0.00    -0.268 OA
ATOM     24  N   UNL     1      35.500 -18.575 -20.878  0.00  0.00    -0.155 N 
ATOM     25  N   UNL     1      36.845 -18.595 -20.588  0.00  0.00    -0.170 NA
ATOM     26  C   UNL     1      34.716 -19.732 -20.826  0.00  0.00    +0.272 C 
ATOM     27  C   UNL     1      35.392 -20.976 -20.377  0.00  0.00    +0.062 C 
ATOM     28  C   UNL     1      37.376 -19.712 -20.226  0.00  0.00    +0.118 C 
ATOM     29  C   UNL     1      36.687 -20.988 -20.081  0.00  0.00    +0.027 C 
ENDBRANCH  22  24
ENDBRANCH   6  17
TORSDOF 3
ENDMDL
MODEL 6
REMARK VINA RESULT:      -9.9      9.451     16.611
REMARK  Name = 24743471
REMARK  3 active torsions:
REMARK  status: ('A' for Active; 'I' for Inactive)
REMARK    1  A    between atoms: C_1  and  N_7
REMARK    2  A    between atoms: C_6  and  C_17
REMARK    3  A    between atoms: C_22  and  N_24
REMARK                            x       y       z     vdW  Elec       q    Type
REMARK                         _______ _______ _______ _____ _____    ______ ____
ROOT
ATOM      1  C   UNL     1      32.138  -6.891 -22.649  0.00  0.00    +0.048 C 
ATOM      2  C   UNL     1      33.471  -7.285 -22.760  0.00  0.00    +0.015 C 
ATOM      3  C   UNL     1      31.123  -7.848 -22.679  0.00  0.00    +0.015 C 
ATOM      4  C   UNL     1      33.790  -8.636 -22.901  0.00  0.00    +0.001 C 
ATOM      5  C   UNL     1      31.443  -9.199 -22.819  0.00  0.00    +0.001 C 
ATOM      6  C   UNL     1      32.776  -9.592 -22.931  0.00  0.00    +0.000 C 
ENDROOT
BRANCH   1   7
ATOM      7  N   UNL     1      31.821  -5.554 -22.508  0.00  0.00    -0.311 N 
ATOM      8  N   UNL     1      31.986  -3.076 -24.963  0.00  0.00    +0.387 N 
ATOM      9  C   UNL     1      31.831  -3.181 -22.666  0.00  0.00    -0.003 C 
ATOM     10  C   UNL     1      32.568  -4.452 -23.121  0.00  0.00    +0.050 C 
ATOM     11  C   UNL     1      30.982  -3.610 -21.483  0.00  0.00    +0.021 C 
ATOM     12  C   UNL     1      31.050  -2.732 -23.894  0.00  0.00    -0.076 C 
ATOM     13  C   UNL     1      32.444  -4.434 -24.650  0.00  0.00    -0.057 C 
ATOM     14  C   UNL     1      30.661  -5.075 -21.759  0.00  0.00    +0.091 C 
ATOM     15  C   UNL     1      31.382  -2.983 -26.283  0.00  0.00    -0.101 C 
ATOM     16  H   UNL     1      32.766  -2.419 -25.001  0.00  0.00    -0.080 HD
ENDBRANCH   1   7
BRANCH   6  17
ATOM     17  C   UNL     1      33.106 -10.993 -23.077  0.00  0.00    +0.000 C 
ATOM     18  C   UNL     1      32.369 -11.958 -22.391  0.00  0.00    +0.001 C 
ATOM     19  C   UNL     1      34.161 -11.379 -23.904  0.00  0.00    +0.001 C 
ATOM     20  C   UNL     1      32.686 -13.309 -22.532  0.00  0.00    +0.017 C 
ATOM     21  C   UNL     1      34.479 -12.730 -24.045  0.00  0.00    +0.017 C 
ATOM     22  C   UNL     1      33.741 -13.695 -23.358  0.00  0.00    +0.077 C 
BRANCH  22  24
ATOM     23  O   UNL     1      33.342 -15.469 -25.713  0.00  0.00    -0.268 OA
ATOM     24  N   UNL     1      34.070 -15.093 -23.504  0.00  0.00    -0.155 N 
ATOM     25  N   UNL     1      34.681 -15.627 -22.393  0.00  0.00    -0.170 NA
ATOM     26  C   UNL     1      33.820 -15.859 -24.648  0.00  0.00    +0.272 C 
ATOM     27  C   UNL     1      34.187 -17.296 -24.581  0.00  0.00    +0.062 C 
ATOM     28  C   UNL     1      34.994 -16.877 -22.407  0.00  0.00    +0.118 C 
ATOM     29  C   UNL     1      34.761 -17.813 -23.500  0.00  0.00    +0.027 C 
ENDBRANCH  22  24
ENDBRANCH   6  17
TORSDOF 3
ENDMDL
MODEL 7
REMARK VINA RESULT:      -9.7      7.799     15.190
REMARK  Name = 24743471
REMARK  3 active torsions:
REMARK  status: ('A' for Active; 'I' for Inactive)
REMARK    1  A    between atoms: C_1  and  N_7
REMARK    2  A    between atoms: C_6  and  C_17
REMARK    3  A    between atoms: C_22  and  N_24
REMARK                            x       y       z     vdW  Elec       q    Type
REMARK                         _______ _______ _______ _____ _____    ______ ____
ROOT
ATOM      1  C   UNL     1      33.455  -8.698 -23.756  0.00  0.00    +0.048 C 
ATOM      2  C   UNL     1      34.743  -9.230 -23.817  0.00  0.00    +0.015 C 
ATOM      3  C   UNL     1      32.362  -9.541 -23.547  0.00  0.00    +0.015 C 
ATOM      4  C   UNL     1      34.939 -10.603 -23.671  0.00  0.00    +0.001 C 
ATOM      5  C   UNL     1      32.559 -10.914 -23.399  0.00  0.00    +0.001 C 
ATOM      6  C   UNL     1      33.847 -11.444 -23.462  0.00  0.00    +0.000 C 
ENDROOT
BRANCH   1   7
ATOM      7  N   UNL     1      33.260  -7.339 -23.900  0.00  0.00    -0.311 N 
ATOM      8  N   UNL     1      30.780  -5.393 -22.397  0.00  0.00    +0.387 N 
ATOM      9  C   UNL     1      32.262  -5.194 -24.150  0.00  0.00    -0.003 C 
ATOM     10  C   UNL     1      31.948  -6.693 -24.000  0.00  0.00    +0.050 C 
ATOM     11  C   UNL     1      33.724  -5.129 -24.558  0.00  0.00    +0.021 C 
ATOM     12  C   UNL     1      31.945  -4.598 -22.785  0.00  0.00    -0.076 C 
ATOM     13  C   UNL     1      31.145  -6.781 -22.696  0.00  0.00    -0.057 C 
ATOM     14  C   UNL     1      34.350  -6.366 -23.923  0.00  0.00    +0.091 C 
ATOM     15  C   UNL     1      30.416  -5.202 -21.001  0.00  0.00    -0.101 C 
ATOM     16  H   UNL     1      29.946  -5.108 -22.911  0.00  0.00    -0.080 HD
ENDBRANCH   1   7
BRANCH   6  17
ATOM     17  C   UNL     1      34.050 -12.869 -23.309  0.00  0.00    +0.000 C 
ATOM     18  C   UNL     1      34.380 -13.396 -22.060  0.00  0.00    +0.001 C 
ATOM     19  C   UNL     1      33.916 -13.715 -24.410  0.00  0.00    +0.001 C 
ATOM     20  C   UNL     1      34.576 -14.770 -21.913  0.00  0.00    +0.017 C 
ATOM     21  C   UNL     1      34.111 -15.088 -24.263  0.00  0.00    +0.017 C 
ATOM     22  C   UNL     1      34.442 -15.615 -23.014  0.00  0.00    +0.077 C 
BRANCH  22  24
ATOM     23  O   UNL     1      33.938 -17.792 -24.978  0.00  0.00    -0.268 OA
ATOM     24  N   UNL     1      34.644 -17.037 -22.861  0.00  0.00    -0.155 N 
ATOM     25  N   UNL     1      35.176 -17.382 -21.641  0.00  0.00    -0.170 NA
ATOM     26  C   UNL     1      34.352 -17.996 -23.837  0.00  0.00    +0.272 C 
ATOM     27  C   UNL     1      34.584 -19.415 -23.467  0.00  0.00    +0.062 C 
ATOM     28  C   UNL     1      35.374 -18.631 -21.390  0.00  0.00    +0.118 C 
ATOM     29  C   UNL     1      35.081 -19.747 -22.281  0.00  0.00    +0.027 C 
ENDBRANCH  22  24
ENDBRANCH   6  17
TORSDOF 3
ENDMDL
MODEL 8
REMARK VINA RESULT:      -9.3      6.803     11.570
REMARK  Name = 24743471
REMARK  3 active torsions:
REMARK  status: ('A' for Active; 'I' for Inactive)
REMARK    1  A    between atoms: C_1  and  N_7
REMARK    2  A    between atoms: C_6  and  C_17
REMARK    3  A    between atoms: C_22  and  N_24
REMARK                            x       y       z     vdW  Elec       q    Type
REMARK                         _______ _______ _______ _____ _____    ______ ____
ROOT
ATOM      1  C   UNL     1      34.206 -15.908 -23.462  0.00  0.00    +0.048 C 
ATOM      2  C   UNL     1      34.607 -15.241 -22.304  0.00  0.00    +0.015 C 
ATOM      3  C   UNL     1      33.505 -15.223 -24.455  0.00  0.00    +0.015 C 
ATOM      4  C   UNL     1      34.306 -13.889 -22.139  0.00  0.00    +0.001 C 
ATOM      5  C   UNL     1      33.205 -13.870 -24.289  0.00  0.00    +0.001 C 
ATOM      6  C   UNL     1      33.606 -13.204 -23.131  0.00  0.00    +0.000 C 
ENDROOT
BRANCH   1   7
ATOM      7  N   UNL     1      34.504 -17.246 -23.628  0.00  0.00    -0.311 N 
ATOM      8  N   UNL     1      34.907 -19.644 -21.122  0.00  0.00    +0.387 N 
ATOM      9  C   UNL     1      35.409 -19.429 -23.360  0.00  0.00    -0.003 C 
ATOM     10  C   UNL     1      35.409 -18.011 -22.765  0.00  0.00    +0.050 C 
ATOM     11  C   UNL     1      34.850 -19.277 -24.764  0.00  0.00    +0.021 C 
ATOM     12  C   UNL     1      34.546 -20.244 -22.405  0.00  0.00    -0.076 C 
ATOM     13  C   UNL     1      34.857 -18.196 -21.346  0.00  0.00    -0.057 C 
ATOM     14  C   UNL     1      33.907 -18.082 -24.668  0.00  0.00    +0.091 C 
ATOM     15  C   UNL     1      34.029 -20.070 -20.042  0.00  0.00    -0.101 C 
ATOM     16  H   UNL     1      35.835 -19.942 -20.818  0.00  0.00    -0.080 HD
ENDBRANCH   1   7
BRANCH   6  17
ATOM     17  C   UNL     1      33.294 -11.801 -22.960  0.00  0.00    +0.000 C 
ATOM     18  C   UNL     1      34.166 -10.829 -23.449  0.00  0.00    +0.001 C 
ATOM     19  C   UNL     1      32.122 -11.422 -22.305  0.00  0.00    +0.001 C 
ATOM     20  C   UNL     1      33.866  -9.476 -23.285  0.00  0.00    +0.017 C 
ATOM     21  C   UNL     1      31.822 -10.069 -22.140  0.00  0.00    +0.017 C 
ATOM     22  C   UNL     1      32.695  -9.097 -22.630  0.00  0.00    +0.077 C 
BRANCH  22  24
ATOM     23  O   UNL     1      33.271  -7.327 -20.309  0.00  0.00    -0.268 OA
ATOM     24  N   UNL     1      32.384  -7.697 -22.460  0.00  0.00    -0.155 N 
ATOM     25  N   UNL     1      31.771  -7.138 -23.557  0.00  0.00    -0.170 NA
ATOM     26  C   UNL     1      32.672  -6.947 -21.314  0.00  0.00    +0.272 C 
ATOM     27  C   UNL     1      32.224  -5.531 -21.314  0.00  0.00    +0.062 C 
ATOM     28  C   UNL     1      31.427  -5.898 -23.502  0.00  0.00    +0.118 C 
ATOM     29  C   UNL     1      31.617  -4.999 -22.369  0.00  0.00    +0.027 C 
ENDBRANCH  22  24
ENDBRANCH   6  17
TORSDOF 3
ENDMDL
