MODEL 1
REMARK VINA RESULT:     -12.1      0.000      0.000
REMARK  Name = 24779675
REMARK  4 active torsions:
REMARK  status: ('A' for Active; 'I' for Inactive)
REMARK    1  A    between atoms: N_1  and  C_22
REMARK    2  A    between atoms: N_5  and  C_14
REMARK    3  A    between atoms: C_10  and  C_21
REMARK    4  A    between atoms: C_22  and  C_23
REMARK                            x       y       z     vdW  Elec       q    Type
REMARK                         _______ _______ _______ _____ _____    ______ ____
ROOT
ATOM      1  N   UNL     1      34.033 -23.083 -17.288  0.00  0.00    -0.259 N 
ATOM      2  N   UNL     1      32.195 -23.635 -16.025  0.00  0.00    -0.314 NA
ATOM      3  N   UNL     1      34.391 -24.149 -15.237  0.00  0.00    -0.295 NA
ATOM      4  N   UNL     1      32.572 -24.706 -13.964  0.00  0.00    -0.123 N 
ATOM      5  N   UNL     1      34.728 -25.229 -13.154  0.00  0.00    -0.274 N 
ATOM      6  N   UNL     1      31.969 -25.229 -12.882  0.00  0.00    -0.170 NA
ATOM      7  C   UNL     1      33.502 -23.625 -16.173  0.00  0.00    +0.203 C 
ATOM      8  C   UNL     1      31.712 -24.190 -14.889  0.00  0.00    +0.219 C 
ATOM      9  C   UNL     1      33.947 -24.687 -14.139  0.00  0.00    +0.279 C 
ATOM     10  C   UNL     1      30.453 -24.388 -14.372  0.00  0.00    +0.203 C 
ATOM     11  C   UNL     1      30.673 -25.030 -13.137  0.00  0.00    +0.116 C 
ATOM     12  H   UNL     1      35.012 -23.081 -17.387  0.00  0.00    +0.160 HD
ATOM     13  H   UNL     1      34.257 -25.603 -12.375  0.00  0.00    +0.156 HD
ENDROOT
BRANCH   5  14
ATOM     14  C   UNL     1      36.122 -25.306 -13.138  0.00  0.00    +0.051 C 
ATOM     15  C   UNL     1      36.783 -26.166 -14.016  0.00  0.00    +0.015 C 
ATOM     16  C   UNL     1      36.854 -24.525 -12.244  0.00  0.00    +0.015 C 
ATOM     17  C   UNL     1      38.175 -26.245 -13.999  0.00  0.00    +0.001 C 
ATOM     18  C   UNL     1      38.247 -24.604 -12.228  0.00  0.00    +0.001 C 
ATOM     19  C   UNL     1      38.907 -25.464 -13.105  0.00  0.00    +0.000 C 
ENDBRANCH   5  14
BRANCH  10  21
ATOM     20  N   UNL     1      28.212 -23.716 -15.463  0.00  0.00    -0.195 NA
ATOM     21  C   UNL     1      29.219 -24.019 -14.971  0.00  0.00    +0.087 C 
ENDBRANCH  10  21
BRANCH   1  22
ATOM     22  C   UNL     1      33.238 -22.506 -18.340  0.00  0.00    +0.099 C 
BRANCH  22  23
ATOM     23  C   UNL     1      34.152 -21.949 -19.430  0.00  0.00    +0.020 C 
ATOM     24  C   UNL     1      33.540 -20.690 -20.059  0.00  0.00    +0.002 C 
ATOM     25  C   UNL     1      35.549 -21.654 -18.867  0.00  0.00    +0.002 C 
ATOM     26  C   UNL     1      34.461 -20.083 -21.116  0.00  0.00    +0.000 C 
ATOM     27  C   UNL     1      36.466 -21.045 -19.926  0.00  0.00    +0.000 C 
ATOM     28  C   UNL     1      35.850 -19.799 -20.556  0.00  0.00    +0.000 C 
ENDBRANCH  22  23
ENDBRANCH   1  22
TORSDOF 4
ENDMDL
MODEL 2
REMARK VINA RESULT:     -11.0      1.770      7.191
REMARK  Name = 24779675
REMARK  4 active torsions:
REMARK  status: ('A' for Active; 'I' for Inactive)
REMARK    1  A    between atoms: N_1  and  C_22
REMARK    2  A    between atoms: N_5  and  C_14
REMARK    3  A    between atoms: C_10  and  C_21
REMARK    4  A    between atoms: C_22  and  C_23
REMARK                            x       y       z     vdW  Elec       q    Type
REMARK                         _______ _______ _______ _____ _____    ______ ____
ROOT
ATOM      1  N   UNL     1      33.027 -23.290 -14.576  0.00  0.00    -0.259 N 
ATOM      2  N   UNL     1      35.109 -23.996 -13.906  0.00  0.00    -0.314 NA
ATOM      3  N   UNL     1      34.842 -22.851 -15.985  0.00  0.00    -0.295 NA
ATOM      4  N   UNL     1      36.924 -23.545 -15.334  0.00  0.00    -0.123 N 
ATOM      5  N   UNL     1      36.697 -22.416 -17.395  0.00  0.00    -0.274 N 
ATOM      6  N   UNL     1      38.252 -23.689 -15.486  0.00  0.00    -0.170 NA
ATOM      7  C   UNL     1      34.354 -23.395 -14.799  0.00  0.00    +0.203 C 
ATOM      8  C   UNL     1      36.432 -24.074 -14.176  0.00  0.00    +0.219 C 
ATOM      9  C   UNL     1      36.111 -22.917 -16.264  0.00  0.00    +0.279 C 
ATOM     10  C   UNL     1      37.522 -24.602 -13.521  0.00  0.00    +0.203 C 
ATOM     11  C   UNL     1      38.612 -24.335 -14.373  0.00  0.00    +0.116 C 
ATOM     12  H   UNL     1      32.474 -22.838 -15.252  0.00  0.00    +0.160 HD
ATOM     13  H   UNL     1      37.670 -22.537 -17.477  0.00  0.00    +0.156 HD
ENDROOT
BRANCH   5  14
ATOM     14  C   UNL     1      36.060 -21.752 -18.445  0.00  0.00    +0.051 C 
ATOM     15  C   UNL     1      36.783 -20.880 -19.259  0.00  0.00    +0.015 C 
ATOM     16  C   UNL     1      34.701 -21.961 -18.680  0.00  0.00    +0.015 C 
ATOM     17  C   UNL     1      36.146 -20.215 -20.308  0.00  0.00    +0.001 C 
ATOM     18  C   UNL     1      34.065 -21.297 -19.729  0.00  0.00    +0.001 C 
ATOM     19  C   UNL     1      34.787 -20.424 -20.543  0.00  0.00    +0.000 C 
ENDBRANCH   5  14
BRANCH  10  21
ATOM     20  N   UNL     1      37.518 -25.810 -11.240  0.00  0.00    -0.195 NA
ATOM     21  C   UNL     1      37.520 -25.266 -12.265  0.00  0.00    +0.087 C 
ENDBRANCH  10  21
BRANCH   1  22
ATOM     22  C   UNL     1      32.383 -23.806 -13.396  0.00  0.00    +0.099 C 
BRANCH  22  23
ATOM     23  C   UNL     1      30.891 -23.993 -13.665  0.00  0.00    +0.020 C 
ATOM     24  C   UNL     1      30.434 -23.099 -14.826  0.00  0.00    +0.002 C 
ATOM     25  C   UNL     1      30.573 -25.466 -13.954  0.00  0.00    +0.002 C 
ATOM     26  C   UNL     1      28.956 -23.306 -15.150  0.00  0.00    +0.000 C 
ATOM     27  C   UNL     1      29.095 -25.670 -14.280  0.00  0.00    +0.000 C 
ATOM     28  C   UNL     1      28.642 -24.773 -15.427  0.00  0.00    +0.000 C 
ENDBRANCH  22  23
ENDBRANCH   1  22
TORSDOF 4
ENDMDL
MODEL 3
REMARK VINA RESULT:     -10.1      1.277      6.436
REMARK  Name = 24779675
REMARK  4 active torsions:
REMARK  status: ('A' for Active; 'I' for Inactive)
REMARK    1  A    between atoms: N_1  and  C_22
REMARK    2  A    between atoms: N_5  and  C_14
REMARK    3  A    between atoms: C_10  and  C_21
REMARK    4  A    between atoms: C_22  and  C_23
REMARK                            x       y       z     vdW  Elec       q    Type
REMARK                         _______ _______ _______ _____ _____    ______ ____
ROOT
ATOM      1  N   UNL     1      35.586 -23.297 -14.691  0.00  0.00    -0.259 N 
ATOM      2  N   UNL     1      33.366 -23.838 -14.444  0.00  0.00    -0.314 NA
ATOM      3  N   UNL     1      34.127 -22.778 -16.444  0.00  0.00    -0.295 NA
ATOM      4  N   UNL     1      31.912 -23.310 -16.216  0.00  0.00    -0.123 N 
ATOM      5  N   UNL     1      32.629 -22.262 -18.208  0.00  0.00    -0.274 N 
ATOM      6  N   UNL     1      30.635 -23.367 -16.631  0.00  0.00    -0.170 NA
ATOM      7  C   UNL     1      34.327 -23.319 -15.176  0.00  0.00    +0.203 C 
ATOM      8  C   UNL     1      32.122 -23.837 -14.975  0.00  0.00    +0.219 C 
ATOM      9  C   UNL     1      32.938 -22.766 -16.973  0.00  0.00    +0.279 C 
ATOM     10  C   UNL     1      30.889 -24.273 -14.547  0.00  0.00    +0.203 C 
ATOM     11  C   UNL     1      30.014 -23.958 -15.606  0.00  0.00    +0.116 C 
ATOM     12  H   UNL     1      36.295 -22.906 -15.249  0.00  0.00    +0.160 HD
ATOM     13  H   UNL     1      31.686 -22.319 -18.483  0.00  0.00    +0.156 HD
ENDROOT
BRANCH   5  14
ATOM     14  C   UNL     1      33.511 -21.677 -19.119  0.00  0.00    +0.051 C 
ATOM     15  C   UNL     1      33.044 -20.728 -20.029  0.00  0.00    +0.015 C 
ATOM     16  C   UNL     1      34.857 -22.042 -19.119  0.00  0.00    +0.015 C 
ATOM     17  C   UNL     1      33.924 -20.143 -20.940  0.00  0.00    +0.001 C 
ATOM     18  C   UNL     1      35.737 -21.457 -20.030  0.00  0.00    +0.001 C 
ATOM     19  C   UNL     1      35.271 -20.508 -20.940  0.00  0.00    +0.000 C 
ENDBRANCH   5  14
BRANCH  10  21
ATOM     20  N   UNL     1      30.350 -25.409 -12.293  0.00  0.00    -0.195 NA
ATOM     21  C   UNL     1      30.591 -24.897 -13.307  0.00  0.00    +0.087 C 
ENDBRANCH  10  21
BRANCH   1  22
ATOM     22  C   UNL     1      35.941 -23.819 -13.398  0.00  0.00    +0.099 C 
BRANCH  22  23
ATOM     23  C   UNL     1      37.404 -24.257 -13.404  0.00  0.00    +0.020 C 
ATOM     24  C   UNL     1      37.559 -25.638 -12.752  0.00  0.00    +0.002 C 
ATOM     25  C   UNL     1      37.962 -24.263 -14.834  0.00  0.00    +0.002 C 
ATOM     26  C   UNL     1      39.006 -26.123 -12.794  0.00  0.00    +0.000 C 
ATOM     27  C   UNL     1      39.409 -24.750 -14.872  0.00  0.00    +0.000 C 
ATOM     28  C   UNL     1      39.560 -26.119 -14.215  0.00  0.00    +0.000 C 
ENDBRANCH  22  23
ENDBRANCH   1  22
TORSDOF 4
ENDMDL
MODEL 4
REMARK VINA RESULT:      -9.9      1.422      6.671
REMARK  Name = 24779675
REMARK  4 active torsions:
REMARK  status: ('A' for Active; 'I' for Inactive)
REMARK    1  A    between atoms: N_1  and  C_22
REMARK    2  A    between atoms: N_5  and  C_14
REMARK    3  A    between atoms: C_10  and  C_21
REMARK    4  A    between atoms: C_22  and  C_23
REMARK                            x       y       z     vdW  Elec       q    Type
REMARK                         _______ _______ _______ _____ _____    ______ ____
ROOT
ATOM      1  N   UNL     1      35.400 -24.338 -15.495  0.00  0.00    -0.259 N 
ATOM      2  N   UNL     1      33.139 -24.377 -15.091  0.00  0.00    -0.314 NA
ATOM      3  N   UNL     1      34.005 -23.148 -16.947  0.00  0.00    -0.295 NA
ATOM      4  N   UNL     1      31.749 -23.175 -16.560  0.00  0.00    -0.123 N 
ATOM      5  N   UNL     1      32.570 -21.950 -18.405  0.00  0.00    -0.274 N 
ATOM      6  N   UNL     1      30.473 -22.844 -16.827  0.00  0.00    -0.170 NA
ATOM      7  C   UNL     1      34.147 -23.963 -15.827  0.00  0.00    +0.203 C 
ATOM      8  C   UNL     1      31.903 -23.974 -15.465  0.00  0.00    +0.219 C 
ATOM      9  C   UNL     1      32.824 -22.749 -17.323  0.00  0.00    +0.279 C 
ATOM     10  C   UNL     1      30.631 -24.183 -14.980  0.00  0.00    +0.203 C 
ATOM     11  C   UNL     1      29.794 -23.464 -15.857  0.00  0.00    +0.116 C 
ATOM     12  H   UNL     1      36.146 -24.022 -16.054  0.00  0.00    +0.160 HD
ATOM     13  H   UNL     1      31.626 -21.726 -18.573  0.00  0.00    +0.156 HD
ENDROOT
BRANCH   5  14
ATOM     14  C   UNL     1      33.506 -21.420 -19.294  0.00  0.00    +0.051 C 
ATOM     15  C   UNL     1      34.849 -21.784 -19.192  0.00  0.00    +0.015 C 
ATOM     16  C   UNL     1      33.099 -20.526 -20.285  0.00  0.00    +0.015 C 
ATOM     17  C   UNL     1      35.786 -21.254 -20.080  0.00  0.00    +0.001 C 
ATOM     18  C   UNL     1      34.036 -19.996 -21.173  0.00  0.00    +0.001 C 
ATOM     19  C   UNL     1      35.378 -20.360 -21.070  0.00  0.00    +0.000 C 
ENDBRANCH   5  14
BRANCH  10  21
ATOM     20  N   UNL     1      29.974 -25.585 -12.915  0.00  0.00    -0.195 NA
ATOM     21  C   UNL     1      30.270 -24.955 -13.844  0.00  0.00    +0.087 C 
ENDBRANCH  10  21
BRANCH   1  22
ATOM     22  C   UNL     1      35.699 -25.177 -14.365  0.00  0.00    +0.099 C 
BRANCH  22  23
ATOM     23  C   UNL     1      35.874 -24.315 -13.116  0.00  0.00    +0.020 C 
ATOM     24  C   UNL     1      35.439 -25.084 -11.861  0.00  0.00    +0.002 C 
ATOM     25  C   UNL     1      37.326 -23.835 -12.987  0.00  0.00    +0.002 C 
ATOM     26  C   UNL     1      35.654 -24.262 -10.592  0.00  0.00    +0.000 C 
ATOM     27  C   UNL     1      37.538 -23.015 -11.716  0.00  0.00    +0.000 C 
ATOM     28  C   UNL     1      37.096 -23.780 -10.471  0.00  0.00    +0.000 C 
ENDBRANCH  22  23
ENDBRANCH   1  22
TORSDOF 4
ENDMDL
MODEL 5
REMARK VINA RESULT:      -9.6      1.747      7.203
REMARK  Name = 24779675
REMARK  4 active torsions:
REMARK  status: ('A' for Active; 'I' for Inactive)
REMARK    1  A    between atoms: N_1  and  C_22
REMARK    2  A    between atoms: N_5  and  C_14
REMARK    3  A    between atoms: C_10  and  C_21
REMARK    4  A    between atoms: C_22  and  C_23
REMARK                            x       y       z     vdW  Elec       q    Type
REMARK                         _______ _______ _______ _____ _____    ______ ____
ROOT
ATOM      1  N   UNL     1      35.887 -23.638 -15.343  0.00  0.00    -0.259 N 
ATOM      2  N   UNL     1      35.504 -22.514 -17.310  0.00  0.00    -0.314 NA
ATOM      3  N   UNL     1      33.682 -23.488 -16.111  0.00  0.00    -0.295 NA
ATOM      4  N   UNL     1      33.281 -22.371 -18.068  0.00  0.00    -0.123 N 
ATOM      5  N   UNL     1      31.457 -23.322 -16.910  0.00  0.00    -0.274 N 
ATOM      6  N   UNL     1      32.493 -21.894 -19.048  0.00  0.00    -0.170 NA
ATOM      7  C   UNL     1      35.032 -23.192 -16.287  0.00  0.00    +0.203 C 
ATOM      8  C   UNL     1      34.607 -22.088 -18.228  0.00  0.00    +0.219 C 
ATOM      9  C   UNL     1      32.803 -23.089 -16.984  0.00  0.00    +0.279 C 
ATOM     10  C   UNL     1      34.691 -21.371 -19.400  0.00  0.00    +0.203 C 
ATOM     11  C   UNL     1      33.361 -21.283 -19.859  0.00  0.00    +0.116 C 
ATOM     12  H   UNL     1      35.521 -24.145 -14.583  0.00  0.00    +0.160 HD
ATOM     13  H   UNL     1      30.907 -22.961 -17.642  0.00  0.00    +0.156 HD
ENDROOT
BRANCH   5  14
ATOM     14  C   UNL     1      30.780 -24.018 -15.906  0.00  0.00    +0.051 C 
ATOM     15  C   UNL     1      29.425 -24.313 -16.054  0.00  0.00    +0.015 C 
ATOM     16  C   UNL     1      31.460 -24.418 -14.756  0.00  0.00    +0.015 C 
ATOM     17  C   UNL     1      28.748 -25.007 -15.051  0.00  0.00    +0.001 C 
ATOM     18  C   UNL     1      30.783 -25.113 -13.753  0.00  0.00    +0.001 C 
ATOM     19  C   UNL     1      29.428 -25.407 -13.900  0.00  0.00    +0.000 C 
ENDBRANCH   5  14
BRANCH  10  21
ATOM     20  N   UNL     1      36.835 -20.420 -20.478  0.00  0.00    -0.195 NA
ATOM     21  C   UNL     1      35.871 -20.848 -19.994  0.00  0.00    +0.087 C 
ENDBRANCH  10  21
BRANCH   1  22
ATOM     22  C   UNL     1      37.306 -23.409 -15.393  0.00  0.00    +0.099 C 
BRANCH  22  23
ATOM     23  C   UNL     1      37.978 -24.080 -14.196  0.00  0.00    +0.020 C 
ATOM     24  C   UNL     1      37.209 -23.776 -12.903  0.00  0.00    +0.002 C 
ATOM     25  C   UNL     1      38.096 -25.593 -14.419  0.00  0.00    +0.002 C 
ATOM     26  C   UNL     1      37.831 -24.480 -11.699  0.00  0.00    +0.000 C 
ATOM     27  C   UNL     1      38.716 -26.294 -13.212  0.00  0.00    +0.000 C 
ATOM     28  C   UNL     1      37.955 -25.983 -11.927  0.00  0.00    +0.000 C 
ENDBRANCH  22  23
ENDBRANCH   1  22
TORSDOF 4
ENDMDL
