MODEL 1
REMARK VINA RESULT:     -12.0      0.000      0.000
REMARK  Name = 6918151
REMARK  4 active torsions:
REMARK  status: ('A' for Active; 'I' for Inactive)
REMARK    1  A    between atoms: C_2  and  C_11
REMARK    2  A    between atoms: C_7  and  C_18
REMARK    3  A    between atoms: C_11  and  C_12
REMARK    4  A    between atoms: C_18  and  C_23
REMARK                            x       y       z     vdW  Elec       q    Type
REMARK                         _______ _______ _______ _____ _____    ______ ____
ROOT
ATOM      1  O   UNL     1      35.915 -20.080 -20.382  0.00  0.00    -0.479 OA
ATOM      2  C   UNL     1      35.075 -19.134 -21.061  0.00  0.00    +0.171 C 
ATOM      3  C   UNL     1      33.885 -19.823 -21.725  0.00  0.00    +0.049 C 
ATOM      4  C   UNL     1      33.019 -20.470 -20.650  0.00  0.00    +0.033 C 
ATOM      5  C   UNL     1      33.873 -21.214 -19.665  0.00  0.00    +0.012 C 
ATOM      6  C   UNL     1      35.251 -20.973 -19.579  0.00  0.00    +0.134 C 
ATOM      7  C   UNL     1      34.073 -22.846 -17.880  0.00  0.00    -0.021 C 
ATOM      8  C   UNL     1      33.289 -22.147 -18.798  0.00  0.00    -0.006 C 
ATOM      9  C   UNL     1      36.036 -21.683 -18.668  0.00  0.00    +0.036 C 
ATOM     10  C   UNL     1      35.446 -22.617 -17.817  0.00  0.00    -0.001 C 
ENDROOT
BRANCH   2  11
ATOM     11  C   UNL     1      35.939 -18.428 -22.099  0.00  0.00    +0.070 C 
BRANCH  11  12
ATOM     12  C   UNL     1      35.236 -17.236 -22.692  0.00  0.00    -0.019 C 
ATOM     13  C   UNL     1      34.847 -17.266 -24.025  0.00  0.00    -0.004 C 
ATOM     14  C   UNL     1      34.985 -16.125 -21.899  0.00  0.00    -0.004 C 
ATOM     15  C   UNL     1      34.195 -16.162 -24.574  0.00  0.00    -0.000 C 
ATOM     16  C   UNL     1      34.333 -15.022 -22.449  0.00  0.00    -0.000 C 
ATOM     17  C   UNL     1      33.938 -15.040 -23.786  0.00  0.00    -0.000 C 
ENDBRANCH  11  12
ENDBRANCH   2  11
BRANCH   7  18
ATOM     18  C   UNL     1      33.441 -23.841 -16.966  0.00  0.00    +0.047 C 
BRANCH  18  23
ATOM     19  S   UNL     1      33.349 -24.033 -14.214  0.00  0.00    -0.048 S 
ATOM     20  O   UNL     1      30.619 -22.847 -16.671  0.00  0.00    -0.274 OA
ATOM     21  O   UNL     1      31.449 -24.948 -12.643  0.00  0.00    -0.263 OA
ATOM     22  N   UNL     1      30.831 -23.906 -14.626  0.00  0.00    -0.246 N 
ATOM     23  C   UNL     1      32.822 -23.186 -15.734  0.00  0.00    +0.137 C 
ATOM     24  C   UNL     1      31.313 -23.280 -15.757  0.00  0.00    +0.239 C 
ATOM     25  C   UNL     1      31.714 -24.374 -13.688  0.00  0.00    +0.279 C 
ATOM     26  H   UNL     1      29.861 -24.017 -14.494  0.00  0.00    +0.158 HD
ENDBRANCH  18  23
ENDBRANCH   7  18
TORSDOF 4
ENDMDL
MODEL 2
REMARK VINA RESULT:     -11.3      3.627      9.210
REMARK  Name = 6918151
REMARK  4 active torsions:
REMARK  status: ('A' for Active; 'I' for Inactive)
REMARK    1  A    between atoms: C_2  and  C_11
REMARK    2  A    between atoms: C_7  and  C_18
REMARK    3  A    between atoms: C_11  and  C_12
REMARK    4  A    between atoms: C_18  and  C_23
REMARK                            x       y       z     vdW  Elec       q    Type
REMARK                         _______ _______ _______ _____ _____    ______ ____
ROOT
ATOM      1  O   UNL     1      34.375 -23.351 -16.756  0.00  0.00    -0.479 OA
ATOM      2  C   UNL     1      35.118 -23.264 -15.531  0.00  0.00    +0.171 C 
ATOM      3  C   UNL     1      36.623 -23.336 -15.787  0.00  0.00    +0.049 C 
ATOM      4  C   UNL     1      37.042 -22.136 -16.628  0.00  0.00    +0.033 C 
ATOM      5  C   UNL     1      36.088 -21.935 -17.769  0.00  0.00    +0.012 C 
ATOM      6  C   UNL     1      34.822 -22.535 -17.764  0.00  0.00    +0.134 C 
ATOM      7  C   UNL     1      35.573 -20.922 -19.914  0.00  0.00    -0.021 C 
ATOM      8  C   UNL     1      36.451 -21.116 -18.847  0.00  0.00    -0.006 C 
ATOM      9  C   UNL     1      33.949 -22.350 -18.839  0.00  0.00    +0.036 C 
ATOM     10  C   UNL     1      34.325 -21.541 -19.912  0.00  0.00    -0.001 C 
ENDROOT
BRANCH   2  11
ATOM     11  C   UNL     1      34.665 -24.420 -14.646  0.00  0.00    +0.070 C 
BRANCH  11  12
ATOM     12  C   UNL     1      33.217 -24.288 -14.256  0.00  0.00    -0.019 C 
ATOM     13  C   UNL     1      32.507 -23.157 -14.637  0.00  0.00    -0.004 C 
ATOM     14  C   UNL     1      32.612 -25.297 -13.520  0.00  0.00    -0.004 C 
ATOM     15  C   UNL     1      31.165 -23.034 -14.275  0.00  0.00    -0.000 C 
ATOM     16  C   UNL     1      31.270 -25.174 -13.159  0.00  0.00    -0.000 C 
ATOM     17  C   UNL     1      30.547 -24.043 -13.536  0.00  0.00    -0.000 C 
ENDBRANCH  11  12
ENDBRANCH   2  11
BRANCH   7  18
ATOM     18  C   UNL     1      35.972 -20.053 -21.059  0.00  0.00    +0.047 C 
BRANCH  18  23
ATOM     19  S   UNL     1      34.524 -19.478 -23.338  0.00  0.00    -0.048 S 
ATOM     20  O   UNL     1      35.411 -17.182 -20.365  0.00  0.00    -0.274 OA
ATOM     21  O   UNL     1      34.604 -17.371 -24.908  0.00  0.00    -0.263 OA
ATOM     22  N   UNL     1      35.026 -17.072 -22.643  0.00  0.00    -0.246 N 
ATOM     23  C   UNL     1      34.816 -19.194 -21.565  0.00  0.00    +0.137 C 
ATOM     24  C   UNL     1      35.121 -17.720 -21.428  0.00  0.00    +0.239 C 
ATOM     25  C   UNL     1      34.722 -17.793 -23.768  0.00  0.00    +0.279 C 
ATOM     26  H   UNL     1      35.176 -16.100 -22.700  0.00  0.00    +0.158 HD
ENDBRANCH  18  23
ENDBRANCH   7  18
TORSDOF 4
ENDMDL
MODEL 3
REMARK VINA RESULT:     -11.1      3.457      9.152
REMARK  Name = 6918151
REMARK  4 active torsions:
REMARK  status: ('A' for Active; 'I' for Inactive)
REMARK    1  A    between atoms: C_2  and  C_11
REMARK    2  A    between atoms: C_7  and  C_18
REMARK    3  A    between atoms: C_11  and  C_12
REMARK    4  A    between atoms: C_18  and  C_23
REMARK                            x       y       z     vdW  Elec       q    Type
REMARK                         _______ _______ _______ _____ _____    ______ ____
ROOT
ATOM      1  O   UNL     1      33.038 -23.581 -16.026  0.00  0.00    -0.479 OA
ATOM      2  C   UNL     1      33.578 -23.540 -14.697  0.00  0.00    +0.171 C 
ATOM      3  C   UNL     1      35.033 -24.006 -14.674  0.00  0.00    +0.049 C 
ATOM      4  C   UNL     1      35.876 -23.050 -15.508  0.00  0.00    +0.033 C 
ATOM      5  C   UNL     1      35.197 -22.752 -16.813  0.00  0.00    +0.012 C 
ATOM      6  C   UNL     1      33.833 -23.019 -16.993  0.00  0.00    +0.134 C 
ATOM      7  C   UNL     1      35.303 -21.895 -19.082  0.00  0.00    -0.021 C 
ATOM      8  C   UNL     1      35.924 -22.175 -17.864  0.00  0.00    -0.006 C 
ATOM      9  C   UNL     1      33.217 -22.750 -18.217  0.00  0.00    +0.036 C 
ATOM     10  C   UNL     1      33.952 -22.186 -19.259  0.00  0.00    -0.001 C 
ENDROOT
BRANCH   2  11
ATOM     11  C   UNL     1      32.708 -24.441 -13.829  0.00  0.00    +0.070 C 
BRANCH  11  12
ATOM     12  C   UNL     1      31.262 -24.388 -14.246  0.00  0.00    -0.019 C 
ATOM     13  C   UNL     1      30.513 -25.558 -14.264  0.00  0.00    -0.004 C 
ATOM     14  C   UNL     1      30.698 -23.172 -14.606  0.00  0.00    -0.004 C 
ATOM     15  C   UNL     1      29.174 -25.509 -14.650  0.00  0.00    -0.000 C 
ATOM     16  C   UNL     1      29.358 -23.125 -14.992  0.00  0.00    -0.000 C 
ATOM     17  C   UNL     1      28.597 -24.292 -15.015  0.00  0.00    -0.000 C 
ENDBRANCH  11  12
ENDBRANCH   2  11
BRANCH   7  18
ATOM     18  C   UNL     1      36.087 -21.287 -20.195  0.00  0.00    +0.047 C 
BRANCH  18  23
ATOM     19  S   UNL     1      34.326 -19.729 -21.640  0.00  0.00    -0.048 S 
ATOM     20  O   UNL     1      37.947 -18.952 -20.554  0.00  0.00    -0.274 OA
ATOM     21  O   UNL     1      34.726 -18.274 -23.793  0.00  0.00    -0.263 OA
ATOM     22  N   UNL     1      36.467 -18.486 -22.269  0.00  0.00    -0.246 N 
ATOM     23  C   UNL     1      35.698 -19.833 -20.452  0.00  0.00    +0.137 C 
ATOM     24  C   UNL     1      36.839 -19.056 -21.069  0.00  0.00    +0.239 C 
ATOM     25  C   UNL     1      35.203 -18.703 -22.754  0.00  0.00    +0.279 C 
ATOM     26  H   UNL     1      37.104 -17.929 -22.773  0.00  0.00    +0.158 HD
ENDBRANCH  18  23
ENDBRANCH   7  18
TORSDOF 4
ENDMDL
MODEL 4
REMARK VINA RESULT:     -11.1      4.461      9.709
REMARK  Name = 6918151
REMARK  4 active torsions:
REMARK  status: ('A' for Active; 'I' for Inactive)
REMARK    1  A    between atoms: C_2  and  C_11
REMARK    2  A    between atoms: C_7  and  C_18
REMARK    3  A    between atoms: C_11  and  C_12
REMARK    4  A    between atoms: C_18  and  C_23
REMARK                            x       y       z     vdW  Elec       q    Type
REMARK                         _______ _______ _______ _____ _____    ______ ____
ROOT
ATOM      1  O   UNL     1      34.581 -23.251 -16.858  0.00  0.00    -0.479 OA
ATOM      2  C   UNL     1      35.345 -23.163 -15.646  0.00  0.00    +0.171 C 
ATOM      3  C   UNL     1      36.845 -23.208 -15.930  0.00  0.00    +0.049 C 
ATOM      4  C   UNL     1      37.230 -21.995 -16.768  0.00  0.00    +0.033 C 
ATOM      5  C   UNL     1      36.252 -21.800 -17.890  0.00  0.00    +0.012 C 
ATOM      6  C   UNL     1      34.996 -22.420 -17.866  0.00  0.00    +0.134 C 
ATOM      7  C   UNL     1      35.681 -20.778 -20.017  0.00  0.00    -0.021 C 
ATOM      8  C   UNL     1      36.582 -20.966 -18.967  0.00  0.00    -0.006 C 
ATOM      9  C   UNL     1      34.101 -22.240 -18.924  0.00  0.00    +0.036 C 
ATOM     10  C   UNL     1      34.443 -21.417 -19.996  0.00  0.00    -0.001 C 
ENDROOT
BRANCH   2  11
ATOM     11  C   UNL     1      34.926 -24.333 -14.763  0.00  0.00    +0.070 C 
BRANCH  11  12
ATOM     12  C   UNL     1      35.906 -24.565 -13.644  0.00  0.00    -0.019 C 
ATOM     13  C   UNL     1      36.089 -23.580 -12.681  0.00  0.00    -0.004 C 
ATOM     14  C   UNL     1      36.612 -25.758 -13.589  0.00  0.00    -0.004 C 
ATOM     15  C   UNL     1      36.997 -23.795 -11.644  0.00  0.00    -0.000 C 
ATOM     16  C   UNL     1      37.520 -25.972 -12.551  0.00  0.00    -0.000 C 
ATOM     17  C   UNL     1      37.712 -24.991 -11.580  0.00  0.00    -0.000 C 
ENDBRANCH  11  12
ENDBRANCH   2  11
BRANCH   7  18
ATOM     18  C   UNL     1      36.045 -19.894 -21.161  0.00  0.00    +0.047 C 
BRANCH  18  23
ATOM     19  S   UNL     1      34.613 -19.341 -23.455  0.00  0.00    -0.048 S 
ATOM     20  O   UNL     1      35.317 -17.074 -20.411  0.00  0.00    -0.274 OA
ATOM     21  O   UNL     1      34.609 -17.194 -24.973  0.00  0.00    -0.263 OA
ATOM     22  N   UNL     1      34.971 -16.928 -22.693  0.00  0.00    -0.246 N 
ATOM     23  C   UNL     1      34.854 -19.085 -21.670  0.00  0.00    +0.137 C 
ATOM     24  C   UNL     1      35.077 -17.600 -21.492  0.00  0.00    +0.239 C 
ATOM     25  C   UNL     1      34.728 -17.637 -23.841  0.00  0.00    +0.279 C 
ATOM     26  H   UNL     1      35.069 -15.949 -22.724  0.00  0.00    +0.158 HD
ENDBRANCH  18  23
ENDBRANCH   7  18
TORSDOF 4
ENDMDL
MODEL 5
REMARK VINA RESULT:     -11.1      4.300      9.571
REMARK  Name = 6918151
REMARK  4 active torsions:
REMARK  status: ('A' for Active; 'I' for Inactive)
REMARK    1  A    between atoms: C_2  and  C_11
REMARK    2  A    between atoms: C_7  and  C_18
REMARK    3  A    between atoms: C_11  and  C_12
REMARK    4  A    between atoms: C_18  and  C_23
REMARK                            x       y       z     vdW  Elec       q    Type
REMARK                         _______ _______ _______ _____ _____    ______ ____
ROOT
ATOM      1  O   UNL     1      35.413 -23.206 -15.202  0.00  0.00    -0.479 OA
ATOM      2  C   UNL     1      34.367 -24.131 -14.871  0.00  0.00    +0.171 C 
ATOM      3  C   UNL     1      33.013 -23.649 -15.389  0.00  0.00    +0.049 C 
ATOM      4  C   UNL     1      33.059 -23.580 -16.911  0.00  0.00    +0.033 C 
ATOM      5  C   UNL     1      34.325 -22.917 -17.370  0.00  0.00    +0.012 C 
ATOM      6  C   UNL     1      35.420 -22.781 -16.506  0.00  0.00    +0.134 C 
ATOM      7  C   UNL     1      35.605 -21.832 -19.124  0.00  0.00    -0.021 C 
ATOM      8  C   UNL     1      34.432 -22.450 -18.686  0.00  0.00    -0.006 C 
ATOM      9  C   UNL     1      36.588 -22.150 -16.941  0.00  0.00    +0.036 C 
ATOM     10  C   UNL     1      36.680 -21.679 -18.251  0.00  0.00    -0.001 C 
ENDROOT
BRANCH   2  11
ATOM     11  C   UNL     1      34.348 -24.266 -13.353  0.00  0.00    +0.070 C 
BRANCH  11  12
ATOM     12  C   UNL     1      35.732 -24.460 -12.793  0.00  0.00    -0.019 C 
ATOM     13  C   UNL     1      36.261 -23.506 -11.934  0.00  0.00    -0.004 C 
ATOM     14  C   UNL     1      36.460 -25.588 -13.143  0.00  0.00    -0.004 C 
ATOM     15  C   UNL     1      37.543 -23.685 -11.415  0.00  0.00    -0.000 C 
ATOM     16  C   UNL     1      37.742 -25.767 -12.624  0.00  0.00    -0.000 C 
ATOM     17  C   UNL     1      38.284 -24.816 -11.760  0.00  0.00    -0.000 C 
ENDBRANCH  11  12
ENDBRANCH   2  11
BRANCH   7  18
ATOM     18  C   UNL     1      35.705 -21.333 -20.525  0.00  0.00    +0.047 C 
BRANCH  18  23
ATOM     19  S   UNL     1      34.191 -19.567 -22.010  0.00  0.00    -0.048 S 
ATOM     20  O   UNL     1      37.582 -18.999 -20.258  0.00  0.00    -0.274 OA
ATOM     21  O   UNL     1      34.923 -17.839 -23.851  0.00  0.00    -0.263 OA
ATOM     22  N   UNL     1      36.397 -18.283 -22.110  0.00  0.00    -0.246 N 
ATOM     23  C   UNL     1      35.353 -19.852 -20.641  0.00  0.00    +0.137 C 
ATOM     24  C   UNL     1      36.573 -19.016 -20.954  0.00  0.00    +0.239 C 
ATOM     25  C   UNL     1      35.230 -18.412 -22.817  0.00  0.00    +0.279 C 
ATOM     26  H   UNL     1      37.103 -17.673 -22.424  0.00  0.00    +0.158 HD
ENDBRANCH  18  23
ENDBRANCH   7  18
TORSDOF 4
ENDMDL
MODEL 6
REMARK VINA RESULT:     -10.8      6.232     10.764
REMARK  Name = 6918151
REMARK  4 active torsions:
REMARK  status: ('A' for Active; 'I' for Inactive)
REMARK    1  A    between atoms: C_2  and  C_11
REMARK    2  A    between atoms: C_7  and  C_18
REMARK    3  A    between atoms: C_11  and  C_12
REMARK    4  A    between atoms: C_18  and  C_23
REMARK                            x       y       z     vdW  Elec       q    Type
REMARK                         _______ _______ _______ _____ _____    ______ ____
ROOT
ATOM      1  O   UNL     1      34.771 -17.318 -23.261  0.00  0.00    -0.479 OA
ATOM      2  C   UNL     1      34.748 -17.832 -21.921  0.00  0.00    +0.171 C 
ATOM      3  C   UNL     1      35.383 -16.849 -20.938  0.00  0.00    +0.049 C 
ATOM      4  C   UNL     1      34.563 -15.565 -20.919  0.00  0.00    +0.033 C 
ATOM      5  C   UNL     1      34.232 -15.131 -22.317  0.00  0.00    +0.012 C 
ATOM      6  C   UNL     1      34.341 -16.022 -23.392  0.00  0.00    +0.134 C 
ATOM      7  C   UNL     1      33.473 -13.410 -23.852  0.00  0.00    -0.021 C 
ATOM      8  C   UNL     1      33.782 -13.825 -22.556  0.00  0.00    -0.006 C 
ATOM      9  C   UNL     1      34.044 -15.601 -24.691  0.00  0.00    +0.036 C 
ATOM     10  C   UNL     1      33.607 -14.296 -24.919  0.00  0.00    -0.001 C 
ENDROOT
BRANCH   2  11
ATOM     11  C   UNL     1      35.509 -19.153 -21.931  0.00  0.00    +0.070 C 
BRANCH  11  12
ATOM     12  C   UNL     1      34.988 -20.104 -20.887  0.00  0.00    -0.019 C 
ATOM     13  C   UNL     1      35.885 -20.855 -20.139  0.00  0.00    -0.004 C 
ATOM     14  C   UNL     1      33.619 -20.217 -20.686  0.00  0.00    -0.004 C 
ATOM     15  C   UNL     1      35.403 -21.736 -19.171  0.00  0.00    -0.000 C 
ATOM     16  C   UNL     1      33.138 -21.098 -19.718  0.00  0.00    -0.000 C 
ATOM     17  C   UNL     1      34.029 -21.857 -18.961  0.00  0.00    -0.000 C 
ENDBRANCH  11  12
ENDBRANCH   2  11
BRANCH   7  18
ATOM     18  C   UNL     1      33.001 -12.017 -24.095  0.00  0.00    +0.047 C 
BRANCH  18  23
ATOM     19  S   UNL     1      31.513 -10.600 -22.252  0.00  0.00    -0.048 S 
ATOM     20  O   UNL     1      35.033  -9.846 -23.645  0.00  0.00    -0.274 OA
ATOM     21  O   UNL     1      31.117  -8.011 -22.026  0.00  0.00    -0.263 OA
ATOM     22  N   UNL     1      33.162  -8.742 -22.851  0.00  0.00    -0.246 N 
ATOM     23  C   UNL     1      33.143 -11.132 -22.859  0.00  0.00    +0.137 C 
ATOM     24  C   UNL     1      33.902  -9.862 -23.171  0.00  0.00    +0.239 C 
ATOM     25  C   UNL     1      31.894  -8.894 -22.353  0.00  0.00    +0.279 C 
ATOM     26  H   UNL     1      33.541  -7.843 -22.979  0.00  0.00    +0.158 HD
ENDBRANCH  18  23
ENDBRANCH   7  18
TORSDOF 4
ENDMDL
MODEL 7
REMARK VINA RESULT:     -10.8      5.827     10.064
REMARK  Name = 6918151
REMARK  4 active torsions:
REMARK  status: ('A' for Active; 'I' for Inactive)
REMARK    1  A    between atoms: C_2  and  C_11
REMARK    2  A    between atoms: C_7  and  C_18
REMARK    3  A    between atoms: C_11  and  C_12
REMARK    4  A    between atoms: C_18  and  C_23
REMARK                            x       y       z     vdW  Elec       q    Type
REMARK                         _______ _______ _______ _____ _____    ______ ____
ROOT
ATOM      1  O   UNL     1      35.624 -17.532 -20.746  0.00  0.00    -0.479 OA
ATOM      2  C   UNL     1      36.327 -18.456 -21.590  0.00  0.00    +0.171 C 
ATOM      3  C   UNL     1      35.452 -18.924 -22.751  0.00  0.00    +0.049 C 
ATOM      4  C   UNL     1      35.102 -17.726 -23.626  0.00  0.00    +0.033 C 
ATOM      5  C   UNL     1      34.677 -16.563 -22.779  0.00  0.00    +0.012 C 
ATOM      6  C   UNL     1      34.968 -16.525 -21.409  0.00  0.00    +0.134 C 
ATOM      7  C   UNL     1      33.601 -14.396 -22.585  0.00  0.00    -0.021 C 
ATOM      8  C   UNL     1      34.002 -15.483 -23.363  0.00  0.00    -0.006 C 
ATOM      9  C   UNL     1      34.555 -15.442 -20.629  0.00  0.00    +0.036 C 
ATOM     10  C   UNL     1      33.874 -14.377 -21.218  0.00  0.00    -0.001 C 
ENDROOT
BRANCH   2  11
ATOM     11  C   UNL     1      36.744 -19.635 -20.718  0.00  0.00    +0.070 C 
BRANCH  11  12
ATOM     12  C   UNL     1      35.553 -20.406 -20.216  0.00  0.00    -0.019 C 
ATOM     13  C   UNL     1      35.748 -21.495 -19.377  0.00  0.00    -0.004 C 
ATOM     14  C   UNL     1      34.276 -20.018 -20.599  0.00  0.00    -0.004 C 
ATOM     15  C   UNL     1      34.644 -22.210 -18.912  0.00  0.00    -0.000 C 
ATOM     16  C   UNL     1      33.173 -20.732 -20.133  0.00  0.00    -0.000 C 
ATOM     17  C   UNL     1      33.357 -21.828 -19.290  0.00  0.00    -0.000 C 
ENDBRANCH  11  12
ENDBRANCH   2  11
BRANCH   7  18
ATOM     18  C   UNL     1      32.878 -13.254 -23.216  0.00  0.00    +0.047 C 
BRANCH  18  23
ATOM     19  S   UNL     1      31.388 -11.324 -21.922  0.00  0.00    -0.048 S 
ATOM     20  O   UNL     1      34.760 -10.975 -23.767  0.00  0.00    -0.274 OA
ATOM     21  O   UNL     1      30.809  -8.864 -22.645  0.00  0.00    -0.263 OA
ATOM     22  N   UNL     1      32.857  -9.749 -23.296  0.00  0.00    -0.246 N 
ATOM     23  C   UNL     1      33.018 -11.964 -22.412  0.00  0.00    +0.137 C 
ATOM     24  C   UNL     1      33.661 -10.868 -23.233  0.00  0.00    +0.239 C 
ATOM     25  C   UNL     1      31.632  -9.766 -22.680  0.00  0.00    +0.279 C 
ATOM     26  H   UNL     1      33.159  -8.946 -23.779  0.00  0.00    +0.158 HD
ENDBRANCH  18  23
ENDBRANCH   7  18
TORSDOF 4
ENDMDL
MODEL 8
REMARK VINA RESULT:     -10.5      4.228      9.279
REMARK  Name = 6918151
REMARK  4 active torsions:
REMARK  status: ('A' for Active; 'I' for Inactive)
REMARK    1  A    between atoms: C_2  and  C_11
REMARK    2  A    between atoms: C_7  and  C_18
REMARK    3  A    between atoms: C_11  and  C_12
REMARK    4  A    between atoms: C_18  and  C_23
REMARK                            x       y       z     vdW  Elec       q    Type
REMARK                         _______ _______ _______ _____ _____    ______ ____
ROOT
ATOM      1  O   UNL     1      35.416 -23.117 -16.386  0.00  0.00    -0.479 OA
ATOM      2  C   UNL     1      34.456 -24.034 -15.840  0.00  0.00    +0.171 C 
ATOM      3  C   UNL     1      33.063 -23.409 -15.779  0.00  0.00    +0.049 C 
ATOM      4  C   UNL     1      32.597 -23.092 -17.195  0.00  0.00    +0.033 C 
ATOM      5  C   UNL     1      33.693 -22.424 -17.972  0.00  0.00    +0.012 C 
ATOM      6  C   UNL     1      35.024 -22.483 -17.538  0.00  0.00    +0.134 C 
ATOM      7  C   UNL     1      34.405 -21.126 -19.896  0.00  0.00    -0.021 C 
ATOM      8  C   UNL     1      33.394 -21.752 -19.165  0.00  0.00    -0.006 C 
ATOM      9  C   UNL     1      36.032 -21.846 -18.264  0.00  0.00    +0.036 C 
ATOM     10  C   UNL     1      35.723 -21.170 -19.444  0.00  0.00    -0.001 C 
ENDROOT
BRANCH   2  11
ATOM     11  C   UNL     1      34.939 -24.416 -14.446  0.00  0.00    +0.070 C 
BRANCH  11  12
ATOM     12  C   UNL     1      36.273 -25.111 -14.490  0.00  0.00    -0.019 C 
ATOM     13  C   UNL     1      36.326 -26.473 -14.759  0.00  0.00    -0.004 C 
ATOM     14  C   UNL     1      37.433 -24.383 -14.262  0.00  0.00    -0.004 C 
ATOM     15  C   UNL     1      37.562 -27.118 -14.799  0.00  0.00    -0.000 C 
ATOM     16  C   UNL     1      38.669 -25.028 -14.304  0.00  0.00    -0.000 C 
ATOM     17  C   UNL     1      38.733 -26.395 -14.572  0.00  0.00    -0.000 C 
ENDBRANCH  11  12
ENDBRANCH   2  11
BRANCH   7  18
ATOM     18  C   UNL     1      34.075 -20.408 -21.161  0.00  0.00    +0.047 C 
BRANCH  18  23
ATOM     19  S   UNL     1      35.325 -17.958 -20.927  0.00  0.00    -0.048 S 
ATOM     20  O   UNL     1      35.015 -20.256 -24.013  0.00  0.00    -0.274 OA
ATOM     21  O   UNL     1      35.307 -15.887 -22.545  0.00  0.00    -0.263 OA
ATOM     22  N   UNL     1      35.165 -18.011 -23.476  0.00  0.00    -0.246 N 
ATOM     23  C   UNL     1      35.257 -19.604 -21.697  0.00  0.00    +0.137 C 
ATOM     24  C   UNL     1      35.130 -19.359 -23.184  0.00  0.00    +0.239 C 
ATOM     25  C   UNL     1      35.267 -17.104 -22.453  0.00  0.00    +0.279 C 
ATOM     26  H   UNL     1      35.116 -17.704 -24.410  0.00  0.00    +0.158 HD
ENDBRANCH  18  23
ENDBRANCH   7  18
TORSDOF 4
ENDMDL
MODEL 9
REMARK VINA RESULT:     -10.5      7.078     11.280
REMARK  Name = 6918151
REMARK  4 active torsions:
REMARK  status: ('A' for Active; 'I' for Inactive)
REMARK    1  A    between atoms: C_2  and  C_11
REMARK    2  A    between atoms: C_7  and  C_18
REMARK    3  A    between atoms: C_11  and  C_12
REMARK    4  A    between atoms: C_18  and  C_23
REMARK                            x       y       z     vdW  Elec       q    Type
REMARK                         _______ _______ _______ _____ _____    ______ ____
ROOT
ATOM      1  O   UNL     1      34.804 -15.374 -22.962  0.00  0.00    -0.479 OA
ATOM      2  C   UNL     1      34.709 -16.462 -22.031  0.00  0.00    +0.171 C 
ATOM      3  C   UNL     1      34.796 -15.967 -20.588  0.00  0.00    +0.049 C 
ATOM      4  C   UNL     1      33.611 -15.053 -20.302  0.00  0.00    +0.033 C 
ATOM      5  C   UNL     1      33.415 -14.078 -21.426  0.00  0.00    +0.012 C 
ATOM      6  C   UNL     1      34.004 -14.296 -22.679  0.00  0.00    +0.134 C 
ATOM      7  C   UNL     1      32.425 -12.031 -22.275  0.00  0.00    -0.021 C 
ATOM      8  C   UNL     1      32.613 -12.945 -21.237  0.00  0.00    -0.006 C 
ATOM      9  C   UNL     1      33.825 -13.374 -23.713  0.00  0.00    +0.036 C 
ATOM     10  C   UNL     1      33.033 -12.244 -23.511  0.00  0.00    -0.001 C 
ENDROOT
BRANCH   2  11
ATOM     11  C   UNL     1      35.849 -17.424 -22.342  0.00  0.00    +0.070 C 
BRANCH  11  12
ATOM     12  C   UNL     1      35.790 -18.656 -21.480  0.00  0.00    -0.019 C 
ATOM     13  C   UNL     1      34.590 -19.345 -21.354  0.00  0.00    -0.004 C 
ATOM     14  C   UNL     1      36.934 -19.088 -20.824  0.00  0.00    -0.004 C 
ATOM     15  C   UNL     1      34.535 -20.487 -20.555  0.00  0.00    -0.000 C 
ATOM     16  C   UNL     1      36.878 -20.230 -20.026  0.00  0.00    -0.000 C 
ATOM     17  C   UNL     1      35.679 -20.929 -19.891  0.00  0.00    -0.000 C 
ENDBRANCH  11  12
ENDBRANCH   2  11
BRANCH   7  18
ATOM     18  C   UNL     1      31.574 -10.826 -22.061  0.00  0.00    +0.047 C 
BRANCH  18  23
ATOM     19  S   UNL     1      32.096  -8.555 -20.581  0.00  0.00    -0.048 S 
ATOM     20  O   UNL     1      31.990  -9.000 -24.414  0.00  0.00    -0.274 OA
ATOM     21  O   UNL     1      31.247  -6.088 -20.907  0.00  0.00    -0.263 OA
ATOM     22  N   UNL     1      31.575  -7.398 -22.798  0.00  0.00    -0.246 N 
ATOM     23  C   UNL     1      32.383  -9.532 -22.088  0.00  0.00    +0.137 C 
ATOM     24  C   UNL     1      31.969  -8.644 -23.240  0.00  0.00    +0.239 C 
ATOM     25  C   UNL     1      31.568  -7.132 -21.453  0.00  0.00    +0.279 C 
ATOM     26  H   UNL     1      31.301  -6.706 -23.443  0.00  0.00    +0.158 HD
ENDBRANCH  18  23
ENDBRANCH   7  18
TORSDOF 4
ENDMDL
