MODEL 1
REMARK VINA RESULT:     -12.2      0.000      0.000
REMARK  Name = 25191001
REMARK  7 active torsions:
REMARK  status: ('A' for Active; 'I' for Inactive)
REMARK    1  A    between atoms: C_1  and  N_9
REMARK    2  A    between atoms: C_2  and  O_24
REMARK    3  A    between atoms: N_8  and  C_14
REMARK    4  A    between atoms: C_15  and  C_23
REMARK    5  A    between atoms: O_24  and  C_26
REMARK    6  A    between atoms: C_28  and  C_33
REMARK    7  A    between atoms: N_32  and  C_35
REMARK                            x       y       z     vdW  Elec       q    Type
REMARK                         _______ _______ _______ _____ _____    ______ ____
ROOT
ATOM      1  C   UNL     1      33.437 -14.361 -23.047  0.00  0.00    +0.052 C 
ATOM      2  C   UNL     1      34.841 -16.759 -23.294  0.00  0.00    +0.145 C 
ATOM      3  C   UNL     1      34.158 -14.863 -21.963  0.00  0.00    +0.018 C 
ATOM      4  C   UNL     1      33.418 -15.059 -24.254  0.00  0.00    +0.018 C 
ATOM      5  C   UNL     1      34.860 -16.061 -22.086  0.00  0.00    +0.039 C 
ATOM      6  C   UNL     1      34.120 -16.259 -24.379  0.00  0.00    +0.039 C 
ENDROOT
BRANCH   1   9
ATOM      7  O   UNL     1      34.276 -11.562 -23.666  0.00  0.00    -0.252 OA
ATOM      8  N   UNL     1      32.140 -10.911 -22.955  0.00  0.00    -0.268 N 
ATOM      9  N   UNL     1      32.724 -13.146 -22.921  0.00  0.00    -0.268 N 
ATOM     10  C   UNL     1      33.166 -11.849 -23.227  0.00  0.00    +0.308 C 
ATOM     11  H   UNL     1      31.300 -11.287 -22.605  0.00  0.00    +0.156 HD
ATOM     12  H   UNL     1      31.805 -13.219 -22.576  0.00  0.00    +0.156 HD
BRANCH   8  14
ATOM     13 CL   UNL     1      32.237  -5.047 -23.681  0.00  0.00    -0.082 Cl
ATOM     14  C   UNL     1      32.161  -9.526 -23.117  0.00  0.00    +0.052 C 
ATOM     15  C   UNL     1      31.974  -7.307 -22.181  0.00  0.00    +0.083 C 
ATOM     16  C   UNL     1      31.952  -8.692 -22.018  0.00  0.00    +0.019 C 
ATOM     17  C   UNL     1      32.391  -8.975 -24.378  0.00  0.00    +0.016 C 
ATOM     18  C   UNL     1      32.204  -6.755 -23.442  0.00  0.00    +0.062 C 
ATOM     19  C   UNL     1      32.412  -7.590 -24.541  0.00  0.00    +0.013 C 
BRANCH  15  23
ATOM     20  F   UNL     1      32.736  -5.532 -20.769  0.00  0.00    -0.166 F 
ATOM     21  F   UNL     1      30.593  -5.720 -21.042  0.00  0.00    -0.166 F 
ATOM     22  F   UNL     1      31.663  -7.172 -19.828  0.00  0.00    -0.166 F 
ATOM     23  C   UNL     1      31.746  -6.447 -20.979  0.00  0.00    +0.419 C 
ENDBRANCH  15  23
ENDBRANCH   8  14
ENDBRANCH   1   9
BRANCH   2  24
ATOM     24  O   UNL     1      35.524 -17.931 -23.414  0.00  0.00    -0.453 OA
BRANCH  24  26
ATOM     25  N   UNL     1      36.114 -20.205 -19.957  0.00  0.00    -0.239 NA
ATOM     26  C   UNL     1      35.718 -18.683 -22.269  0.00  0.00    +0.149 C 
ATOM     27  C   UNL     1      34.666 -19.408 -21.722  0.00  0.00    +0.061 C 
ATOM     28  C   UNL     1      34.912 -20.147 -20.575  0.00  0.00    +0.137 C 
ATOM     29  C   UNL     1      36.969 -18.718 -21.662  0.00  0.00    +0.058 C 
ATOM     30  C   UNL     1      37.113 -19.487 -20.517  0.00  0.00    +0.102 C 
BRANCH  28  33
ATOM     31  O   UNL     1      32.663 -20.741 -20.289  0.00  0.00    -0.269 OA
ATOM     32  N   UNL     1      34.228 -21.884 -19.015  0.00  0.00    -0.313 N 
ATOM     33  C   UNL     1      33.850 -20.923 -19.960  0.00  0.00    +0.263 C 
ATOM     34  H   UNL     1      35.184 -21.975 -18.802  0.00  0.00    +0.149 HD
ATOM     35  C   UNL     1      33.291 -22.749 -18.335  0.00  0.00    +0.128 C 
ENDBRANCH  28  33
ENDBRANCH  24  26
ENDBRANCH   2  24
TORSDOF 6
ENDMDL
MODEL 2
REMARK VINA RESULT:     -11.9      5.164      8.418
REMARK  Name = 25191001
REMARK  7 active torsions:
REMARK  status: ('A' for Active; 'I' for Inactive)
REMARK    1  A    between atoms: C_1  and  N_9
REMARK    2  A    between atoms: C_2  and  O_24
REMARK    3  A    between atoms: N_8  and  C_14
REMARK    4  A    between atoms: C_15  and  C_23
REMARK    5  A    between atoms: O_24  and  C_26
REMARK    6  A    between atoms: C_28  and  C_33
REMARK    7  A    between atoms: N_32  and  C_35
REMARK                            x       y       z     vdW  Elec       q    Type
REMARK                         _______ _______ _______ _____ _____    ______ ____
ROOT
ATOM      1  C   UNL     1      35.640 -21.303 -19.117  0.00  0.00    +0.052 C 
ATOM      2  C   UNL     1      35.110 -23.171 -17.113  0.00  0.00    +0.145 C 
ATOM      3  C   UNL     1      36.543 -21.475 -18.067  0.00  0.00    +0.018 C 
ATOM      4  C   UNL     1      34.472 -22.064 -19.164  0.00  0.00    +0.018 C 
ATOM      5  C   UNL     1      36.278 -22.409 -17.066  0.00  0.00    +0.039 C 
ATOM      6  C   UNL     1      34.207 -22.999 -18.163  0.00  0.00    +0.039 C 
ENDROOT
BRANCH   1   9
ATOM      7  O   UNL     1      33.780 -19.520 -20.628  0.00  0.00    -0.252 OA
ATOM      8  N   UNL     1      35.675 -18.728 -21.756  0.00  0.00    -0.268 N 
ATOM      9  N   UNL     1      35.908 -20.354 -20.132  0.00  0.00    -0.268 N 
ATOM     10  C   UNL     1      34.993 -19.537 -20.814  0.00  0.00    +0.308 C 
ATOM     11  H   UNL     1      36.651 -18.850 -21.795  0.00  0.00    +0.156 HD
ATOM     12  H   UNL     1      36.852 -20.255 -20.391  0.00  0.00    +0.156 HD
BRANCH   8  14
ATOM     13 CL   UNL     1      33.440 -14.745 -25.507  0.00  0.00    -0.082 Cl
ATOM     14  C   UNL     1      35.147 -17.782 -22.634  0.00  0.00    +0.052 C 
ATOM     15  C   UNL     1      34.395 -15.529 -23.078  0.00  0.00    +0.083 C 
ATOM     16  C   UNL     1      34.922 -16.475 -22.199  0.00  0.00    +0.019 C 
ATOM     17  C   UNL     1      34.845 -18.142 -23.947  0.00  0.00    +0.016 C 
ATOM     18  C   UNL     1      34.093 -15.888 -24.392  0.00  0.00    +0.062 C 
ATOM     19  C   UNL     1      34.318 -17.196 -24.826  0.00  0.00    +0.013 C 
BRANCH  15  23
ATOM     20  F   UNL     1      34.660 -13.173 -23.401  0.00  0.00    -0.166 F 
ATOM     21  F   UNL     1      32.850 -13.831 -22.405  0.00  0.00    -0.166 F 
ATOM     22  F   UNL     1      34.756 -13.923 -21.363  0.00  0.00    -0.166 F 
ATOM     23  C   UNL     1      34.169 -14.140 -22.573  0.00  0.00    +0.419 C 
ENDBRANCH  15  23
ENDBRANCH   8  14
ENDBRANCH   1   9
BRANCH   2  24
ATOM     24  O   UNL     1      34.850 -24.081 -16.135  0.00  0.00    -0.453 OA
BRANCH  24  26
ATOM     25  N   UNL     1      31.390 -23.549 -13.852  0.00  0.00    -0.239 NA
ATOM     26  C   UNL     1      33.704 -23.903 -15.379  0.00  0.00    +0.149 C 
ATOM     27  C   UNL     1      32.508 -23.552 -15.995  0.00  0.00    +0.061 C 
ATOM     28  C   UNL     1      31.389 -23.389 -15.195  0.00  0.00    +0.137 C 
ATOM     29  C   UNL     1      33.744 -24.078 -14.001  0.00  0.00    +0.058 C 
ATOM     30  C   UNL     1      32.570 -23.890 -13.288  0.00  0.00    +0.102 C 
BRANCH  28  33
ATOM     31  O   UNL     1      30.060 -22.557 -16.938  0.00  0.00    -0.269 OA
ATOM     32  N   UNL     1      28.967 -23.239 -15.009  0.00  0.00    -0.313 N 
ATOM     33  C   UNL     1      30.113 -23.022 -15.784  0.00  0.00    +0.263 C 
ATOM     34  H   UNL     1      29.081 -23.610 -14.105  0.00  0.00    +0.149 HD
ATOM     35  C   UNL     1      27.627 -22.949 -15.464  0.00  0.00    +0.128 C 
ENDBRANCH  28  33
ENDBRANCH  24  26
ENDBRANCH   2  24
TORSDOF 6
ENDMDL
MODEL 3
REMARK VINA RESULT:     -11.8      1.673      2.133
REMARK  Name = 25191001
REMARK  7 active torsions:
REMARK  status: ('A' for Active; 'I' for Inactive)
REMARK    1  A    between atoms: C_1  and  N_9
REMARK    2  A    between atoms: C_2  and  O_24
REMARK    3  A    between atoms: N_8  and  C_14
REMARK    4  A    between atoms: C_15  and  C_23
REMARK    5  A    between atoms: O_24  and  C_26
REMARK    6  A    between atoms: C_28  and  C_33
REMARK    7  A    between atoms: N_32  and  C_35
REMARK                            x       y       z     vdW  Elec       q    Type
REMARK                         _______ _______ _______ _____ _____    ______ ____
ROOT
ATOM      1  C   UNL     1      33.457 -14.291 -23.027  0.00  0.00    +0.052 C 
ATOM      2  C   UNL     1      34.770 -16.735 -23.321  0.00  0.00    +0.145 C 
ATOM      3  C   UNL     1      34.173 -14.831 -21.959  0.00  0.00    +0.018 C 
ATOM      4  C   UNL     1      33.396 -14.974 -24.242  0.00  0.00    +0.018 C 
ATOM      5  C   UNL     1      34.831 -16.052 -22.106  0.00  0.00    +0.039 C 
ATOM      6  C   UNL     1      34.053 -16.196 -24.390  0.00  0.00    +0.039 C 
ENDROOT
BRANCH   1   9
ATOM      7  O   UNL     1      34.377 -11.518 -23.650  0.00  0.00    -0.252 OA
ATOM      8  N   UNL     1      32.282 -10.800 -22.885  0.00  0.00    -0.268 N 
ATOM      9  N   UNL     1      32.789 -13.053 -22.877  0.00  0.00    -0.268 N 
ATOM     10  C   UNL     1      33.268 -11.770 -23.187  0.00  0.00    +0.308 C 
ATOM     11  H   UNL     1      31.438 -11.149 -22.517  0.00  0.00    +0.156 HD
ATOM     12  H   UNL     1      31.877 -13.096 -22.511  0.00  0.00    +0.156 HD
BRANCH   8  14
ATOM     13 CL   UNL     1      32.524  -4.929 -23.522  0.00  0.00    -0.082 Cl
ATOM     14  C   UNL     1      32.347  -9.414 -23.040  0.00  0.00    +0.052 C 
ATOM     15  C   UNL     1      33.456  -7.458 -23.923  0.00  0.00    +0.083 C 
ATOM     16  C   UNL     1      33.391  -8.843 -23.768  0.00  0.00    +0.019 C 
ATOM     17  C   UNL     1      31.369  -8.602 -22.468  0.00  0.00    +0.016 C 
ATOM     18  C   UNL     1      32.477  -6.645 -23.351  0.00  0.00    +0.062 C 
ATOM     19  C   UNL     1      31.433  -7.218 -22.623  0.00  0.00    +0.013 C 
BRANCH  15  23
ATOM     20  F   UNL     1      34.188  -6.144 -25.784  0.00  0.00    -0.166 F 
ATOM     21  F   UNL     1      35.391  -6.053 -23.982  0.00  0.00    -0.166 F 
ATOM     22  F   UNL     1      35.415  -7.846 -25.212  0.00  0.00    -0.166 F 
ATOM     23  C   UNL     1      34.590  -6.884 -24.710  0.00  0.00    +0.419 C 
ENDBRANCH  15  23
ENDBRANCH   8  14
ENDBRANCH   1   9
BRANCH   2  24
ATOM     24  O   UNL     1      35.410 -17.928 -23.464  0.00  0.00    -0.453 OA
BRANCH  24  26
ATOM     25  N   UNL     1      36.106 -20.189 -20.018  0.00  0.00    -0.239 NA
ATOM     26  C   UNL     1      35.639 -18.677 -22.322  0.00  0.00    +0.149 C 
ATOM     27  C   UNL     1      34.609 -19.416 -21.752  0.00  0.00    +0.061 C 
ATOM     28  C   UNL     1      34.891 -20.149 -20.611  0.00  0.00    +0.137 C 
ATOM     29  C   UNL     1      36.903 -18.693 -21.742  0.00  0.00    +0.058 C 
ATOM     30  C   UNL     1      37.083 -19.458 -20.601  0.00  0.00    +0.102 C 
BRANCH  28  33
ATOM     31  O   UNL     1      32.656 -20.771 -20.270  0.00  0.00    -0.269 OA
ATOM     32  N   UNL     1      34.266 -21.900 -19.041  0.00  0.00    -0.313 N 
ATOM     33  C   UNL     1      33.853 -20.940 -19.972  0.00  0.00    +0.263 C 
ATOM     34  H   UNL     1      35.229 -21.981 -18.852  0.00  0.00    +0.149 HD
ATOM     35  C   UNL     1      33.357 -22.779 -18.341  0.00  0.00    +0.128 C 
ENDBRANCH  28  33
ENDBRANCH  24  26
ENDBRANCH   2  24
TORSDOF 6
ENDMDL
MODEL 4
REMARK VINA RESULT:     -11.8      5.912      9.824
REMARK  Name = 25191001
REMARK  7 active torsions:
REMARK  status: ('A' for Active; 'I' for Inactive)
REMARK    1  A    between atoms: C_1  and  N_9
REMARK    2  A    between atoms: C_2  and  O_24
REMARK    3  A    between atoms: N_8  and  C_14
REMARK    4  A    between atoms: C_15  and  C_23
REMARK    5  A    between atoms: O_24  and  C_26
REMARK    6  A    between atoms: C_28  and  C_33
REMARK    7  A    between atoms: N_32  and  C_35
REMARK                            x       y       z     vdW  Elec       q    Type
REMARK                         _______ _______ _______ _____ _____    ______ ____
ROOT
ATOM      1  C   UNL     1      34.946 -22.223 -18.348  0.00  0.00    +0.052 C 
ATOM      2  C   UNL     1      34.150 -23.748 -16.151  0.00  0.00    +0.145 C 
ATOM      3  C   UNL     1      33.718 -22.885 -18.365  0.00  0.00    +0.018 C 
ATOM      4  C   UNL     1      35.776 -22.324 -17.232  0.00  0.00    +0.018 C 
ATOM      5  C   UNL     1      33.320 -23.647 -17.267  0.00  0.00    +0.039 C 
ATOM      6  C   UNL     1      35.378 -23.087 -16.132  0.00  0.00    +0.039 C 
ENDROOT
BRANCH   1   9
ATOM      7  O   UNL     1      33.421 -20.226 -19.963  0.00  0.00    -0.252 OA
ATOM      8  N   UNL     1      35.373 -19.970 -21.234  0.00  0.00    -0.268 N 
ATOM      9  N   UNL     1      35.350 -21.452 -19.463  0.00  0.00    -0.268 N 
ATOM     10  C   UNL     1      34.590 -20.522 -20.190  0.00  0.00    +0.308 C 
ATOM     11  H   UNL     1      36.297 -20.303 -21.296  0.00  0.00    +0.156 HD
ATOM     12  H   UNL     1      36.277 -21.584 -19.765  0.00  0.00    +0.156 HD
BRANCH   8  14
ATOM     13 CL   UNL     1      33.825 -15.956 -25.287  0.00  0.00    -0.082 Cl
ATOM     14  C   UNL     1      35.008 -19.015 -22.184  0.00  0.00    +0.052 C 
ATOM     15  C   UNL     1      34.580 -16.714 -22.781  0.00  0.00    +0.083 C 
ATOM     16  C   UNL     1      34.944 -17.667 -21.830  0.00  0.00    +0.019 C 
ATOM     17  C   UNL     1      34.707 -19.410 -23.488  0.00  0.00    +0.016 C 
ATOM     18  C   UNL     1      34.279 -17.107 -24.085  0.00  0.00    +0.062 C 
ATOM     19  C   UNL     1      34.343 -18.456 -24.438  0.00  0.00    +0.013 C 
BRANCH  15  23
ATOM     20  F   UNL     1      35.287 -14.456 -23.136  0.00  0.00    -0.166 F 
ATOM     21  F   UNL     1      33.266 -14.750 -22.406  0.00  0.00    -0.166 F 
ATOM     22  F   UNL     1      34.958 -15.093 -21.084  0.00  0.00    -0.166 F 
ATOM     23  C   UNL     1      34.523 -15.280 -22.362  0.00  0.00    +0.419 C 
ENDBRANCH  15  23
ENDBRANCH   8  14
ENDBRANCH   1   9
BRANCH   2  24
ATOM     24  O   UNL     1      33.763 -24.493 -15.079  0.00  0.00    -0.453 OA
BRANCH  24  26
ATOM     25  N   UNL     1      36.667 -25.446 -12.227  0.00  0.00    -0.239 NA
ATOM     26  C   UNL     1      34.725 -24.810 -14.135  0.00  0.00    +0.149 C 
ATOM     27  C   UNL     1      35.889 -25.468 -14.516  0.00  0.00    +0.061 C 
ATOM     28  C   UNL     1      36.820 -25.761 -13.533  0.00  0.00    +0.137 C 
ATOM     29  C   UNL     1      34.531 -24.469 -12.801  0.00  0.00    +0.058 C 
ATOM     30  C   UNL     1      35.523 -24.806 -11.894  0.00  0.00    +0.102 C 
BRANCH  28  33
ATOM     31  O   UNL     1      38.025 -27.572 -14.409  0.00  0.00    -0.269 OA
ATOM     32  N   UNL     1      39.253 -25.779 -13.597  0.00  0.00    -0.313 N 
ATOM     33  C   UNL     1      38.054 -26.447 -13.874  0.00  0.00    +0.263 C 
ATOM     34  H   UNL     1      39.204 -24.893 -13.173  0.00  0.00    +0.149 HD
ATOM     35  C   UNL     1      40.558 -26.320 -13.898  0.00  0.00    +0.128 C 
ENDBRANCH  28  33
ENDBRANCH  24  26
ENDBRANCH   2  24
TORSDOF 6
ENDMDL
MODEL 5
REMARK VINA RESULT:     -11.7      8.486     13.776
REMARK  Name = 25191001
REMARK  7 active torsions:
REMARK  status: ('A' for Active; 'I' for Inactive)
REMARK    1  A    between atoms: C_1  and  N_9
REMARK    2  A    between atoms: C_2  and  O_24
REMARK    3  A    between atoms: N_8  and  C_14
REMARK    4  A    between atoms: C_15  and  C_23
REMARK    5  A    between atoms: O_24  and  C_26
REMARK    6  A    between atoms: C_28  and  C_33
REMARK    7  A    between atoms: N_32  and  C_35
REMARK                            x       y       z     vdW  Elec       q    Type
REMARK                         _______ _______ _______ _____ _____    ______ ____
ROOT
ATOM      1  C   UNL     1      35.317 -21.437 -19.163  0.00  0.00    +0.052 C 
ATOM      2  C   UNL     1      35.939 -19.541 -21.114  0.00  0.00    +0.145 C 
ATOM      3  C   UNL     1      36.646 -21.077 -19.388  0.00  0.00    +0.018 C 
ATOM      4  C   UNL     1      34.299 -20.848 -19.914  0.00  0.00    +0.018 C 
ATOM      5  C   UNL     1      36.957 -20.130 -20.363  0.00  0.00    +0.039 C 
ATOM      6  C   UNL     1      34.610 -19.900 -20.890  0.00  0.00    +0.039 C 
ENDROOT
BRANCH   1   9
ATOM      7  O   UNL     1      36.243 -21.667 -16.333  0.00  0.00    -0.252 OA
ATOM      8  N   UNL     1      34.907 -23.587 -16.197  0.00  0.00    -0.268 N 
ATOM      9  N   UNL     1      35.002 -22.399 -18.175  0.00  0.00    -0.268 N 
ATOM     10  C   UNL     1      35.467 -22.463 -16.852  0.00  0.00    +0.308 C 
ATOM     11  H   UNL     1      34.298 -24.138 -16.740  0.00  0.00    +0.156 HD
ATOM     12  H   UNL     1      34.380 -23.111 -18.450  0.00  0.00    +0.156 HD
BRANCH   8  14
ATOM     13 CL   UNL     1      35.700 -25.398 -10.627  0.00  0.00    -0.082 Cl
ATOM     14  C   UNL     1      35.103 -24.016 -14.884  0.00  0.00    +0.052 C 
ATOM     15  C   UNL     1      36.574 -24.812 -13.141  0.00  0.00    +0.083 C 
ATOM     16  C   UNL     1      36.379 -24.383 -14.453  0.00  0.00    +0.019 C 
ATOM     17  C   UNL     1      34.024 -24.077 -14.002  0.00  0.00    +0.016 C 
ATOM     18  C   UNL     1      35.496 -24.873 -12.258  0.00  0.00    +0.062 C 
ATOM     19  C   UNL     1      34.220 -24.506 -12.689  0.00  0.00    +0.013 C 
BRANCH  15  23
ATOM     20  F   UNL     1      38.455 -24.417 -11.716  0.00  0.00    -0.166 F 
ATOM     21  F   UNL     1      38.045 -26.477 -12.255  0.00  0.00    -0.166 F 
ATOM     22  F   UNL     1      38.856 -25.109 -13.737  0.00  0.00    -0.166 F 
ATOM     23  C   UNL     1      37.955 -25.197 -12.718  0.00  0.00    +0.419 C 
ENDBRANCH  15  23
ENDBRANCH   8  14
ENDBRANCH   1   9
BRANCH   2  24
ATOM     24  O   UNL     1      36.242 -18.618 -22.067  0.00  0.00    -0.453 OA
BRANCH  24  26
ATOM     25  N   UNL     1      33.353 -17.809 -24.977  0.00  0.00    -0.239 NA
ATOM     26  C   UNL     1      35.285 -18.349 -23.030  0.00  0.00    +0.149 C 
ATOM     27  C   UNL     1      35.029 -17.038 -23.415  0.00  0.00    +0.061 C 
ATOM     28  C   UNL     1      34.062 -16.822 -24.384  0.00  0.00    +0.137 C 
ATOM     29  C   UNL     1      34.576 -19.391 -23.618  0.00  0.00    +0.058 C 
ATOM     30  C   UNL     1      33.628 -19.071 -24.578  0.00  0.00    +0.102 C 
BRANCH  28  33
ATOM     31  O   UNL     1      33.468 -15.246 -26.014  0.00  0.00    -0.269 OA
ATOM     32  N   UNL     1      33.770 -14.466 -23.851  0.00  0.00    -0.313 N 
ATOM     33  C   UNL     1      33.753 -15.473 -24.824  0.00  0.00    +0.263 C 
ATOM     34  H   UNL     1      34.004 -14.714 -22.929  0.00  0.00    +0.149 HD
ATOM     35  C   UNL     1      33.462 -13.082 -24.128  0.00  0.00    +0.128 C 
ENDBRANCH  28  33
ENDBRANCH  24  26
ENDBRANCH   2  24
TORSDOF 6
ENDMDL
MODEL 6
REMARK VINA RESULT:     -11.6      1.507      2.160
REMARK  Name = 25191001
REMARK  7 active torsions:
REMARK  status: ('A' for Active; 'I' for Inactive)
REMARK    1  A    between atoms: C_1  and  N_9
REMARK    2  A    between atoms: C_2  and  O_24
REMARK    3  A    between atoms: N_8  and  C_14
REMARK    4  A    between atoms: C_15  and  C_23
REMARK    5  A    between atoms: O_24  and  C_26
REMARK    6  A    between atoms: C_28  and  C_33
REMARK    7  A    between atoms: N_32  and  C_35
REMARK                            x       y       z     vdW  Elec       q    Type
REMARK                         _______ _______ _______ _____ _____    ______ ____
ROOT
ATOM      1  C   UNL     1      34.267 -14.186 -23.705  0.00  0.00    +0.052 C 
ATOM      2  C   UNL     1      34.450 -16.971 -23.672  0.00  0.00    +0.145 C 
ATOM      3  C   UNL     1      33.813 -14.929 -24.795  0.00  0.00    +0.018 C 
ATOM      4  C   UNL     1      34.812 -14.837 -22.598  0.00  0.00    +0.018 C 
ATOM      5  C   UNL     1      33.904 -16.320 -24.779  0.00  0.00    +0.039 C 
ATOM      6  C   UNL     1      34.904 -16.229 -22.581  0.00  0.00    +0.039 C 
ENDROOT
BRANCH   1   9
ATOM      7  O   UNL     1      32.352 -12.362 -22.317  0.00  0.00    -0.252 OA
ATOM      8  N   UNL     1      33.508 -10.598 -23.337  0.00  0.00    -0.268 N 
ATOM      9  N   UNL     1      34.176 -12.775 -23.722  0.00  0.00    -0.268 N 
ATOM     10  C   UNL     1      33.252 -11.960 -23.049  0.00  0.00    +0.308 C 
ATOM     11  H   UNL     1      34.265 -10.425 -23.942  0.00  0.00    +0.156 HD
ATOM     12  H   UNL     1      34.842 -12.307 -24.275  0.00  0.00    +0.156 HD
BRANCH   8  14
ATOM     13 CL   UNL     1      30.632  -5.831 -21.353  0.00  0.00    -0.082 Cl
ATOM     14  C   UNL     1      32.831  -9.468 -22.876  0.00  0.00    +0.052 C 
ATOM     15  C   UNL     1      32.077  -7.198 -23.215  0.00  0.00    +0.083 C 
ATOM     16  C   UNL     1      32.754  -8.327 -23.676  0.00  0.00    +0.019 C 
ATOM     17  C   UNL     1      32.232  -9.480 -21.617  0.00  0.00    +0.016 C 
ATOM     18  C   UNL     1      31.477  -7.209 -21.956  0.00  0.00    +0.062 C 
ATOM     19  C   UNL     1      31.555  -8.351 -21.156  0.00  0.00    +0.013 C 
BRANCH  15  23
ATOM     20  F   UNL     1      30.746  -5.570 -24.356  0.00  0.00    -0.166 F 
ATOM     21  F   UNL     1      32.663  -4.909 -23.588  0.00  0.00    -0.166 F 
ATOM     22  F   UNL     1      32.582  -6.219 -25.322  0.00  0.00    -0.166 F 
ATOM     23  C   UNL     1      32.017  -5.996 -24.102  0.00  0.00    +0.419 C 
ENDBRANCH  15  23
ENDBRANCH   8  14
ENDBRANCH   1   9
BRANCH   2  24
ATOM     24  O   UNL     1      34.541 -18.329 -23.656  0.00  0.00    -0.453 OA
BRANCH  24  26
ATOM     25  N   UNL     1      35.882 -20.147 -20.139  0.00  0.00    -0.239 NA
ATOM     26  C   UNL     1      34.984 -18.930 -22.490  0.00  0.00    +0.149 C 
ATOM     27  C   UNL     1      34.114 -19.699 -21.726  0.00  0.00    +0.061 C 
ATOM     28  C   UNL     1      34.607 -20.281 -20.569  0.00  0.00    +0.137 C 
ATOM     29  C   UNL     1      36.303 -18.769 -22.081  0.00  0.00    +0.058 C 
ATOM     30  C   UNL     1      36.699 -19.391 -20.908  0.00  0.00    +0.102 C 
BRANCH  28  33
ATOM     31  O   UNL     1      32.513 -20.901 -19.716  0.00  0.00    -0.269 OA
ATOM     32  N   UNL     1      34.353 -22.105 -18.978  0.00  0.00    -0.313 N 
ATOM     33  C   UNL     1      33.743 -21.095 -19.732  0.00  0.00    +0.263 C 
ATOM     34  H   UNL     1      35.330 -22.203 -19.037  0.00  0.00    +0.149 HD
ATOM     35  C   UNL     1      33.627 -23.010 -18.118  0.00  0.00    +0.128 C 
ENDBRANCH  28  33
ENDBRANCH  24  26
ENDBRANCH   2  24
TORSDOF 6
ENDMDL
MODEL 7
REMARK VINA RESULT:     -11.5      2.095      3.035
REMARK  Name = 25191001
REMARK  7 active torsions:
REMARK  status: ('A' for Active; 'I' for Inactive)
REMARK    1  A    between atoms: C_1  and  N_9
REMARK    2  A    between atoms: C_2  and  O_24
REMARK    3  A    between atoms: N_8  and  C_14
REMARK    4  A    between atoms: C_15  and  C_23
REMARK    5  A    between atoms: O_24  and  C_26
REMARK    6  A    between atoms: C_28  and  C_33
REMARK    7  A    between atoms: N_32  and  C_35
REMARK                            x       y       z     vdW  Elec       q    Type
REMARK                         _______ _______ _______ _____ _____    ______ ____
ROOT
ATOM      1  C   UNL     1      34.576 -15.748 -23.070  0.00  0.00    +0.052 C 
ATOM      2  C   UNL     1      35.329 -18.317 -22.282  0.00  0.00    +0.145 C 
ATOM      3  C   UNL     1      34.572 -16.791 -23.996  0.00  0.00    +0.018 C 
ATOM      4  C   UNL     1      34.956 -15.990 -21.750  0.00  0.00    +0.018 C 
ATOM      5  C   UNL     1      34.948 -18.075 -23.602  0.00  0.00    +0.039 C 
ATOM      6  C   UNL     1      35.333 -17.274 -21.355  0.00  0.00    +0.039 C 
ENDROOT
BRANCH   1   9
ATOM      7  O   UNL     1      33.452 -13.492 -21.467  0.00  0.00    -0.252 OA
ATOM      8  N   UNL     1      33.423 -12.269 -23.465  0.00  0.00    -0.268 N 
ATOM      9  N   UNL     1      34.195 -14.446 -23.469  0.00  0.00    -0.268 N 
ATOM     10  C   UNL     1      33.670 -13.416 -22.673  0.00  0.00    +0.308 C 
ATOM     11  H   UNL     1      33.646 -12.354 -24.420  0.00  0.00    +0.156 HD
ATOM     12  H   UNL     1      34.314 -14.235 -24.423  0.00  0.00    +0.156 HD
BRANCH   8  14
ATOM     13 CL   UNL     1      31.203  -7.054 -21.789  0.00  0.00    -0.082 Cl
ATOM     14  C   UNL     1      32.907 -11.034 -23.072  0.00  0.00    +0.052 C 
ATOM     15  C   UNL     1      33.133  -8.636 -22.883  0.00  0.00    +0.083 C 
ATOM     16  C   UNL     1      33.650  -9.871 -23.275  0.00  0.00    +0.019 C 
ATOM     17  C   UNL     1      31.648 -10.962 -22.477  0.00  0.00    +0.016 C 
ATOM     18  C   UNL     1      31.874  -8.564 -22.287  0.00  0.00    +0.062 C 
ATOM     19  C   UNL     1      31.131  -9.728 -22.084  0.00  0.00    +0.013 C 
BRANCH  15  23
ATOM     20  F   UNL     1      34.185  -6.682 -21.988  0.00  0.00    -0.166 F 
ATOM     21  F   UNL     1      35.200  -7.684 -23.621  0.00  0.00    -0.166 F 
ATOM     22  F   UNL     1      33.382  -6.555 -24.005  0.00  0.00    -0.166 F 
ATOM     23  C   UNL     1      33.961  -7.413 -23.118  0.00  0.00    +0.419 C 
ENDBRANCH  15  23
ENDBRANCH   8  14
ENDBRANCH   1   9
BRANCH   2  24
ATOM     24  O   UNL     1      35.699 -19.569 -21.898  0.00  0.00    -0.453 OA
BRANCH  24  26
ATOM     25  N   UNL     1      33.282 -21.535 -19.111  0.00  0.00    -0.239 NA
ATOM     26  C   UNL     1      34.899 -20.222 -20.975  0.00  0.00    +0.149 C 
ATOM     27  C   UNL     1      35.475 -20.920 -19.920  0.00  0.00    +0.061 C 
ATOM     28  C   UNL     1      34.631 -21.554 -19.023  0.00  0.00    +0.137 C 
ATOM     29  C   UNL     1      33.515 -20.178 -21.099  0.00  0.00    +0.058 C 
ATOM     30  C   UNL     1      32.757 -20.846 -20.150  0.00  0.00    +0.102 C 
BRANCH  28  33
ATOM     31  O   UNL     1      34.526 -23.220 -17.377  0.00  0.00    -0.269 OA
ATOM     32  N   UNL     1      36.463 -21.946 -17.469  0.00  0.00    -0.313 N 
ATOM     33  C   UNL     1      35.178 -22.298 -17.902  0.00  0.00    +0.263 C 
ATOM     34  H   UNL     1      36.922 -21.207 -17.929  0.00  0.00    +0.149 HD
ATOM     35  C   UNL     1      37.150 -22.607 -16.384  0.00  0.00    +0.128 C 
ENDBRANCH  28  33
ENDBRANCH  24  26
ENDBRANCH   2  24
TORSDOF 6
ENDMDL
MODEL 8
REMARK VINA RESULT:     -11.5      8.493     13.365
REMARK  Name = 25191001
REMARK  7 active torsions:
REMARK  status: ('A' for Active; 'I' for Inactive)
REMARK    1  A    between atoms: C_1  and  N_9
REMARK    2  A    between atoms: C_2  and  O_24
REMARK    3  A    between atoms: N_8  and  C_14
REMARK    4  A    between atoms: C_15  and  C_23
REMARK    5  A    between atoms: O_24  and  C_26
REMARK    6  A    between atoms: C_28  and  C_33
REMARK    7  A    between atoms: N_32  and  C_35
REMARK                            x       y       z     vdW  Elec       q    Type
REMARK                         _______ _______ _______ _____ _____    ______ ____
ROOT
ATOM      1  C   UNL     1      36.416 -20.049 -19.969  0.00  0.00    +0.052 C 
ATOM      2  C   UNL     1      35.557 -19.071 -22.437  0.00  0.00    +0.145 C 
ATOM      3  C   UNL     1      37.242 -19.205 -20.711  0.00  0.00    +0.018 C 
ATOM      4  C   UNL     1      35.160 -20.404 -20.461  0.00  0.00    +0.018 C 
ATOM      5  C   UNL     1      36.813 -18.716 -21.944  0.00  0.00    +0.039 C 
ATOM      6  C   UNL     1      34.730 -19.915 -21.696  0.00  0.00    +0.039 C 
ENDROOT
BRANCH   1   9
ATOM      7  O   UNL     1      35.508 -22.437 -18.422  0.00  0.00    -0.252 OA
ATOM      8  N   UNL     1      37.093 -21.824 -16.810  0.00  0.00    -0.268 N 
ATOM      9  N   UNL     1      36.852 -20.546 -18.718  0.00  0.00    -0.268 N 
ATOM     10  C   UNL     1      36.390 -21.679 -18.031  0.00  0.00    +0.308 C 
ATOM     11  H   UNL     1      37.775 -21.138 -16.626  0.00  0.00    +0.156 HD
ATOM     12  H   UNL     1      37.567 -20.034 -18.276  0.00  0.00    +0.156 HD
BRANCH   8  14
ATOM     13 CL   UNL     1      36.439 -25.987 -12.665  0.00  0.00    -0.082 Cl
ATOM     14  C   UNL     1      36.947 -22.809 -15.832  0.00  0.00    +0.052 C 
ATOM     15  C   UNL     1      37.891 -24.588 -14.498  0.00  0.00    +0.083 C 
ATOM     16  C   UNL     1      38.037 -23.603 -15.475  0.00  0.00    +0.019 C 
ATOM     17  C   UNL     1      35.712 -23.000 -15.213  0.00  0.00    +0.016 C 
ATOM     18  C   UNL     1      36.657 -24.779 -13.878  0.00  0.00    +0.062 C 
ATOM     19  C   UNL     1      35.566 -23.984 -14.236  0.00  0.00    +0.013 C 
BRANCH  15  23
ATOM     20  F   UNL     1      39.477 -25.277 -12.844  0.00  0.00    -0.166 F 
ATOM     21  F   UNL     1      38.884 -26.756 -14.314  0.00  0.00    -0.166 F 
ATOM     22  F   UNL     1      40.177 -25.108 -14.896  0.00  0.00    -0.166 F 
ATOM     23  C   UNL     1      39.083 -25.417 -14.143  0.00  0.00    +0.419 C 
ENDBRANCH  15  23
ENDBRANCH   8  14
ENDBRANCH   1   9
BRANCH   2  24
ATOM     24  O   UNL     1      35.139 -18.596 -23.642  0.00  0.00    -0.453 OA
BRANCH  24  26
ATOM     25  N   UNL     1      33.712 -14.670 -23.797  0.00  0.00    -0.239 NA
ATOM     26  C   UNL     1      34.665 -17.296 -23.692  0.00  0.00    +0.149 C 
ATOM     27  C   UNL     1      34.530 -16.556 -22.523  0.00  0.00    +0.061 C 
ATOM     28  C   UNL     1      34.054 -15.259 -22.628  0.00  0.00    +0.137 C 
ATOM     29  C   UNL     1      34.325 -16.725 -24.914  0.00  0.00    +0.058 C 
ATOM     30  C   UNL     1      33.857 -15.421 -24.912  0.00  0.00    +0.102 C 
BRANCH  28  33
ATOM     31  O   UNL     1      34.816 -14.339 -20.610  0.00  0.00    -0.269 OA
ATOM     32  N   UNL     1      32.676 -13.762 -21.293  0.00  0.00    -0.313 N 
ATOM     33  C   UNL     1      33.892 -14.439 -21.439  0.00  0.00    +0.263 C 
ATOM     34  H   UNL     1      31.988 -13.886 -21.986  0.00  0.00    +0.149 HD
ATOM     35  C   UNL     1      32.374 -12.892 -20.180  0.00  0.00    +0.128 C 
ENDBRANCH  28  33
ENDBRANCH  24  26
ENDBRANCH   2  24
TORSDOF 6
ENDMDL
MODEL 9
REMARK VINA RESULT:     -11.3      8.640     13.775
REMARK  Name = 25191001
REMARK  7 active torsions:
REMARK  status: ('A' for Active; 'I' for Inactive)
REMARK    1  A    between atoms: C_1  and  N_9
REMARK    2  A    between atoms: C_2  and  O_24
REMARK    3  A    between atoms: N_8  and  C_14
REMARK    4  A    between atoms: C_15  and  C_23
REMARK    5  A    between atoms: O_24  and  C_26
REMARK    6  A    between atoms: C_28  and  C_33
REMARK    7  A    between atoms: N_32  and  C_35
REMARK                            x       y       z     vdW  Elec       q    Type
REMARK                         _______ _______ _______ _____ _____    ______ ____
ROOT
ATOM      1  C   UNL     1      35.612 -21.026 -19.488  0.00  0.00    +0.052 C 
ATOM      2  C   UNL     1      35.702 -19.092 -21.497  0.00  0.00    +0.145 C 
ATOM      3  C   UNL     1      34.455 -20.701 -20.197  0.00  0.00    +0.018 C 
ATOM      4  C   UNL     1      36.814 -20.384 -19.784  0.00  0.00    +0.018 C 
ATOM      5  C   UNL     1      34.500 -19.734 -21.201  0.00  0.00    +0.039 C 
ATOM      6  C   UNL     1      36.860 -19.416 -20.789  0.00  0.00    +0.039 C 
ENDROOT
BRANCH   1   9
ATOM      7  O   UNL     1      37.086 -21.179 -16.895  0.00  0.00    -0.252 OA
ATOM      8  N   UNL     1      35.944 -23.191 -16.523  0.00  0.00    -0.268 N 
ATOM      9  N   UNL     1      35.565 -22.006 -18.468  0.00  0.00    -0.268 N 
ATOM     10  C   UNL     1      36.282 -22.031 -17.262  0.00  0.00    +0.308 C 
ATOM     11  H   UNL     1      35.282 -23.787 -16.942  0.00  0.00    +0.156 HD
ATOM     12  H   UNL     1      34.955 -22.762 -18.624  0.00  0.00    +0.156 HD
BRANCH   8  14
ATOM     13 CL   UNL     1      37.940 -24.908 -11.231  0.00  0.00    -0.082 Cl
ATOM     14  C   UNL     1      36.422 -23.600 -15.277  0.00  0.00    +0.052 C 
ATOM     15  C   UNL     1      38.105 -24.706 -13.944  0.00  0.00    +0.083 C 
ATOM     16  C   UNL     1      37.627 -24.297 -15.188  0.00  0.00    +0.019 C 
ATOM     17  C   UNL     1      35.696 -23.312 -14.123  0.00  0.00    +0.016 C 
ATOM     18  C   UNL     1      37.379 -24.418 -12.788  0.00  0.00    +0.062 C 
ATOM     19  C   UNL     1      36.173 -23.721 -12.878  0.00  0.00    +0.013 C 
BRANCH  15  23
ATOM     20  F   UNL     1      39.268 -26.747 -13.484  0.00  0.00    -0.166 F 
ATOM     21  F   UNL     1      40.040 -25.516 -15.094  0.00  0.00    -0.166 F 
ATOM     22  F   UNL     1      40.293 -24.884 -13.029  0.00  0.00    -0.166 F 
ATOM     23  C   UNL     1      39.401 -25.451 -13.890  0.00  0.00    +0.419 C 
ENDBRANCH  15  23
ENDBRANCH   8  14
ENDBRANCH   1   9
BRANCH   2  24
ATOM     24  O   UNL     1      35.747 -18.146 -22.475  0.00  0.00    -0.453 OA
BRANCH  24  26
ATOM     25  N   UNL     1      34.101 -14.399 -21.628  0.00  0.00    -0.239 NA
ATOM     26  C   UNL     1      35.202 -16.904 -22.196  0.00  0.00    +0.149 C 
ATOM     27  C   UNL     1      34.817 -16.061 -23.231  0.00  0.00    +0.061 C 
ATOM     28  C   UNL     1      34.276 -14.829 -22.898  0.00  0.00    +0.137 C 
ATOM     29  C   UNL     1      35.037 -16.498 -20.876  0.00  0.00    +0.058 C 
ATOM     30  C   UNL     1      34.487 -15.246 -20.647  0.00  0.00    +0.102 C 
BRANCH  28  33
ATOM     31  O   UNL     1      33.826 -12.681 -23.722  0.00  0.00    -0.269 OA
ATOM     32  N   UNL     1      33.516 -14.459 -25.180  0.00  0.00    -0.313 N 
ATOM     33  C   UNL     1      33.856 -13.907 -23.938  0.00  0.00    +0.263 C 
ATOM     34  H   UNL     1      33.562 -15.436 -25.282  0.00  0.00    +0.149 HD
ATOM     35  C   UNL     1      33.103 -13.672 -26.319  0.00  0.00    +0.128 C 
ENDBRANCH  28  33
ENDBRANCH  24  26
ENDBRANCH   2  24
TORSDOF 6
ENDMDL
