MODEL 1
REMARK VINA RESULT:     -12.5      0.000      0.000
REMARK  Name = 24978486
REMARK  5 active torsions:
REMARK  status: ('A' for Active; 'I' for Inactive)
REMARK    1  A    between atoms: O_1  and  C_6
REMARK    2  A    between atoms: O_1  and  C_18
REMARK    3  A    between atoms: C_18  and  C_20
REMARK    4  A    between atoms: N_19  and  C_26
REMARK    5  A    between atoms: C_26  and  C_29
REMARK                            x       y       z     vdW  Elec       q    Type
REMARK                         _______ _______ _______ _____ _____    ______ ____
ROOT
ATOM      1  O   UNL     1      35.191 -22.532 -17.854  0.00  0.00    -0.479 OA
ENDROOT
BRANCH   1   6
ATOM      2  N   UNL     1      32.482 -24.081 -14.148  0.00  0.00    -0.332 NA
ATOM      3  N   UNL     1      31.377 -23.508 -16.211  0.00  0.00    -0.317 NA
ATOM      4  N   UNL     1      32.576 -22.752 -18.063  0.00  0.00    -0.335 N 
ATOM      5  N   UNL     1      30.153 -24.267 -14.363  0.00  0.00    -0.283 N 
ATOM      6  C   UNL     1      35.027 -22.985 -16.569  0.00  0.00    +0.130 C 
ATOM      7  C   UNL     1      33.778 -23.310 -16.012  0.00  0.00    +0.177 C 
ATOM      8  C   UNL     1      36.183 -23.115 -15.806  0.00  0.00    +0.033 C 
ATOM      9  C   UNL     1      33.673 -23.767 -14.689  0.00  0.00    +0.137 C 
ATOM     10  C   UNL     1      32.585 -23.203 -16.722  0.00  0.00    +0.181 C 
ATOM     11  C   UNL     1      36.092 -23.566 -14.494  0.00  0.00    +0.005 C 
ATOM     12  C   UNL     1      34.845 -23.887 -13.948  0.00  0.00    +0.030 C 
ATOM     13  C   UNL     1      31.399 -23.934 -14.938  0.00  0.00    +0.197 C 
ATOM     14  H   UNL     1      31.726 -22.682 -18.553  0.00  0.00    +0.144 HD
ATOM     15  H   UNL     1      33.422 -22.510 -18.505  0.00  0.00    +0.144 HD
ATOM     16  H   UNL     1      30.110 -24.585 -13.432  0.00  0.00    +0.156 HD
ATOM     17  H   UNL     1      29.327 -24.181 -14.892  0.00  0.00    +0.156 HD
ENDBRANCH   1   6
BRANCH   1  18
ATOM     18  C   UNL     1      36.444 -21.958 -18.179  0.00  0.00    +0.205 C 
BRANCH  18  20
ATOM     19  N   UNL     1      35.595 -18.892 -21.101  0.00  0.00    +0.390 N 
ATOM     20  C   UNL     1      36.322 -21.258 -19.530  0.00  0.00    +0.040 C 
ATOM     21  C   UNL     1      37.201 -20.004 -19.582  0.00  0.00    -0.019 C 
ATOM     22  C   UNL     1      34.867 -20.883 -19.826  0.00  0.00    -0.019 C 
ATOM     23  C   UNL     1      37.007 -19.243 -20.895  0.00  0.00    -0.077 C 
ATOM     24  C   UNL     1      34.750 -20.094 -21.131  0.00  0.00    -0.077 C 
ATOM     25  H   UNL     1      35.296 -18.316 -20.314  0.00  0.00    -0.079 HD
BRANCH  19  26
ATOM     26  C   UNL     1      35.434 -18.122 -22.334  0.00  0.00    -0.049 C 
BRANCH  26  29
ATOM     27 CL   UNL     1      34.796 -16.357 -24.734  0.00  0.00    -0.082 Cl
ATOM     28 CL   UNL     1      33.822 -13.382 -24.011  0.00  0.00    -0.081 Cl
ATOM     29  C   UNL     1      34.973 -16.715 -22.060  0.00  0.00    -0.032 C 
ATOM     30  C   UNL     1      34.656 -15.827 -23.088  0.00  0.00    +0.062 C 
ATOM     31  C   UNL     1      34.866 -16.308 -20.730  0.00  0.00    -0.005 C 
ATOM     32  C   UNL     1      34.232 -14.533 -22.786  0.00  0.00    +0.068 C 
ATOM     33  C   UNL     1      34.442 -15.014 -20.428  0.00  0.00    +0.001 C 
ATOM     34  C   UNL     1      34.125 -14.127 -21.457  0.00  0.00    +0.012 C 
ENDBRANCH  26  29
ENDBRANCH  19  26
ENDBRANCH  18  20
ENDBRANCH   1  18
TORSDOF 5
ENDMDL
MODEL 2
REMARK VINA RESULT:     -12.4      2.115      3.043
REMARK  Name = 24978486
REMARK  5 active torsions:
REMARK  status: ('A' for Active; 'I' for Inactive)
REMARK    1  A    between atoms: O_1  and  C_6
REMARK    2  A    between atoms: O_1  and  C_18
REMARK    3  A    between atoms: C_18  and  C_20
REMARK    4  A    between atoms: N_19  and  C_26
REMARK    5  A    between atoms: C_26  and  C_29
REMARK                            x       y       z     vdW  Elec       q    Type
REMARK                         _______ _______ _______ _____ _____    ______ ____
ROOT
ATOM      1  O   UNL     1      34.916 -22.783 -17.279  0.00  0.00    -0.479 OA
ENDROOT
BRANCH   1   6
ATOM      2  N   UNL     1      35.967 -24.225 -12.774  0.00  0.00    -0.332 NA
ATOM      3  N   UNL     1      37.775 -23.508 -14.197  0.00  0.00    -0.317 NA
ATOM      4  N   UNL     1      37.391 -22.792 -16.382  0.00  0.00    -0.335 N 
ATOM      5  N   UNL     1      38.183 -24.222 -12.003  0.00  0.00    -0.283 N 
ATOM      6  C   UNL     1      34.570 -23.256 -16.037  0.00  0.00    +0.130 C 
ATOM      7  C   UNL     1      35.500 -23.501 -15.012  0.00  0.00    +0.177 C 
ATOM      8  C   UNL     1      33.217 -23.497 -15.821  0.00  0.00    +0.033 C 
ATOM      9  C   UNL     1      35.086 -23.988 -13.761  0.00  0.00    +0.137 C 
ATOM     10  C   UNL     1      36.866 -23.281 -15.163  0.00  0.00    +0.181 C 
ATOM     11  C   UNL     1      32.794 -23.979 -14.587  0.00  0.00    +0.005 C 
ATOM     12  C   UNL     1      33.726 -24.220 -13.572  0.00  0.00    +0.030 C 
ATOM     13  C   UNL     1      37.264 -23.972 -13.045  0.00  0.00    +0.197 C 
ATOM     14  H   UNL     1      38.359 -22.641 -16.477  0.00  0.00    +0.144 HD
ATOM     15  H   UNL     1      36.787 -22.603 -17.136  0.00  0.00    +0.144 HD
ATOM     16  H   UNL     1      37.864 -24.563 -11.136  0.00  0.00    +0.156 HD
ATOM     17  H   UNL     1      39.144 -24.055 -12.142  0.00  0.00    +0.156 HD
ENDBRANCH   1   6
BRANCH   1  18
ATOM     18  C   UNL     1      33.895 -22.743 -18.259  0.00  0.00    +0.205 C 
BRANCH  18  20
ATOM     19  N   UNL     1      35.229 -19.444 -20.707  0.00  0.00    +0.390 N 
ATOM     20  C   UNL     1      34.414 -21.974 -19.471  0.00  0.00    +0.040 C 
ATOM     21  C   UNL     1      35.758 -21.306 -19.164  0.00  0.00    -0.019 C 
ATOM     22  C   UNL     1      33.402 -20.919 -19.928  0.00  0.00    -0.019 C 
ATOM     23  C   UNL     1      36.235 -20.451 -20.341  0.00  0.00    -0.077 C 
ATOM     24  C   UNL     1      33.957 -20.077 -21.079  0.00  0.00    -0.077 C 
ATOM     25  H   UNL     1      35.062 -18.855 -19.891  0.00  0.00    -0.079 HD
BRANCH  19  26
ATOM     26  C   UNL     1      35.721 -18.603 -21.797  0.00  0.00    -0.049 C 
BRANCH  26  29
ATOM     27 CL   UNL     1      34.910 -17.273 -24.415  0.00  0.00    -0.082 Cl
ATOM     28 CL   UNL     1      33.735 -14.297 -24.119  0.00  0.00    -0.081 Cl
ATOM     29  C   UNL     1      35.163 -17.207 -21.725  0.00  0.00    -0.032 C 
ATOM     30  C   UNL     1      34.763 -16.510 -22.865  0.00  0.00    +0.062 C 
ATOM     31  C   UNL     1      35.053 -16.610 -20.469  0.00  0.00    -0.005 C 
ATOM     32  C   UNL     1      34.251 -15.217 -22.748  0.00  0.00    +0.068 C 
ATOM     33  C   UNL     1      34.541 -15.318 -20.352  0.00  0.00    +0.001 C 
ATOM     34  C   UNL     1      34.140 -14.622 -21.492  0.00  0.00    +0.012 C 
ENDBRANCH  26  29
ENDBRANCH  19  26
ENDBRANCH  18  20
ENDBRANCH   1  18
TORSDOF 5
ENDMDL
MODEL 3
REMARK VINA RESULT:     -11.9      4.254      9.820
REMARK  Name = 24978486
REMARK  5 active torsions:
REMARK  status: ('A' for Active; 'I' for Inactive)
REMARK    1  A    between atoms: O_1  and  C_6
REMARK    2  A    between atoms: O_1  and  C_18
REMARK    3  A    between atoms: C_18  and  C_20
REMARK    4  A    between atoms: N_19  and  C_26
REMARK    5  A    between atoms: C_26  and  C_29
REMARK                            x       y       z     vdW  Elec       q    Type
REMARK                         _______ _______ _______ _____ _____    ______ ____
ROOT
ATOM      1  O   UNL     1      35.174 -18.303 -22.212  0.00  0.00    -0.479 OA
ENDROOT
BRANCH   1   6
ATOM      2  N   UNL     1      33.639 -14.031 -23.907  0.00  0.00    -0.332 NA
ATOM      3  N   UNL     1      33.810 -15.878 -25.446  0.00  0.00    -0.317 NA
ATOM      4  N   UNL     1      34.536 -17.980 -24.746  0.00  0.00    -0.335 N 
ATOM      5  N   UNL     1      33.078 -13.774 -26.171  0.00  0.00    -0.283 N 
ATOM      6  C   UNL     1      34.843 -16.980 -22.063  0.00  0.00    +0.130 C 
ATOM      7  C   UNL     1      34.394 -16.167 -23.118  0.00  0.00    +0.177 C 
ATOM      8  C   UNL     1      34.975 -16.448 -20.784  0.00  0.00    +0.033 C 
ATOM      9  C   UNL     1      34.071 -14.817 -22.905  0.00  0.00    +0.137 C 
ATOM     10  C   UNL     1      34.239 -16.637 -24.420  0.00  0.00    +0.181 C 
ATOM     11  C   UNL     1      34.660 -15.113 -20.560  0.00  0.00    +0.005 C 
ATOM     12  C   UNL     1      34.212 -14.311 -21.616  0.00  0.00    +0.030 C 
ATOM     13  C   UNL     1      33.532 -14.604 -25.123  0.00  0.00    +0.197 C 
ATOM     14  H   UNL     1      34.422 -18.300 -25.669  0.00  0.00    +0.144 HD
ATOM     15  H   UNL     1      34.855 -18.596 -24.047  0.00  0.00    +0.144 HD
ATOM     16  H   UNL     1      32.859 -12.831 -25.991  0.00  0.00    +0.156 HD
ATOM     17  H   UNL     1      32.978 -14.137 -27.081  0.00  0.00    +0.156 HD
ENDBRANCH   1   6
BRANCH   1  18
ATOM     18  C   UNL     1      35.941 -18.894 -21.179  0.00  0.00    +0.205 C 
BRANCH  18  20
ATOM     19  N   UNL     1      34.055 -21.923 -18.745  0.00  0.00    +0.390 N 
ATOM     20  C   UNL     1      35.288 -20.216 -20.785  0.00  0.00    +0.040 C 
ATOM     21  C   UNL     1      33.857 -19.996 -20.285  0.00  0.00    -0.019 C 
ATOM     22  C   UNL     1      36.108 -20.935 -19.708  0.00  0.00    -0.019 C 
ATOM     23  C   UNL     1      33.232 -21.304 -19.793  0.00  0.00    -0.077 C 
ATOM     24  C   UNL     1      35.409 -22.211 -19.236  0.00  0.00    -0.077 C 
ATOM     25  H   UNL     1      34.134 -21.260 -17.974  0.00  0.00    -0.079 HD
BRANCH  19  26
ATOM     26  C   UNL     1      33.419 -23.143 -18.250  0.00  0.00    -0.049 C 
BRANCH  26  29
ATOM     27 CL   UNL     1      30.928 -23.116 -16.496  0.00  0.00    -0.082 Cl
ATOM     28 CL   UNL     1      31.477 -23.492 -13.352  0.00  0.00    -0.081 Cl
ATOM     29  C   UNL     1      33.611 -23.314 -16.767  0.00  0.00    -0.032 C 
ATOM     30  C   UNL     1      32.536 -23.316 -15.878  0.00  0.00    +0.062 C 
ATOM     31  C   UNL     1      34.911 -23.474 -16.289  0.00  0.00    -0.005 C 
ATOM     32  C   UNL     1      32.763 -23.479 -14.510  0.00  0.00    +0.068 C 
ATOM     33  C   UNL     1      35.138 -23.637 -14.922  0.00  0.00    +0.001 C 
ATOM     34  C   UNL     1      34.063 -23.639 -14.033  0.00  0.00    +0.012 C 
ENDBRANCH  26  29
ENDBRANCH  19  26
ENDBRANCH  18  20
ENDBRANCH   1  18
TORSDOF 5
ENDMDL
MODEL 4
REMARK VINA RESULT:     -11.4      2.169      3.436
REMARK  Name = 24978486
REMARK  5 active torsions:
REMARK  status: ('A' for Active; 'I' for Inactive)
REMARK    1  A    between atoms: O_1  and  C_6
REMARK    2  A    between atoms: O_1  and  C_18
REMARK    3  A    between atoms: C_18  and  C_20
REMARK    4  A    between atoms: N_19  and  C_26
REMARK    5  A    between atoms: C_26  and  C_29
REMARK                            x       y       z     vdW  Elec       q    Type
REMARK                         _______ _______ _______ _____ _____    ______ ____
ROOT
ATOM      1  O   UNL     1      34.278 -23.099 -17.093  0.00  0.00    -0.479 OA
ENDROOT
BRANCH   1   6
ATOM      2  N   UNL     1      34.164 -24.279 -12.395  0.00  0.00    -0.332 NA
ATOM      3  N   UNL     1      36.302 -23.823 -13.409  0.00  0.00    -0.317 NA
ATOM      4  N   UNL     1      36.482 -23.246 -15.661  0.00  0.00    -0.335 N 
ATOM      5  N   UNL     1      36.145 -24.402 -11.144  0.00  0.00    -0.283 N 
ATOM      6  C   UNL     1      33.622 -23.447 -15.939  0.00  0.00    +0.130 C 
ATOM      7  C   UNL     1      34.275 -23.690 -14.717  0.00  0.00    +0.177 C 
ATOM      8  C   UNL     1      32.238 -23.557 -16.021  0.00  0.00    +0.033 C 
ATOM      9  C   UNL     1      33.550 -24.045 -13.568  0.00  0.00    +0.137 C 
ATOM     10  C   UNL     1      35.656 -23.596 -14.567  0.00  0.00    +0.181 C 
ATOM     11  C   UNL     1      31.509 -23.909 -14.891  0.00  0.00    +0.005 C 
ATOM     12  C   UNL     1      32.166 -24.148 -13.679  0.00  0.00    +0.030 C 
ATOM     13  C   UNL     1      35.507 -24.156 -12.379  0.00  0.00    +0.197 C 
ATOM     14  H   UNL     1      37.456 -23.183 -15.542  0.00  0.00    +0.144 HD
ATOM     15  H   UNL     1      36.080 -23.064 -16.541  0.00  0.00    +0.144 HD
ATOM     16  H   UNL     1      35.611 -24.649 -10.355  0.00  0.00    +0.156 HD
ATOM     17  H   UNL     1      37.124 -24.326 -11.071  0.00  0.00    +0.156 HD
ENDBRANCH   1   6
BRANCH   1  18
ATOM     18  C   UNL     1      33.525 -23.124 -18.292  0.00  0.00    +0.205 C 
BRANCH  18  20
ATOM     19  N   UNL     1      35.462 -19.751 -20.170  0.00  0.00    +0.390 N 
ATOM     20  C   UNL     1      34.256 -22.291 -19.342  0.00  0.00    +0.040 C 
ATOM     21  C   UNL     1      35.617 -21.819 -18.822  0.00  0.00    -0.019 C 
ATOM     22  C   UNL     1      33.416 -21.081 -19.767  0.00  0.00    -0.019 C 
ATOM     23  C   UNL     1      36.311 -20.901 -19.831  0.00  0.00    -0.077 C 
ATOM     24  C   UNL     1      34.183 -20.188 -20.744  0.00  0.00    -0.077 C 
ATOM     25  H   UNL     1      35.264 -19.240 -19.310  0.00  0.00    -0.079 HD
BRANCH  19  26
ATOM     26  C   UNL     1      36.159 -18.857 -21.095  0.00  0.00    -0.049 C 
BRANCH  26  29
ATOM     27 CL   UNL     1      35.245 -16.025 -21.747  0.00  0.00    -0.082 Cl
ATOM     28 CL   UNL     1      33.603 -15.726 -24.493  0.00  0.00    -0.081 Cl
ATOM     29  C   UNL     1      35.384 -18.652 -22.369  0.00  0.00    -0.032 C 
ATOM     30  C   UNL     1      34.920 -17.395 -22.759  0.00  0.00    +0.062 C 
ATOM     31  C   UNL     1      35.133 -19.766 -23.169  0.00  0.00    -0.005 C 
ATOM     32  C   UNL     1      34.206 -17.254 -23.949  0.00  0.00    +0.068 C 
ATOM     33  C   UNL     1      34.420 -19.625 -24.359  0.00  0.00    +0.001 C 
ATOM     34  C   UNL     1      33.956 -18.368 -24.749  0.00  0.00    +0.012 C 
ENDBRANCH  26  29
ENDBRANCH  19  26
ENDBRANCH  18  20
ENDBRANCH   1  18
TORSDOF 5
ENDMDL
MODEL 5
REMARK VINA RESULT:     -11.4      2.553      4.448
REMARK  Name = 24978486
REMARK  5 active torsions:
REMARK  status: ('A' for Active; 'I' for Inactive)
REMARK    1  A    between atoms: O_1  and  C_6
REMARK    2  A    between atoms: O_1  and  C_18
REMARK    3  A    between atoms: C_18  and  C_20
REMARK    4  A    between atoms: N_19  and  C_26
REMARK    5  A    between atoms: C_26  and  C_29
REMARK                            x       y       z     vdW  Elec       q    Type
REMARK                         _______ _______ _______ _____ _____    ______ ____
ROOT
ATOM      1  O   UNL     1      34.425 -19.684 -21.403  0.00  0.00    -0.479 OA
ENDROOT
BRANCH   1   6
ATOM      2  N   UNL     1      34.733 -22.786 -17.693  0.00  0.00    -0.332 NA
ATOM      3  N   UNL     1      32.555 -22.306 -18.605  0.00  0.00    -0.317 NA
ATOM      4  N   UNL     1      32.283 -20.830 -20.390  0.00  0.00    -0.335 N 
ATOM      5  N   UNL     1      32.806 -23.792 -16.811  0.00  0.00    -0.283 N 
ATOM      6  C   UNL     1      35.128 -20.392 -20.460  0.00  0.00    +0.130 C 
ATOM      7  C   UNL     1      34.527 -21.258 -19.530  0.00  0.00    +0.177 C 
ATOM      8  C   UNL     1      36.507 -20.214 -20.453  0.00  0.00    +0.033 C 
ATOM      9  C   UNL     1      35.299 -21.954 -18.587  0.00  0.00    +0.137 C 
ATOM     10  C   UNL     1      33.153 -21.481 -19.485  0.00  0.00    +0.181 C 
ATOM     11  C   UNL     1      37.283 -20.897 -19.523  0.00  0.00    +0.005 C 
ATOM     12  C   UNL     1      36.677 -21.758 -18.602  0.00  0.00    +0.030 C 
ATOM     13  C   UNL     1      33.392 -22.916 -17.751  0.00  0.00    +0.197 C 
ATOM     14  H   UNL     1      31.314 -20.997 -20.347  0.00  0.00    +0.144 HD
ATOM     15  H   UNL     1      32.647 -20.212 -21.064  0.00  0.00    +0.144 HD
ATOM     16  H   UNL     1      33.373 -24.267 -16.161  0.00  0.00    +0.156 HD
ATOM     17  H   UNL     1      31.831 -23.928 -16.806  0.00  0.00    +0.156 HD
ENDBRANCH   1   6
BRANCH   1  18
ATOM     18  C   UNL     1      35.025 -19.539 -22.677  0.00  0.00    +0.205 C 
BRANCH  18  20
ATOM     19  N   UNL     1      34.030 -15.357 -23.091  0.00  0.00    +0.390 N 
ATOM     20  C   UNL     1      35.181 -18.050 -22.975  0.00  0.00    +0.040 C 
ATOM     21  C   UNL     1      34.931 -17.209 -21.720  0.00  0.00    -0.019 C 
ATOM     22  C   UNL     1      34.228 -17.610 -24.092  0.00  0.00    -0.019 C 
ATOM     23  C   UNL     1      34.987 -15.712 -22.034  0.00  0.00    -0.077 C 
ATOM     24  C   UNL     1      34.307 -16.101 -24.327  0.00  0.00    -0.077 C 
ATOM     25  H   UNL     1      33.097 -15.614 -22.771  0.00  0.00    -0.079 HD
BRANCH  19  26
ATOM     26  C   UNL     1      34.059 -13.917 -23.343  0.00  0.00    -0.049 C 
BRANCH  26  29
ATOM     27 CL   UNL     1      33.322 -11.054 -24.084  0.00  0.00    -0.082 Cl
ATOM     28 CL   UNL     1      31.394  -9.563 -21.991  0.00  0.00    -0.081 Cl
ATOM     29  C   UNL     1      33.157 -13.164 -22.401  0.00  0.00    -0.032 C 
ATOM     30  C   UNL     1      32.761 -11.849 -22.648  0.00  0.00    +0.062 C 
ATOM     31  C   UNL     1      32.717 -13.820 -21.252  0.00  0.00    -0.005 C 
ATOM     32  C   UNL     1      31.924 -11.192 -21.746  0.00  0.00    +0.068 C 
ATOM     33  C   UNL     1      31.880 -13.163 -20.350  0.00  0.00    +0.001 C 
ATOM     34  C   UNL     1      31.484 -11.849 -20.598  0.00  0.00    +0.012 C 
ENDBRANCH  26  29
ENDBRANCH  19  26
ENDBRANCH  18  20
ENDBRANCH   1  18
TORSDOF 5
ENDMDL
MODEL 6
REMARK VINA RESULT:     -11.2      4.198      9.728
REMARK  Name = 24978486
REMARK  5 active torsions:
REMARK  status: ('A' for Active; 'I' for Inactive)
REMARK    1  A    between atoms: O_1  and  C_6
REMARK    2  A    between atoms: O_1  and  C_18
REMARK    3  A    between atoms: C_18  and  C_20
REMARK    4  A    between atoms: N_19  and  C_26
REMARK    5  A    between atoms: C_26  and  C_29
REMARK                            x       y       z     vdW  Elec       q    Type
REMARK                         _______ _______ _______ _____ _____    ______ ____
ROOT
ATOM      1  O   UNL     1      35.265 -18.089 -20.989  0.00  0.00    -0.479 OA
ENDROOT
BRANCH   1   6
ATOM      2  N   UNL     1      33.931 -14.362 -23.782  0.00  0.00    -0.332 NA
ATOM      3  N   UNL     1      34.171 -13.988 -21.414  0.00  0.00    -0.317 NA
ATOM      4  N   UNL     1      34.808 -15.705 -19.971  0.00  0.00    -0.335 N 
ATOM      5  N   UNL     1      33.530 -12.248 -22.847  0.00  0.00    -0.283 N 
ATOM      6  C   UNL     1      34.953 -17.523 -22.199  0.00  0.00    +0.130 C 
ATOM      7  C   UNL     1      34.589 -16.174 -22.356  0.00  0.00    +0.177 C 
ATOM      8  C   UNL     1      35.008 -18.361 -23.308  0.00  0.00    +0.033 C 
ATOM      9  C   UNL     1      34.279 -15.651 -23.622  0.00  0.00    +0.137 C 
ATOM     10  C   UNL     1      34.516 -15.283 -21.289  0.00  0.00    +0.181 C 
ATOM     11  C   UNL     1      34.702 -17.855 -24.567  0.00  0.00    +0.005 C 
ATOM     12  C   UNL     1      34.342 -16.512 -24.714  0.00  0.00    +0.030 C 
ATOM     13  C   UNL     1      33.896 -13.600 -22.670  0.00  0.00    +0.197 C 
ATOM     14  H   UNL     1      34.753 -15.065 -19.225  0.00  0.00    +0.144 HD
ATOM     15  H   UNL     1      35.069 -16.639 -19.800  0.00  0.00    +0.144 HD
ATOM     16  H   UNL     1      33.318 -11.909 -23.746  0.00  0.00    +0.156 HD
ATOM     17  H   UNL     1      33.489 -11.643 -22.071  0.00  0.00    +0.156 HD
ENDBRANCH   1   6
BRANCH   1  18
ATOM     18  C   UNL     1      36.172 -19.176 -21.002  0.00  0.00    +0.205 C 
BRANCH  18  20
ATOM     19  N   UNL     1      33.983 -22.021 -18.600  0.00  0.00    +0.390 N 
ATOM     20  C   UNL     1      35.417 -20.444 -20.612  0.00  0.00    +0.040 C 
ATOM     21  C   UNL     1      33.982 -20.122 -20.186  0.00  0.00    -0.019 C 
ATOM     22  C   UNL     1      36.138 -21.188 -19.484  0.00  0.00    -0.019 C 
ATOM     23  C   UNL     1      33.252 -21.376 -19.699  0.00  0.00    -0.077 C 
ATOM     24  C   UNL     1      35.337 -22.406 -19.020  0.00  0.00    -0.077 C 
ATOM     25  H   UNL     1      34.069 -21.347 -17.839  0.00  0.00    -0.079 HD
BRANCH  19  26
ATOM     26  C   UNL     1      33.247 -23.187 -18.112  0.00  0.00    -0.049 C 
BRANCH  26  29
ATOM     27 CL   UNL     1      30.744 -23.164 -16.376  0.00  0.00    -0.082 Cl
ATOM     28 CL   UNL     1      31.266 -23.595 -13.235  0.00  0.00    -0.081 Cl
ATOM     29  C   UNL     1      33.426 -23.383 -16.630  0.00  0.00    -0.032 C 
ATOM     30  C   UNL     1      32.345 -23.389 -15.749  0.00  0.00    +0.062 C 
ATOM     31  C   UNL     1      34.722 -23.562 -16.145  0.00  0.00    -0.005 C 
ATOM     32  C   UNL     1      32.560 -23.575 -14.382  0.00  0.00    +0.068 C 
ATOM     33  C   UNL     1      34.936 -23.748 -14.779  0.00  0.00    +0.001 C 
ATOM     34  C   UNL     1      33.855 -23.755 -13.898  0.00  0.00    +0.012 C 
ENDBRANCH  26  29
ENDBRANCH  19  26
ENDBRANCH  18  20
ENDBRANCH   1  18
TORSDOF 5
ENDMDL
MODEL 7
REMARK VINA RESULT:     -11.1      6.681     10.540
REMARK  Name = 24978486
REMARK  5 active torsions:
REMARK  status: ('A' for Active; 'I' for Inactive)
REMARK    1  A    between atoms: O_1  and  C_6
REMARK    2  A    between atoms: O_1  and  C_18
REMARK    3  A    between atoms: C_18  and  C_20
REMARK    4  A    between atoms: N_19  and  C_26
REMARK    5  A    between atoms: C_26  and  C_29
REMARK                            x       y       z     vdW  Elec       q    Type
REMARK                         _______ _______ _______ _____ _____    ______ ____
ROOT
ATOM      1  O   UNL     1      33.327 -13.366 -22.155  0.00  0.00    -0.479 OA
ENDROOT
BRANCH   1   6
ATOM      2  N   UNL     1      35.308 -17.745 -22.774  0.00  0.00    -0.332 NA
ATOM      3  N   UNL     1      35.251 -16.819 -20.550  0.00  0.00    -0.317 NA
ATOM      4  N   UNL     1      34.323 -14.721 -20.130  0.00  0.00    -0.335 N 
ATOM      5  N   UNL     1      36.188 -18.929 -20.950  0.00  0.00    -0.283 N 
ATOM      6  C   UNL     1      33.702 -14.437 -22.927  0.00  0.00    +0.130 C 
ATOM      7  C   UNL     1      34.338 -15.581 -22.414  0.00  0.00    +0.177 C 
ATOM      8  C   UNL     1      33.423 -14.348 -24.287  0.00  0.00    +0.033 C 
ATOM      9  C   UNL     1      34.700 -16.646 -23.255  0.00  0.00    +0.137 C 
ATOM     10  C   UNL     1      34.644 -15.733 -21.065  0.00  0.00    +0.181 C 
ATOM     11  C   UNL     1      33.777 -15.395 -25.131  0.00  0.00    +0.005 C 
ATOM     12  C   UNL     1      34.409 -16.530 -24.612  0.00  0.00    +0.030 C 
ATOM     13  C   UNL     1      35.551 -17.772 -21.448  0.00  0.00    +0.197 C 
ATOM     14  H   UNL     1      34.545 -14.841 -19.179  0.00  0.00    +0.144 HD
ATOM     15  H   UNL     1      33.877 -13.897 -20.432  0.00  0.00    +0.144 HD
ATOM     16  H   UNL     1      36.430 -19.659 -21.564  0.00  0.00    +0.156 HD
ATOM     17  H   UNL     1      36.390 -19.006 -19.989  0.00  0.00    +0.156 HD
ENDBRANCH   1   6
BRANCH   1  18
ATOM     18  C   UNL     1      31.938 -13.127 -22.018  0.00  0.00    +0.205 C 
BRANCH  18  20
ATOM     19  N   UNL     1      32.692  -8.888 -21.687  0.00  0.00    +0.390 N 
ATOM     20  C   UNL     1      31.698 -11.620 -22.054  0.00  0.00    +0.040 C 
ATOM     21  C   UNL     1      32.623 -10.940 -23.068  0.00  0.00    -0.019 C 
ATOM     22  C   UNL     1      31.899 -10.998 -20.669  0.00  0.00    -0.019 C 
ATOM     23  C   UNL     1      32.458  -9.418 -23.036  0.00  0.00    -0.077 C 
ATOM     24  C   UNL     1      31.758  -9.475 -20.717  0.00  0.00    -0.077 C 
ATOM     25  H   UNL     1      33.639  -9.144 -21.407  0.00  0.00    -0.079 HD
BRANCH  19  26
ATOM     26  C   UNL     1      32.582  -7.429 -21.684  0.00  0.00    -0.049 C 
BRANCH  26  29
ATOM     27 CL   UNL     1      31.165  -5.350 -23.402  0.00  0.00    -0.082 Cl
ATOM     28 CL   UNL     1      32.948  -4.097 -25.764  0.00  0.00    -0.081 Cl
ATOM     29  C   UNL     1      33.365  -6.805 -22.809  0.00  0.00    -0.032 C 
ATOM     30  C   UNL     1      32.809  -5.844 -23.653  0.00  0.00    +0.062 C 
ATOM     31  C   UNL     1      34.685  -7.216 -22.994  0.00  0.00    -0.005 C 
ATOM     32  C   UNL     1      33.573  -5.293 -24.682  0.00  0.00    +0.068 C 
ATOM     33  C   UNL     1      35.449  -6.665 -24.022  0.00  0.00    +0.001 C 
ATOM     34  C   UNL     1      34.893  -5.703 -24.866  0.00  0.00    +0.012 C 
ENDBRANCH  26  29
ENDBRANCH  19  26
ENDBRANCH  18  20
ENDBRANCH   1  18
TORSDOF 5
ENDMDL
MODEL 8
REMARK VINA RESULT:     -11.0      1.598      2.435
REMARK  Name = 24978486
REMARK  5 active torsions:
REMARK  status: ('A' for Active; 'I' for Inactive)
REMARK    1  A    between atoms: O_1  and  C_6
REMARK    2  A    between atoms: O_1  and  C_18
REMARK    3  A    between atoms: C_18  and  C_20
REMARK    4  A    between atoms: N_19  and  C_26
REMARK    5  A    between atoms: C_26  and  C_29
REMARK                            x       y       z     vdW  Elec       q    Type
REMARK                         _______ _______ _______ _____ _____    ______ ____
ROOT
ATOM      1  O   UNL     1      33.638 -22.577 -17.250  0.00  0.00    -0.479 OA
ENDROOT
BRANCH   1   6
ATOM      2  N   UNL     1      32.563 -24.961 -13.171  0.00  0.00    -0.332 NA
ATOM      3  N   UNL     1      30.749 -24.144 -14.530  0.00  0.00    -0.317 NA
ATOM      4  N   UNL     1      31.143 -22.983 -16.514  0.00  0.00    -0.335 N 
ATOM      5  N   UNL     1      30.331 -25.308 -12.540  0.00  0.00    -0.283 N 
ATOM      6  C   UNL     1      33.981 -23.254 -16.107  0.00  0.00    +0.130 C 
ATOM      7  C   UNL     1      33.042 -23.775 -15.200  0.00  0.00    +0.177 C 
ATOM      8  C   UNL     1      35.342 -23.411 -15.865  0.00  0.00    +0.033 C 
ATOM      9  C   UNL     1      33.454 -24.458 -14.045  0.00  0.00    +0.137 C 
ATOM     10  C   UNL     1      31.667 -23.653 -15.383  0.00  0.00    +0.181 C 
ATOM     11  C   UNL     1      35.763 -24.085 -14.724  0.00  0.00    +0.005 C 
ATOM     12  C   UNL     1      34.822 -24.601 -13.827  0.00  0.00    +0.030 C 
ATOM     13  C   UNL     1      31.260 -24.777 -13.461  0.00  0.00    +0.197 C 
ATOM     14  H   UNL     1      30.170 -22.904 -16.632  0.00  0.00    +0.144 HD
ATOM     15  H   UNL     1      31.754 -22.597 -17.183  0.00  0.00    +0.144 HD
ATOM     16  H   UNL     1      30.649 -25.782 -11.738  0.00  0.00    +0.156 HD
ATOM     17  H   UNL     1      29.364 -25.205 -12.700  0.00  0.00    +0.156 HD
ENDBRANCH   1   6
BRANCH   1  18
ATOM     18  C   UNL     1      33.771 -23.274 -18.475  0.00  0.00    +0.205 C 
BRANCH  18  20
ATOM     19  N   UNL     1      35.486 -19.704 -20.198  0.00  0.00    +0.390 N 
ATOM     20  C   UNL     1      34.401 -22.336 -19.502  0.00  0.00    +0.040 C 
ATOM     21  C   UNL     1      35.788 -21.873 -19.047  0.00  0.00    -0.019 C 
ATOM     22  C   UNL     1      33.506 -21.119 -19.757  0.00  0.00    -0.019 C 
ATOM     23  C   UNL     1      36.382 -20.855 -20.023  0.00  0.00    -0.077 C 
ATOM     24  C   UNL     1      34.176 -20.127 -20.709  0.00  0.00    -0.077 C 
ATOM     25  H   UNL     1      35.344 -19.273 -19.285  0.00  0.00    -0.079 HD
BRANCH  19  26
ATOM     26  C   UNL     1      36.091 -18.717 -21.093  0.00  0.00    -0.049 C 
BRANCH  26  29
ATOM     27 CL   UNL     1      35.183 -15.927 -21.912  0.00  0.00    -0.082 Cl
ATOM     28 CL   UNL     1      33.562 -15.786 -24.683  0.00  0.00    -0.081 Cl
ATOM     29  C   UNL     1      35.325 -18.585 -22.383  0.00  0.00    -0.032 C 
ATOM     30  C   UNL     1      34.865 -17.353 -22.847  0.00  0.00    +0.062 C 
ATOM     31  C   UNL     1      35.080 -19.744 -23.120  0.00  0.00    -0.005 C 
ATOM     32  C   UNL     1      34.160 -17.280 -24.049  0.00  0.00    +0.068 C 
ATOM     33  C   UNL     1      34.376 -19.670 -24.321  0.00  0.00    +0.001 C 
ATOM     34  C   UNL     1      33.916 -18.438 -24.786  0.00  0.00    +0.012 C 
ENDBRANCH  26  29
ENDBRANCH  19  26
ENDBRANCH  18  20
ENDBRANCH   1  18
TORSDOF 5
ENDMDL
MODEL 9
REMARK VINA RESULT:     -10.8      4.447      9.661
REMARK  Name = 24978486
REMARK  5 active torsions:
REMARK  status: ('A' for Active; 'I' for Inactive)
REMARK    1  A    between atoms: O_1  and  C_6
REMARK    2  A    between atoms: O_1  and  C_18
REMARK    3  A    between atoms: C_18  and  C_20
REMARK    4  A    between atoms: N_19  and  C_26
REMARK    5  A    between atoms: C_26  and  C_29
REMARK                            x       y       z     vdW  Elec       q    Type
REMARK                         _______ _______ _______ _____ _____    ______ ____
ROOT
ATOM      1  O   UNL     1      35.101 -16.731 -22.766  0.00  0.00    -0.479 OA
ENDROOT
BRANCH   1   6
ATOM      2  N   UNL     1      32.449 -12.710 -22.233  0.00  0.00    -0.332 NA
ATOM      3  N   UNL     1      33.275 -13.807 -20.252  0.00  0.00    -0.317 NA
ATOM      4  N   UNL     1      34.561 -15.747 -20.384  0.00  0.00    -0.335 N 
ATOM      5  N   UNL     1      31.985 -11.858 -20.097  0.00  0.00    -0.283 N 
ATOM      6  C   UNL     1      34.375 -15.674 -23.257  0.00  0.00    +0.130 C 
ATOM      7  C   UNL     1      33.767 -14.704 -22.442  0.00  0.00    +0.177 C 
ATOM      8  C   UNL     1      34.256 -15.595 -24.640  0.00  0.00    +0.033 C 
ATOM      9  C   UNL     1      33.035 -13.645 -23.003  0.00  0.00    +0.137 C 
ATOM     10  C   UNL     1      33.849 -14.725 -21.053  0.00  0.00    +0.181 C 
ATOM     11  C   UNL     1      33.533 -14.551 -25.208  0.00  0.00    +0.005 C 
ATOM     12  C   UNL     1      32.931 -13.589 -24.390  0.00  0.00    +0.030 C 
ATOM     13  C   UNL     1      32.601 -12.842 -20.900  0.00  0.00    +0.197 C 
ATOM     14  H   UNL     1      34.612 -15.751 -19.402  0.00  0.00    +0.144 HD
ATOM     15  H   UNL     1      35.008 -16.455 -20.903  0.00  0.00    +0.144 HD
ATOM     16  H   UNL     1      31.477 -11.127 -20.519  0.00  0.00    +0.156 HD
ATOM     17  H   UNL     1      32.062 -11.901 -19.116  0.00  0.00    +0.156 HD
ENDBRANCH   1   6
BRANCH   1  18
ATOM     18  C   UNL     1      34.870 -17.998 -23.354  0.00  0.00    +0.205 C 
BRANCH  18  20
ATOM     19  N   UNL     1      36.050 -20.313 -19.904  0.00  0.00    +0.390 N 
ATOM     20  C   UNL     1      35.569 -19.060 -22.510  0.00  0.00    +0.040 C 
ATOM     21  C   UNL     1      34.552 -19.994 -21.848  0.00  0.00    -0.019 C 
ATOM     22  C   UNL     1      36.456 -18.417 -21.440  0.00  0.00    -0.019 C 
ATOM     23  C   UNL     1      35.241 -20.999 -20.920  0.00  0.00    -0.077 C 
ATOM     24  C   UNL     1      37.082 -19.473 -20.527  0.00  0.00    -0.077 C 
ATOM     25  H   UNL     1      35.431 -19.705 -19.366  0.00  0.00    -0.079 HD
BRANCH  19  26
ATOM     26  C   UNL     1      36.659 -21.283 -18.995  0.00  0.00    -0.049 C 
BRANCH  26  29
ATOM     27 CL   UNL     1      37.426 -22.099 -16.162  0.00  0.00    -0.082 Cl
ATOM     28 CL   UNL     1      35.133 -23.644 -14.526  0.00  0.00    -0.081 Cl
ATOM     29  C   UNL     1      35.626 -22.012 -18.177  0.00  0.00    -0.032 C 
ATOM     30  C   UNL     1      35.878 -22.429 -16.870  0.00  0.00    +0.062 C 
ATOM     31  C   UNL     1      34.387 -22.268 -18.764  0.00  0.00    -0.005 C 
ATOM     32  C   UNL     1      34.890 -23.101 -16.150  0.00  0.00    +0.068 C 
ATOM     33  C   UNL     1      33.399 -22.939 -18.045  0.00  0.00    +0.001 C 
ATOM     34  C   UNL     1      33.651 -23.355 -16.737  0.00  0.00    +0.012 C 
ENDBRANCH  26  29
ENDBRANCH  19  26
ENDBRANCH  18  20
ENDBRANCH   1  18
TORSDOF 5
ENDMDL
