MODEL 1
REMARK VINA RESULT:     -12.1      0.000      0.000
REMARK  Name = 448890
REMARK  6 active torsions:
REMARK  status: ('A' for Active; 'I' for Inactive)
REMARK    1  A    between atoms: C_1  and  C_2
REMARK    2  A    between atoms: C_1  and  C_17
REMARK    3  A    between atoms: C_2  and  C_3
REMARK    4  A    between atoms: C_3  and  N_4
REMARK    5  A    between atoms: C_8  and  C_11
REMARK    6  A    between atoms: C_17  and  N_21
REMARK                            x       y       z     vdW  Elec       q    Type
REMARK                         _______ _______ _______ _____ _____    ______ ____
ROOT
ATOM      1  C   UNL     1      33.688 -13.566 -23.192  0.00  0.00    +0.022 C 
ENDROOT
BRANCH   1   2
ATOM      2  C   UNL     1      33.675 -14.943 -23.865  0.00  0.00    -0.021 C 
BRANCH   2   3
ATOM      3  C   UNL     1      35.094 -15.482 -24.042  0.00  0.00    -0.077 C 
BRANCH   3   4
ATOM      4  N   UNL     1      35.298 -16.657 -23.198  0.00  0.00    +0.390 N 
ATOM      5  C   UNL     1      34.884 -16.394 -21.816  0.00  0.00    -0.072 C 
ATOM      6  C   UNL     1      34.580 -17.820 -23.741  0.00  0.00    -0.051 C 
ATOM      7  C   UNL     1      35.264 -17.584 -20.922  0.00  0.00    +0.003 C 
ATOM      8  C   UNL     1      34.853 -18.916 -21.506  0.00  0.00    -0.031 C 
ATOM      9  C   UNL     1      34.539 -19.005 -22.814  0.00  0.00    -0.053 C 
ATOM     10  H   UNL     1      36.296 -16.869 -23.192  0.00  0.00    -0.079 HD
BRANCH   8  11
ATOM     11  C   UNL     1      34.816 -20.097 -20.610  0.00  0.00    -0.004 C 
ATOM     12  C   UNL     1      33.592 -20.640 -20.216  0.00  0.00    -0.000 C 
ATOM     13  C   UNL     1      36.007 -20.670 -20.158  0.00  0.00    -0.000 C 
ATOM     14  C   UNL     1      33.557 -21.750 -19.373  0.00  0.00    -0.000 C 
ATOM     15  C   UNL     1      35.972 -21.781 -19.315  0.00  0.00    -0.000 C 
ATOM     16  C   UNL     1      34.748 -22.321 -18.922  0.00  0.00    -0.000 C 
ENDBRANCH   8  11
ENDBRANCH   3   4
ENDBRANCH   2   3
ENDBRANCH   1   2
BRANCH   1  17
ATOM     17  C   UNL     1      32.291 -12.969 -23.052  0.00  0.00    +0.110 C 
BRANCH  17  21
ATOM     18  F   UNL     1      31.812  -7.649 -20.021  0.00  0.00    -0.204 F 
ATOM     19  O   UNL     1      32.169 -13.915 -20.404  0.00  0.00    -0.246 OA
ATOM     20  O   UNL     1      31.828  -9.733 -18.583  0.00  0.00    -0.267 OA
ATOM     21  N   UNL     1      32.169 -12.110 -21.877  0.00  0.00    -0.281 N 
ATOM     22  N   UNL     1      32.001 -11.815 -19.536  0.00  0.00    -0.274 N 
ATOM     23  C   UNL     1      32.106 -10.692 -22.052  0.00  0.00    +0.071 A 
ATOM     24  C   UNL     1      32.117 -12.699 -20.607  0.00  0.00    +0.330 A 
ATOM     25  C   UNL     1      31.989  -9.853 -20.938  0.00  0.00    +0.099 A 
ATOM     26  C   UNL     1      32.157 -10.096 -23.324  0.00  0.00    +0.018 C 
ATOM     27  C   UNL     1      31.931 -10.434 -19.585  0.00  0.00    +0.265 A 
ATOM     28  C   UNL     1      31.924  -8.460 -21.083  0.00  0.00    +0.146 C 
ATOM     29  C   UNL     1      32.093  -8.708 -23.471  0.00  0.00    +0.004 C 
ATOM     30  C   UNL     1      31.977  -7.890 -22.352  0.00  0.00    +0.030 C 
ATOM     31  H   UNL     1      31.964 -12.221 -18.639  0.00  0.00    +0.173 HD
ENDBRANCH  17  21
ENDBRANCH   1  17
TORSDOF 6
ENDMDL
MODEL 2
REMARK VINA RESULT:     -12.1      7.657     12.898
REMARK  Name = 448890
REMARK  6 active torsions:
REMARK  status: ('A' for Active; 'I' for Inactive)
REMARK    1  A    between atoms: C_1  and  C_2
REMARK    2  A    between atoms: C_1  and  C_17
REMARK    3  A    between atoms: C_2  and  C_3
REMARK    4  A    between atoms: C_3  and  N_4
REMARK    5  A    between atoms: C_8  and  C_11
REMARK    6  A    between atoms: C_17  and  N_21
REMARK                            x       y       z     vdW  Elec       q    Type
REMARK                         _______ _______ _______ _____ _____    ______ ____
ROOT
ATOM      1  C   UNL     1      33.396 -23.751 -15.535  0.00  0.00    +0.022 C 
ENDROOT
BRANCH   1   2
ATOM      2  C   UNL     1      33.214 -23.143 -16.930  0.00  0.00    -0.021 C 
BRANCH   2   3
ATOM      3  C   UNL     1      34.531 -23.140 -17.705  0.00  0.00    -0.077 C 
BRANCH   3   4
ATOM      4  N   UNL     1      34.633 -21.934 -18.525  0.00  0.00    +0.390 N 
ATOM      5  C   UNL     1      35.765 -22.021 -19.453  0.00  0.00    -0.072 C 
ATOM      6  C   UNL     1      33.380 -21.693 -19.256  0.00  0.00    -0.051 C 
ATOM      7  C   UNL     1      35.947 -20.679 -20.179  0.00  0.00    +0.003 C 
ATOM      8  C   UNL     1      34.655 -20.132 -20.741  0.00  0.00    -0.031 C 
ATOM      9  C   UNL     1      33.477 -20.615 -20.302  0.00  0.00    -0.053 C 
ATOM     10  H   UNL     1      34.798 -21.144 -17.901  0.00  0.00    -0.079 HD
BRANCH   8  11
ATOM     11  C   UNL     1      34.730 -19.062 -21.765  0.00  0.00    -0.004 C 
ATOM     12  C   UNL     1      35.194 -17.791 -21.419  0.00  0.00    -0.000 C 
ATOM     13  C   UNL     1      34.338 -19.322 -23.080  0.00  0.00    -0.000 C 
ATOM     14  C   UNL     1      35.264 -16.785 -22.382  0.00  0.00    -0.000 C 
ATOM     15  C   UNL     1      34.409 -18.316 -24.044  0.00  0.00    -0.000 C 
ATOM     16  C   UNL     1      34.872 -17.047 -23.695  0.00  0.00    -0.000 C 
ENDBRANCH   8  11
ENDBRANCH   3   4
ENDBRANCH   2   3
ENDBRANCH   1   2
BRANCH   1  17
ATOM     17  C   UNL     1      34.459 -23.027 -14.714  0.00  0.00    +0.110 C 
BRANCH  17  21
ATOM     18  F   UNL     1      39.222 -26.255 -12.570  0.00  0.00    -0.204 F 
ATOM     19  O   UNL     1      33.284 -24.191 -12.436  0.00  0.00    -0.246 OA
ATOM     20  O   UNL     1      37.088 -26.422 -11.220  0.00  0.00    -0.267 OA
ATOM     21  N   UNL     1      35.158 -23.922 -13.796  0.00  0.00    -0.281 N 
ATOM     22  N   UNL     1      35.199 -25.286 -11.864  0.00  0.00    -0.274 N 
ATOM     23  C   UNL     1      36.528 -24.246 -14.045  0.00  0.00    +0.071 A 
ATOM     24  C   UNL     1      34.465 -24.441 -12.693  0.00  0.00    +0.330 A 
ATOM     25  C   UNL     1      37.214 -25.103 -13.176  0.00  0.00    +0.099 A 
ATOM     26  C   UNL     1      37.227 -23.729 -15.149  0.00  0.00    +0.018 C 
ATOM     27  C   UNL     1      36.522 -25.669 -12.005  0.00  0.00    +0.265 A 
ATOM     28  C   UNL     1      38.558 -25.435 -13.397  0.00  0.00    +0.146 C 
ATOM     29  C   UNL     1      38.566 -24.060 -15.372  0.00  0.00    +0.004 C 
ATOM     30  C   UNL     1      39.231 -24.912 -14.497  0.00  0.00    +0.030 C 
ATOM     31  H   UNL     1      34.720 -25.656 -11.086  0.00  0.00    +0.173 HD
ENDBRANCH  17  21
ENDBRANCH   1  17
TORSDOF 6
ENDMDL
MODEL 3
REMARK VINA RESULT:     -11.9      1.503      1.679
REMARK  Name = 448890
REMARK  6 active torsions:
REMARK  status: ('A' for Active; 'I' for Inactive)
REMARK    1  A    between atoms: C_1  and  C_2
REMARK    2  A    between atoms: C_1  and  C_17
REMARK    3  A    between atoms: C_2  and  C_3
REMARK    4  A    between atoms: C_3  and  N_4
REMARK    5  A    between atoms: C_8  and  C_11
REMARK    6  A    between atoms: C_17  and  N_21
REMARK                            x       y       z     vdW  Elec       q    Type
REMARK                         _______ _______ _______ _____ _____    ______ ____
ROOT
ATOM      1  C   UNL     1      34.248 -13.390 -23.133  0.00  0.00    +0.022 C 
ENDROOT
BRANCH   1   2
ATOM      2  C   UNL     1      33.822 -14.792 -23.582  0.00  0.00    -0.021 C 
BRANCH   2   3
ATOM      3  C   UNL     1      35.018 -15.592 -24.098  0.00  0.00    -0.077 C 
BRANCH   3   4
ATOM      4  N   UNL     1      35.250 -16.760 -23.250  0.00  0.00    +0.390 N 
ATOM      5  C   UNL     1      34.911 -16.473 -21.852  0.00  0.00    -0.072 C 
ATOM      6  C   UNL     1      34.489 -17.919 -23.741  0.00  0.00    -0.051 C 
ATOM      7  C   UNL     1      35.320 -17.658 -20.964  0.00  0.00    +0.003 C 
ATOM      8  C   UNL     1      34.861 -18.991 -21.509  0.00  0.00    -0.031 C 
ATOM      9  C   UNL     1      34.479 -19.091 -22.797  0.00  0.00    -0.053 C 
ATOM     10  H   UNL     1      36.244 -16.986 -23.292  0.00  0.00    -0.079 HD
BRANCH   8  11
ATOM     11  C   UNL     1      34.854 -20.160 -20.597  0.00  0.00    -0.004 C 
ATOM     12  C   UNL     1      33.644 -20.703 -20.162  0.00  0.00    -0.000 C 
ATOM     13  C   UNL     1      36.060 -20.723 -20.170  0.00  0.00    -0.000 C 
ATOM     14  C   UNL     1      33.638 -21.803 -19.304  0.00  0.00    -0.000 C 
ATOM     15  C   UNL     1      36.053 -21.823 -19.312  0.00  0.00    -0.000 C 
ATOM     16  C   UNL     1      34.842 -22.363 -18.879  0.00  0.00    -0.000 C 
ENDBRANCH   8  11
ENDBRANCH   3   4
ENDBRANCH   2   3
ENDBRANCH   1   2
BRANCH   1  17
ATOM     17  C   UNL     1      33.554 -12.285 -23.924  0.00  0.00    +0.110 C 
BRANCH  17  21
ATOM     18  F   UNL     1      33.400  -6.663 -21.458  0.00  0.00    -0.204 F 
ATOM     19  O   UNL     1      31.338 -12.556 -22.209  0.00  0.00    -0.246 OA
ATOM     20  O   UNL     1      31.612  -8.264 -20.651  0.00  0.00    -0.267 OA
ATOM     21  N   UNL     1      33.046 -11.220 -23.062  0.00  0.00    -0.281 N 
ATOM     22  N   UNL     1      31.508 -10.411 -21.458  0.00  0.00    -0.274 N 
ATOM     23  C   UNL     1      33.698  -9.948 -23.068  0.00  0.00    +0.071 A 
ATOM     24  C   UNL     1      31.933 -11.475 -22.251  0.00  0.00    +0.330 A 
ATOM     25  C   UNL     1      33.225  -8.915 -22.250  0.00  0.00    +0.099 A 
ATOM     26  C   UNL     1      34.814  -9.686 -23.881  0.00  0.00    +0.018 C 
ATOM     27  C   UNL     1      32.057  -9.143 -21.382  0.00  0.00    +0.265 A 
ATOM     28  C   UNL     1      33.845  -7.658 -22.239  0.00  0.00    +0.146 C 
ATOM     29  C   UNL     1      35.435  -8.434 -23.871  0.00  0.00    +0.004 C 
ATOM     30  C   UNL     1      34.951  -7.420 -23.050  0.00  0.00    +0.030 C 
ATOM     31  H   UNL     1      30.726 -10.581 -20.884  0.00  0.00    +0.173 HD
ENDBRANCH  17  21
ENDBRANCH   1  17
TORSDOF 6
ENDMDL
MODEL 4
REMARK VINA RESULT:     -11.9      7.192     11.630
REMARK  Name = 448890
REMARK  6 active torsions:
REMARK  status: ('A' for Active; 'I' for Inactive)
REMARK    1  A    between atoms: C_1  and  C_2
REMARK    2  A    between atoms: C_1  and  C_17
REMARK    3  A    between atoms: C_2  and  C_3
REMARK    4  A    between atoms: C_3  and  N_4
REMARK    5  A    between atoms: C_8  and  C_11
REMARK    6  A    between atoms: C_17  and  N_21
REMARK                            x       y       z     vdW  Elec       q    Type
REMARK                         _______ _______ _______ _____ _____    ______ ____
ROOT
ATOM      1  C   UNL     1      36.682 -22.223 -15.494  0.00  0.00    +0.022 C 
ENDROOT
BRANCH   1   2
ATOM      2  C   UNL     1      37.144 -21.491 -16.759  0.00  0.00    -0.021 C 
BRANCH   2   3
ATOM      3  C   UNL     1      36.448 -22.045 -18.001  0.00  0.00    -0.077 C 
BRANCH   3   4
ATOM      4  N   UNL     1      36.065 -20.954 -18.895  0.00  0.00    +0.390 N 
ATOM      5  C   UNL     1      37.149 -20.628 -19.826  0.00  0.00    -0.072 C 
ATOM      6  C   UNL     1      34.835 -21.290 -19.629  0.00  0.00    -0.051 C 
ATOM      7  C   UNL     1      36.782 -19.376 -20.637  0.00  0.00    +0.003 C 
ATOM      8  C   UNL     1      35.389 -19.438 -21.220  0.00  0.00    -0.031 C 
ATOM      9  C   UNL     1      34.502 -20.332 -20.741  0.00  0.00    -0.053 C 
ATOM     10  H   UNL     1      35.883 -20.129 -18.324  0.00  0.00    -0.079 HD
BRANCH   8  11
ATOM     11  C   UNL     1      35.040 -18.495 -22.310  0.00  0.00    -0.004 C 
ATOM     12  C   UNL     1      34.452 -18.967 -23.485  0.00  0.00    -0.000 C 
ATOM     13  C   UNL     1      35.296 -17.129 -22.164  0.00  0.00    -0.000 C 
ATOM     14  C   UNL     1      34.123 -18.080 -24.509  0.00  0.00    -0.000 C 
ATOM     15  C   UNL     1      34.967 -16.242 -23.188  0.00  0.00    -0.000 C 
ATOM     16  C   UNL     1      34.381 -16.717 -24.362  0.00  0.00    -0.000 C 
ENDBRANCH   8  11
ENDBRANCH   3   4
ENDBRANCH   2   3
ENDBRANCH   1   2
BRANCH   1  17
ATOM     17  C   UNL     1      36.223 -23.650 -15.779  0.00  0.00    +0.110 C 
BRANCH  17  21
ATOM     18  F   UNL     1      30.297 -24.264 -14.289  0.00  0.00    -0.204 F 
ATOM     19  O   UNL     1      36.468 -24.927 -13.282  0.00  0.00    -0.246 OA
ATOM     20  O   UNL     1      31.951 -25.165 -12.598  0.00  0.00    -0.267 OA
ATOM     21  N   UNL     1      35.092 -24.048 -14.944  0.00  0.00    -0.281 N 
ATOM     22  N   UNL     1      34.212 -25.026 -12.978  0.00  0.00    -0.274 N 
ATOM     23  C   UNL     1      33.763 -23.783 -15.398  0.00  0.00    +0.071 A 
ATOM     24  C   UNL     1      35.341 -24.678 -13.717  0.00  0.00    +0.330 A 
ATOM     25  C   UNL     1      32.666 -24.157 -14.612  0.00  0.00    +0.099 A 
ATOM     26  C   UNL     1      33.508 -23.152 -16.628  0.00  0.00    +0.018 C 
ATOM     27  C   UNL     1      32.885 -24.822 -13.316  0.00  0.00    +0.265 A 
ATOM     28  C   UNL     1      31.353 -23.910 -15.036  0.00  0.00    +0.146 C 
ATOM     29  C   UNL     1      32.199 -22.904 -17.052  0.00  0.00    +0.004 C 
ATOM     30  C   UNL     1      31.122 -23.282 -16.257  0.00  0.00    +0.030 C 
ATOM     31  H   UNL     1      34.377 -25.470 -12.115  0.00  0.00    +0.173 HD
ENDBRANCH  17  21
ENDBRANCH   1  17
TORSDOF 6
ENDMDL
MODEL 5
REMARK VINA RESULT:     -11.8      7.371     12.838
REMARK  Name = 448890
REMARK  6 active torsions:
REMARK  status: ('A' for Active; 'I' for Inactive)
REMARK    1  A    between atoms: C_1  and  C_2
REMARK    2  A    between atoms: C_1  and  C_17
REMARK    3  A    between atoms: C_2  and  C_3
REMARK    4  A    between atoms: C_3  and  N_4
REMARK    5  A    between atoms: C_8  and  C_11
REMARK    6  A    between atoms: C_17  and  N_21
REMARK                            x       y       z     vdW  Elec       q    Type
REMARK                         _______ _______ _______ _____ _____    ______ ____
ROOT
ATOM      1  C   UNL     1      33.806 -23.805 -15.406  0.00  0.00    +0.022 C 
ENDROOT
BRANCH   1   2
ATOM      2  C   UNL     1      33.088 -23.140 -16.584  0.00  0.00    -0.021 C 
BRANCH   2   3
ATOM      3  C   UNL     1      33.803 -23.436 -17.902  0.00  0.00    -0.077 C 
BRANCH   3   4
ATOM      4  N   UNL     1      34.091 -22.192 -18.612  0.00  0.00    +0.390 N 
ATOM      5  C   UNL     1      35.207 -22.364 -19.549  0.00  0.00    -0.072 C 
ATOM      6  C   UNL     1      32.895 -21.704 -19.315  0.00  0.00    -0.051 C 
ATOM      7  C   UNL     1      35.594 -21.007 -20.154  0.00  0.00    +0.003 C 
ATOM      8  C   UNL     1      34.403 -20.225 -20.661  0.00  0.00    -0.031 C 
ATOM      9  C   UNL     1      33.162 -20.564 -20.262  0.00  0.00    -0.053 C 
ATOM     10  H   UNL     1      34.367 -21.493 -17.922  0.00  0.00    -0.079 HD
BRANCH   8  11
ATOM     11  C   UNL     1      34.647 -19.093 -21.586  0.00  0.00    -0.004 C 
ATOM     12  C   UNL     1      35.113 -17.872 -21.094  0.00  0.00    -0.000 C 
ATOM     13  C   UNL     1      34.411 -19.244 -22.955  0.00  0.00    -0.000 C 
ATOM     14  C   UNL     1      35.342 -16.807 -21.965  0.00  0.00    -0.000 C 
ATOM     15  C   UNL     1      34.641 -18.178 -23.826  0.00  0.00    -0.000 C 
ATOM     16  C   UNL     1      35.106 -16.960 -23.331  0.00  0.00    -0.000 C 
ENDBRANCH   8  11
ENDBRANCH   3   4
ENDBRANCH   2   3
ENDBRANCH   1   2
BRANCH   1  17
ATOM     17  C   UNL     1      34.804 -22.873 -14.725  0.00  0.00    +0.110 C 
BRANCH  17  21
ATOM     18  F   UNL     1      39.595 -26.215 -12.829  0.00  0.00    -0.204 F 
ATOM     19  O   UNL     1      36.700 -22.182 -16.689  0.00  0.00    -0.246 OA
ATOM     20  O   UNL     1      39.981 -24.828 -14.911  0.00  0.00    -0.267 OA
ATOM     21  N   UNL     1      36.169 -23.392 -14.769  0.00  0.00    -0.281 N 
ATOM     22  N   UNL     1      38.308 -23.512 -15.772  0.00  0.00    -0.274 N 
ATOM     23  C   UNL     1      36.598 -24.311 -13.762  0.00  0.00    +0.071 A 
ATOM     24  C   UNL     1      37.023 -22.974 -15.799  0.00  0.00    +0.330 A 
ATOM     25  C   UNL     1      37.903 -24.820 -13.788  0.00  0.00    +0.099 A 
ATOM     26  C   UNL     1      35.746 -24.735 -12.728  0.00  0.00    +0.018 C 
ATOM     27  C   UNL     1      38.831 -24.404 -14.853  0.00  0.00    +0.265 A 
ATOM     28  C   UNL     1      38.348 -25.723 -12.813  0.00  0.00    +0.146 C 
ATOM     29  C   UNL     1      36.188 -25.635 -11.754  0.00  0.00    +0.004 C 
ATOM     30  C   UNL     1      37.487 -26.129 -11.796  0.00  0.00    +0.030 C 
ATOM     31  H   UNL     1      38.915 -23.223 -16.492  0.00  0.00    +0.173 HD
ENDBRANCH  17  21
ENDBRANCH   1  17
TORSDOF 6
ENDMDL
MODEL 6
REMARK VINA RESULT:     -11.6      4.195      7.124
REMARK  Name = 448890
REMARK  6 active torsions:
REMARK  status: ('A' for Active; 'I' for Inactive)
REMARK    1  A    between atoms: C_1  and  C_2
REMARK    2  A    between atoms: C_1  and  C_17
REMARK    3  A    between atoms: C_2  and  C_3
REMARK    4  A    between atoms: C_3  and  N_4
REMARK    5  A    between atoms: C_8  and  C_11
REMARK    6  A    between atoms: C_17  and  N_21
REMARK                            x       y       z     vdW  Elec       q    Type
REMARK                         _______ _______ _______ _____ _____    ______ ____
ROOT
ATOM      1  C   UNL     1      36.586 -19.314 -20.901  0.00  0.00    +0.022 C 
ENDROOT
BRANCH   1   2
ATOM      2  C   UNL     1      36.862 -20.190 -19.675  0.00  0.00    -0.021 C 
BRANCH   2   3
ATOM      3  C   UNL     1      36.218 -21.567 -19.827  0.00  0.00    -0.077 C 
BRANCH   3   4
ATOM      4  N   UNL     1      35.317 -21.831 -18.706  0.00  0.00    +0.390 N 
ATOM      5  C   UNL     1      34.260 -22.773 -19.088  0.00  0.00    -0.072 C 
ATOM      6  C   UNL     1      36.065 -22.334 -17.544  0.00  0.00    -0.051 C 
ATOM      7  C   UNL     1      33.238 -22.901 -17.949  0.00  0.00    +0.003 C 
ATOM      8  C   UNL     1      33.884 -23.123 -16.599  0.00  0.00    -0.031 C 
ATOM      9  C   UNL     1      35.194 -22.856 -16.433  0.00  0.00    -0.053 C 
ATOM     10  H   UNL     1      34.873 -20.950 -18.447  0.00  0.00    -0.079 HD
BRANCH   8  11
ATOM     11  C   UNL     1      33.040 -23.627 -15.490  0.00  0.00    -0.004 C 
ATOM     12  C   UNL     1      31.655 -23.448 -15.525  0.00  0.00    -0.000 C 
ATOM     13  C   UNL     1      33.626 -24.284 -14.405  0.00  0.00    -0.000 C 
ATOM     14  C   UNL     1      30.861 -23.923 -14.481  0.00  0.00    -0.000 C 
ATOM     15  C   UNL     1      32.832 -24.758 -13.361  0.00  0.00    -0.000 C 
ATOM     16  C   UNL     1      31.450 -24.578 -13.399  0.00  0.00    -0.000 C 
ENDBRANCH   8  11
ENDBRANCH   3   4
ENDBRANCH   2   3
ENDBRANCH   1   2
BRANCH   1  17
ATOM     17  C   UNL     1      35.121 -18.901 -21.009  0.00  0.00    +0.110 C 
BRANCH  17  21
ATOM     18  F   UNL     1      34.052 -13.702 -24.097  0.00  0.00    -0.204 F 
ATOM     19  O   UNL     1      34.900 -19.915 -23.626  0.00  0.00    -0.246 OA
ATOM     20  O   UNL     1      34.132 -15.811 -25.495  0.00  0.00    -0.267 OA
ATOM     21  N   UNL     1      34.860 -18.081 -22.189  0.00  0.00    -0.281 N 
ATOM     22  N   UNL     1      34.520 -17.853 -24.518  0.00  0.00    -0.274 N 
ATOM     23  C   UNL     1      34.701 -16.668 -22.035  0.00  0.00    +0.071 A 
ATOM     24  C   UNL     1      34.771 -18.701 -23.442  0.00  0.00    +0.330 A 
ATOM     25  C   UNL     1      34.451 -15.865 -23.155  0.00  0.00    +0.099 A 
ATOM     26  C   UNL     1      34.790 -16.041 -20.781  0.00  0.00    +0.018 C 
ATOM     27  C   UNL     1      34.350 -16.480 -24.490  0.00  0.00    +0.265 A 
ATOM     28  C   UNL     1      34.293 -14.478 -23.031  0.00  0.00    +0.146 C 
ATOM     29  C   UNL     1      34.632 -14.658 -20.655  0.00  0.00    +0.004 C 
ATOM     30  C   UNL     1      34.383 -13.877 -21.779  0.00  0.00    +0.030 C 
ATOM     31  H   UNL     1      34.456 -18.280 -25.404  0.00  0.00    +0.173 HD
ENDBRANCH  17  21
ENDBRANCH   1  17
TORSDOF 6
ENDMDL
MODEL 7
REMARK VINA RESULT:     -11.5      4.323      7.502
REMARK  Name = 448890
REMARK  6 active torsions:
REMARK  status: ('A' for Active; 'I' for Inactive)
REMARK    1  A    between atoms: C_1  and  C_2
REMARK    2  A    between atoms: C_1  and  C_17
REMARK    3  A    between atoms: C_2  and  C_3
REMARK    4  A    between atoms: C_3  and  N_4
REMARK    5  A    between atoms: C_8  and  C_11
REMARK    6  A    between atoms: C_17  and  N_21
REMARK                            x       y       z     vdW  Elec       q    Type
REMARK                         _______ _______ _______ _____ _____    ______ ____
ROOT
ATOM      1  C   UNL     1      34.023 -19.988 -20.628  0.00  0.00    +0.022 C 
ENDROOT
BRANCH   1   2
ATOM      2  C   UNL     1      34.362 -21.275 -19.867  0.00  0.00    -0.021 C 
BRANCH   2   3
ATOM      3  C   UNL     1      35.845 -21.322 -19.502  0.00  0.00    -0.077 C 
BRANCH   3   4
ATOM      4  N   UNL     1      36.046 -22.135 -18.304  0.00  0.00    +0.390 N 
ATOM      5  C   UNL     1      36.870 -21.429 -17.319  0.00  0.00    -0.072 C 
ATOM      6  C   UNL     1      34.756 -22.525 -17.717  0.00  0.00    -0.051 C 
ATOM      7  C   UNL     1      37.202 -22.366 -16.148  0.00  0.00    +0.003 C 
ATOM      8  C   UNL     1      35.990 -23.096 -15.614  0.00  0.00    -0.031 C 
ATOM      9  C   UNL     1      34.866 -23.157 -16.355  0.00  0.00    -0.053 C 
ATOM     10  H   UNL     1      36.543 -22.982 -18.580  0.00  0.00    -0.079 HD
BRANCH   8  11
ATOM     11  C   UNL     1      36.083 -23.734 -14.279  0.00  0.00    -0.004 C 
ATOM     12  C   UNL     1      34.923 -24.046 -13.568  0.00  0.00    -0.000 C 
ATOM     13  C   UNL     1      37.334 -24.026 -13.729  0.00  0.00    -0.000 C 
ATOM     14  C   UNL     1      35.011 -24.646 -12.312  0.00  0.00    -0.000 C 
ATOM     15  C   UNL     1      37.422 -24.627 -12.472  0.00  0.00    -0.000 C 
ATOM     16  C   UNL     1      36.261 -24.937 -11.764  0.00  0.00    -0.000 C 
ENDBRANCH   8  11
ENDBRANCH   3   4
ENDBRANCH   2   3
ENDBRANCH   1   2
BRANCH   1  17
ATOM     17  C   UNL     1      35.265 -19.262 -21.136  0.00  0.00    +0.110 C 
BRANCH  17  21
ATOM     18  F   UNL     1      34.049 -13.911 -23.891  0.00  0.00    -0.204 F 
ATOM     19  O   UNL     1      35.026 -20.121 -23.807  0.00  0.00    -0.246 OA
ATOM     20  O   UNL     1      34.151 -15.929 -25.415  0.00  0.00    -0.267 OA
ATOM     21  N   UNL     1      34.971 -18.378 -22.261  0.00  0.00    -0.281 N 
ATOM     22  N   UNL     1      34.593 -18.018 -24.568  0.00  0.00    -0.274 N 
ATOM     23  C   UNL     1      34.786 -16.981 -22.021  0.00  0.00    +0.071 A 
ATOM     24  C   UNL     1      34.876 -18.924 -23.548  0.00  0.00    +0.330 A 
ATOM     25  C   UNL     1      34.504 -16.118 -23.086  0.00  0.00    +0.099 A 
ATOM     26  C   UNL     1      34.880 -16.428 -20.732  0.00  0.00    +0.018 C 
ATOM     27  C   UNL     1      34.396 -16.652 -24.455  0.00  0.00    +0.265 A 
ATOM     28  C   UNL     1      34.320 -14.744 -22.877  0.00  0.00    +0.146 C 
ATOM     29  C   UNL     1      34.696 -15.059 -20.520  0.00  0.00    +0.004 C 
ATOM     30  C   UNL     1      34.416 -14.217 -21.592  0.00  0.00    +0.030 C 
ATOM     31  H   UNL     1      34.525 -18.392 -25.477  0.00  0.00    +0.173 HD
ENDBRANCH  17  21
ENDBRANCH   1  17
TORSDOF 6
ENDMDL
MODEL 8
REMARK VINA RESULT:     -11.5      1.529      2.147
REMARK  Name = 448890
REMARK  6 active torsions:
REMARK  status: ('A' for Active; 'I' for Inactive)
REMARK    1  A    between atoms: C_1  and  C_2
REMARK    2  A    between atoms: C_1  and  C_17
REMARK    3  A    between atoms: C_2  and  C_3
REMARK    4  A    between atoms: C_3  and  N_4
REMARK    5  A    between atoms: C_8  and  C_11
REMARK    6  A    between atoms: C_17  and  N_21
REMARK                            x       y       z     vdW  Elec       q    Type
REMARK                         _______ _______ _______ _____ _____    ______ ____
ROOT
ATOM      1  C   UNL     1      32.344 -11.731 -22.966  0.00  0.00    +0.022 C 
ENDROOT
BRANCH   1   2
ATOM      2  C   UNL     1      32.802 -13.147 -22.601  0.00  0.00    -0.021 C 
BRANCH   2   3
ATOM      3  C   UNL     1      34.125 -13.491 -23.285  0.00  0.00    -0.077 C 
BRANCH   3   4
ATOM      4  N   UNL     1      34.699 -14.701 -22.699  0.00  0.00    +0.390 N 
ATOM      5  C   UNL     1      34.115 -14.978 -21.383  0.00  0.00    -0.072 C 
ATOM      6  C   UNL     1      34.520 -15.851 -23.598  0.00  0.00    -0.051 C 
ATOM      7  C   UNL     1      34.853 -16.152 -20.722  0.00  0.00    +0.003 C 
ATOM      8  C   UNL     1      35.025 -17.337 -21.646  0.00  0.00    -0.031 C 
ATOM      9  C   UNL     1      34.865 -17.177 -22.975  0.00  0.00    -0.053 C 
ATOM     10  H   UNL     1      35.699 -14.544 -22.572  0.00  0.00    -0.079 HD
BRANCH   8  11
ATOM     11  C   UNL     1      35.374 -18.649 -21.052  0.00  0.00    -0.004 C 
ATOM     12  C   UNL     1      34.374 -19.582 -20.775  0.00  0.00    -0.000 C 
ATOM     13  C   UNL     1      36.707 -18.957 -20.768  0.00  0.00    -0.000 C 
ATOM     14  C   UNL     1      34.703 -20.817 -20.215  0.00  0.00    -0.000 C 
ATOM     15  C   UNL     1      37.036 -20.191 -20.209  0.00  0.00    -0.000 C 
ATOM     16  C   UNL     1      36.035 -21.122 -19.932  0.00  0.00    -0.000 C 
ENDBRANCH   8  11
ENDBRANCH   3   4
ENDBRANCH   2   3
ENDBRANCH   1   2
BRANCH   1  17
ATOM     17  C   UNL     1      31.291 -11.190 -22.004  0.00  0.00    +0.110 C 
BRANCH  17  21
ATOM     18  F   UNL     1      32.751  -5.326 -20.909  0.00  0.00    -0.204 F 
ATOM     19  O   UNL     1      32.228 -11.397 -19.358  0.00  0.00    -0.246 OA
ATOM     20  O   UNL     1      33.164  -6.934 -18.998  0.00  0.00    -0.267 OA
ATOM     21  N   UNL     1      31.784 -10.063 -21.216  0.00  0.00    -0.281 N 
ATOM     22  N   UNL     1      32.681  -9.168 -19.219  0.00  0.00    -0.274 N 
ATOM     23  C   UNL     1      31.805  -8.759 -21.801  0.00  0.00    +0.071 A 
ATOM     24  C   UNL     1      32.225 -10.291 -19.906  0.00  0.00    +0.330 A 
ATOM     25  C   UNL     1      32.274  -7.666 -21.061  0.00  0.00    +0.099 A 
ATOM     26  C   UNL     1      31.363  -8.524 -23.114  0.00  0.00    +0.018 C 
ATOM     27  C   UNL     1      32.747  -7.865 -19.680  0.00  0.00    +0.265 A 
ATOM     28  C   UNL     1      32.303  -6.377 -21.610  0.00  0.00    +0.146 C 
ATOM     29  C   UNL     1      31.392  -7.239 -23.665  0.00  0.00    +0.004 C 
ATOM     30  C   UNL     1      31.862  -6.167 -22.914  0.00  0.00    +0.030 C 
ATOM     31  H   UNL     1      32.993  -9.319 -18.297  0.00  0.00    +0.173 HD
ENDBRANCH  17  21
ENDBRANCH   1  17
TORSDOF 6
ENDMDL
MODEL 9
REMARK VINA RESULT:     -11.4      4.873     10.685
REMARK  Name = 448890
REMARK  6 active torsions:
REMARK  status: ('A' for Active; 'I' for Inactive)
REMARK    1  A    between atoms: C_1  and  C_2
REMARK    2  A    between atoms: C_1  and  C_17
REMARK    3  A    between atoms: C_2  and  C_3
REMARK    4  A    between atoms: C_3  and  N_4
REMARK    5  A    between atoms: C_8  and  C_11
REMARK    6  A    between atoms: C_17  and  N_21
REMARK                            x       y       z     vdW  Elec       q    Type
REMARK                         _______ _______ _______ _____ _____    ______ ____
ROOT
ATOM      1  C   UNL     1      35.092 -20.187 -20.408  0.00  0.00    +0.022 C 
ENDROOT
BRANCH   1   2
ATOM      2  C   UNL     1      36.199 -19.193 -20.777  0.00  0.00    -0.021 C 
BRANCH   2   3
ATOM      3  C   UNL     1      36.105 -18.786 -22.247  0.00  0.00    -0.077 C 
BRANCH   3   4
ATOM      4  N   UNL     1      35.701 -17.386 -22.360  0.00  0.00    +0.390 N 
ATOM      5  C   UNL     1      34.739 -17.200 -23.451  0.00  0.00    -0.072 C 
ATOM      6  C   UNL     1      35.143 -16.900 -21.088  0.00  0.00    -0.051 C 
ATOM      7  C   UNL     1      34.462 -15.702 -23.652  0.00  0.00    +0.003 C 
ATOM      8  C   UNL     1      34.163 -14.978 -22.359  0.00  0.00    -0.031 C 
ATOM      9  C   UNL     1      34.485 -15.550 -21.182  0.00  0.00    -0.053 C 
ATOM     10  H   UNL     1      36.532 -16.836 -22.578  0.00  0.00    -0.079 HD
BRANCH   8  11
ATOM     11  C   UNL     1      33.524 -13.642 -22.431  0.00  0.00    -0.004 C 
ATOM     12  C   UNL     1      33.969 -12.702 -23.362  0.00  0.00    -0.000 C 
ATOM     13  C   UNL     1      32.474 -13.320 -21.569  0.00  0.00    -0.000 C 
ATOM     14  C   UNL     1      33.368 -11.445 -23.431  0.00  0.00    -0.000 C 
ATOM     15  C   UNL     1      31.872 -12.063 -21.637  0.00  0.00    -0.000 C 
ATOM     16  C   UNL     1      32.319 -11.125 -22.568  0.00  0.00    -0.000 C 
ENDBRANCH   8  11
ENDBRANCH   3   4
ENDBRANCH   2   3
ENDBRANCH   1   2
BRANCH   1  17
ATOM     17  C   UNL     1      35.642 -21.505 -19.873  0.00  0.00    +0.110 C 
BRANCH  17  21
ATOM     18  F   UNL     1      34.482 -23.794 -14.294  0.00  0.00    -0.204 F 
ATOM     19  O   UNL     1      32.872 -21.959 -20.088  0.00  0.00    -0.246 OA
ATOM     20  O   UNL     1      32.485 -23.606 -15.838  0.00  0.00    -0.267 OA
ATOM     21  N   UNL     1      34.814 -22.060 -18.805  0.00  0.00    -0.281 N 
ATOM     22  N   UNL     1      32.721 -22.774 -17.966  0.00  0.00    -0.274 N 
ATOM     23  C   UNL     1      35.423 -22.405 -17.558  0.00  0.00    +0.071 A 
ATOM     24  C   UNL     1      33.443 -22.240 -19.031  0.00  0.00    +0.330 A 
ATOM     25  C   UNL     1      34.646 -22.938 -16.522  0.00  0.00    +0.099 A 
ATOM     26  C   UNL     1      36.797 -22.226 -17.326  0.00  0.00    +0.018 C 
ATOM     27  C   UNL     1      33.200 -23.143 -16.721  0.00  0.00    +0.265 A 
ATOM     28  C   UNL     1      35.218 -23.283 -15.291  0.00  0.00    +0.146 C 
ATOM     29  C   UNL     1      37.371 -22.571 -16.099  0.00  0.00    +0.004 C 
ATOM     30  C   UNL     1      36.582 -23.099 -15.082  0.00  0.00    +0.030 C 
ATOM     31  H   UNL     1      31.756 -22.903 -18.116  0.00  0.00    +0.173 HD
ENDBRANCH  17  21
ENDBRANCH   1  17
TORSDOF 6
ENDMDL
