MODEL 1
REMARK VINA RESULT:     -11.9      0.000      0.000
REMARK  Name = 16741245
REMARK  7 active torsions:
REMARK  status: ('A' for Active; 'I' for Inactive)
REMARK    1  A    between atoms: C_2  and  S_20
REMARK    2  A    between atoms: C_3  and  N_9
REMARK    3  A    between atoms: C_10  and  C_12
REMARK    4  A    between atoms: C_12  and  C_17
REMARK    5  A    between atoms: C_12  and  O_18
REMARK    6  A    between atoms: S_20  and  C_23
REMARK    7  A    between atoms: C_26  and  C_31
REMARK                            x       y       z     vdW  Elec       q    Type
REMARK                         _______ _______ _______ _____ _____    ______ ____
ROOT
ATOM      1 CL   UNL     1      33.522 -14.943 -24.761  0.00  0.00    -0.081 Cl
ATOM      2  C   UNL     1      35.318 -17.320 -22.102  0.00  0.00    +0.111 C 
ATOM      3  C   UNL     1      33.994 -14.883 -22.072  0.00  0.00    +0.061 C 
ATOM      4  C   UNL     1      34.806 -16.790 -23.286  0.00  0.00    +0.031 C 
ATOM      5  C   UNL     1      35.163 -16.624 -20.902  0.00  0.00    +0.020 C 
ATOM      6  C   UNL     1      34.141 -15.564 -23.271  0.00  0.00    +0.072 C 
ATOM      7  C   UNL     1      34.498 -15.399 -20.887  0.00  0.00    +0.017 C 
ENDROOT
BRANCH   3   9
ATOM      8  O   UNL     1      31.698 -13.991 -20.376  0.00  0.00    -0.272 OA
ATOM      9  N   UNL     1      33.324 -13.637 -22.023  0.00  0.00    -0.281 N 
ATOM     10  C   UNL     1      32.255 -13.279 -21.209  0.00  0.00    +0.259 C 
ATOM     11  H   UNL     1      33.653 -12.944 -22.638  0.00  0.00    +0.155 HD
BRANCH  10  12
ATOM     12  C   UNL     1      31.791 -11.830 -21.441  0.00  0.00    +0.245 C 
ATOM     13  C   UNL     1      32.652 -11.129 -22.492  0.00  0.00    +0.048 C 
BRANCH  12  17
ATOM     14  F   UNL     1      32.336 -11.701 -19.124  0.00  0.00    -0.167 F 
ATOM     15  F   UNL     1      30.466 -10.793 -19.769  0.00  0.00    -0.167 F 
ATOM     16  F   UNL     1      32.364  -9.845 -20.270  0.00  0.00    -0.167 F 
ATOM     17  C   UNL     1      31.744 -11.039 -20.141  0.00  0.00    +0.427 C 
ENDBRANCH  12  17
BRANCH  12  18
ATOM     18  O   UNL     1      30.453 -11.890 -21.937  0.00  0.00    -0.372 OA
ATOM     19  H   UNL     1      30.018 -11.034 -21.797  0.00  0.00    +0.211 HD
ENDBRANCH  12  18
ENDBRANCH  10  12
ENDBRANCH   3   9
BRANCH   2  20
ATOM     20  S   UNL     1      36.150 -18.854 -22.120  0.00  0.00    +0.027 S 
ATOM     21  O   UNL     1      37.507 -18.667 -21.623  0.00  0.00    -0.164 OA
ATOM     22  O   UNL     1      35.937 -19.421 -23.444  0.00  0.00    -0.164 OA
BRANCH  20  23
ATOM     23  C   UNL     1      35.375 -19.928 -20.941  0.00  0.00    +0.110 C 
ATOM     24  C   UNL     1      36.168 -20.730 -20.142  0.00  0.00    +0.019 C 
ATOM     25  C   UNL     1      33.996 -19.939 -20.849  0.00  0.00    +0.019 C 
ATOM     26  C   UNL     1      34.168 -21.604 -19.106  0.00  0.00    +0.054 C 
ATOM     27  C   UNL     1      35.558 -21.576 -19.217  0.00  0.00    +0.006 C 
ATOM     28  C   UNL     1      33.387 -20.785 -19.922  0.00  0.00    +0.006 C 
BRANCH  26  31
ATOM     29  O   UNL     1      32.344 -22.771 -18.337  0.00  0.00    -0.270 OA
ATOM     30  N   UNL     1      34.282 -22.946 -17.043  0.00  0.00    -0.273 N 
ATOM     31  C   UNL     1      33.532 -22.485 -18.140  0.00  0.00    +0.249 C 
ATOM     32  C   UNL     1      35.684 -22.582 -16.850  0.00  0.00    +0.115 C 
ATOM     33  C   UNL     1      33.712 -23.817 -16.025  0.00  0.00    +0.115 C 
ENDBRANCH  26  31
ENDBRANCH  20  23
ENDBRANCH   2  20
TORSDOF 7
ENDMDL
MODEL 2
REMARK VINA RESULT:     -11.4      2.848      4.048
REMARK  Name = 16741245
REMARK  7 active torsions:
REMARK  status: ('A' for Active; 'I' for Inactive)
REMARK    1  A    between atoms: C_2  and  S_20
REMARK    2  A    between atoms: C_3  and  N_9
REMARK    3  A    between atoms: C_10  and  C_12
REMARK    4  A    between atoms: C_12  and  C_17
REMARK    5  A    between atoms: C_12  and  O_18
REMARK    6  A    between atoms: S_20  and  C_23
REMARK    7  A    between atoms: C_26  and  C_31
REMARK                            x       y       z     vdW  Elec       q    Type
REMARK                         _______ _______ _______ _____ _____    ______ ____
ROOT
ATOM      1 CL   UNL     1      32.711 -13.547 -20.299  0.00  0.00    -0.081 Cl
ATOM      2  C   UNL     1      33.727 -14.834 -23.939  0.00  0.00    +0.111 C 
ATOM      3  C   UNL     1      32.908 -12.447 -22.790  0.00  0.00    +0.061 C 
ATOM      4  C   UNL     1      33.453 -14.776 -22.573  0.00  0.00    +0.031 C 
ATOM      5  C   UNL     1      33.590 -13.691 -24.727  0.00  0.00    +0.020 C 
ATOM      6  C   UNL     1      33.041 -13.575 -21.995  0.00  0.00    +0.072 C 
ATOM      7  C   UNL     1      33.177 -12.491 -24.150  0.00  0.00    +0.017 C 
ENDROOT
BRANCH   3   9
ATOM      8  O   UNL     1      33.892  -9.669 -23.300  0.00  0.00    -0.272 OA
ATOM      9  N   UNL     1      32.492 -11.214 -22.235  0.00  0.00    -0.281 N 
ATOM     10  C   UNL     1      32.991  -9.946 -22.511  0.00  0.00    +0.259 C 
ATOM     11  H   UNL     1      31.764 -11.259 -21.574  0.00  0.00    +0.155 HD
BRANCH  10  12
ATOM     12  C   UNL     1      32.284  -8.840 -21.706  0.00  0.00    +0.245 C 
ATOM     13  C   UNL     1      31.599  -9.406 -20.462  0.00  0.00    +0.048 C 
BRANCH  12  17
ATOM     14  F   UNL     1      31.933  -7.411 -23.582  0.00  0.00    -0.167 F 
ATOM     15  F   UNL     1      30.663  -7.113 -21.839  0.00  0.00    -0.167 F 
ATOM     16  F   UNL     1      30.370  -8.859 -23.112  0.00  0.00    -0.167 F 
ATOM     17  C   UNL     1      31.310  -8.052 -22.570  0.00  0.00    +0.427 C 
ENDBRANCH  12  17
BRANCH  12  18
ATOM     18  O   UNL     1      33.290  -7.923 -21.276  0.00  0.00    -0.372 OA
ATOM     19  H   UNL     1      32.874  -7.084 -21.020  0.00  0.00    +0.211 HD
ENDBRANCH  12  18
ENDBRANCH  10  12
ENDBRANCH   3   9
BRANCH   2  20
ATOM     20  S   UNL     1      34.244 -16.337 -24.663  0.00  0.00    +0.027 S 
ATOM     21  O   UNL     1      35.504 -16.121 -25.361  0.00  0.00    -0.164 OA
ATOM     22  O   UNL     1      33.095 -16.858 -25.391  0.00  0.00    -0.164 OA
BRANCH  20  23
ATOM     23  C   UNL     1      34.627 -17.483 -23.366  0.00  0.00    +0.110 C 
ATOM     24  C   UNL     1      34.353 -18.823 -23.554  0.00  0.00    +0.019 C 
ATOM     25  C   UNL     1      35.191 -17.008 -22.197  0.00  0.00    +0.019 C 
ATOM     26  C   UNL     1      35.222 -19.269 -21.344  0.00  0.00    +0.054 C 
ATOM     27  C   UNL     1      34.652 -19.725 -22.533  0.00  0.00    +0.006 C 
ATOM     28  C   UNL     1      35.492 -17.911 -21.177  0.00  0.00    +0.006 C 
BRANCH  26  31
ATOM     29  O   UNL     1      36.723 -20.291 -19.937  0.00  0.00    -0.270 OA
ATOM     30  N   UNL     1      34.498 -20.973 -19.718  0.00  0.00    -0.273 N 
ATOM     31  C   UNL     1      35.536 -20.209 -20.281  0.00  0.00    +0.249 C 
ATOM     32  C   UNL     1      33.110 -20.843 -20.157  0.00  0.00    +0.115 C 
ATOM     33  C   UNL     1      34.736 -21.947 -18.662  0.00  0.00    +0.115 C 
ENDBRANCH  26  31
ENDBRANCH  20  23
ENDBRANCH   2  20
TORSDOF 7
ENDMDL
MODEL 3
REMARK VINA RESULT:     -11.2      2.572      3.927
REMARK  Name = 16741245
REMARK  7 active torsions:
REMARK  status: ('A' for Active; 'I' for Inactive)
REMARK    1  A    between atoms: C_2  and  S_20
REMARK    2  A    between atoms: C_3  and  N_9
REMARK    3  A    between atoms: C_10  and  C_12
REMARK    4  A    between atoms: C_12  and  C_17
REMARK    5  A    between atoms: C_12  and  O_18
REMARK    6  A    between atoms: S_20  and  C_23
REMARK    7  A    between atoms: C_26  and  C_31
REMARK                            x       y       z     vdW  Elec       q    Type
REMARK                         _______ _______ _______ _____ _____    ______ ____
ROOT
ATOM      1 CL   UNL     1      32.632 -13.538 -20.255  0.00  0.00    -0.081 Cl
ATOM      2  C   UNL     1      33.704 -14.722 -23.915  0.00  0.00    +0.111 C 
ATOM      3  C   UNL     1      32.758 -12.399 -22.733  0.00  0.00    +0.061 C 
ATOM      4  C   UNL     1      33.432 -14.696 -22.547  0.00  0.00    +0.031 C 
ATOM      5  C   UNL     1      33.500 -13.579 -24.688  0.00  0.00    +0.020 C 
ATOM      6  C   UNL     1      32.956 -13.527 -21.953  0.00  0.00    +0.072 C 
ATOM      7  C   UNL     1      33.024 -12.411 -24.094  0.00  0.00    +0.017 C 
ENDROOT
BRANCH   3   9
ATOM      8  O   UNL     1      33.641  -9.572 -23.148  0.00  0.00    -0.272 OA
ATOM      9  N   UNL     1      32.276 -11.197 -22.161  0.00  0.00    -0.281 N 
ATOM     10  C   UNL     1      32.730  -9.904 -22.392  0.00  0.00    +0.259 C 
ATOM     11  H   UNL     1      31.533 -11.288 -21.523  0.00  0.00    +0.155 HD
BRANCH  10  12
ATOM     12  C   UNL     1      31.956  -8.847 -21.583  0.00  0.00    +0.245 C 
ATOM     13  C   UNL     1      31.019  -8.035 -22.477  0.00  0.00    +0.048 C 
BRANCH  12  17
ATOM     14  F   UNL     1      34.023  -7.664 -21.480  0.00  0.00    -0.167 F 
ATOM     15  F   UNL     1      33.268  -8.531 -19.632  0.00  0.00    -0.167 F 
ATOM     16  F   UNL     1      32.301  -6.772 -20.481  0.00  0.00    -0.167 F 
ATOM     17  C   UNL     1      32.895  -7.946 -20.794  0.00  0.00    +0.427 C 
ENDBRANCH  12  17
BRANCH  12  18
ATOM     18  O   UNL     1      31.158  -9.548 -20.629  0.00  0.00    -0.372 OA
ATOM     19  H   UNL     1      31.728  -9.896 -19.924  0.00  0.00    +0.211 HD
ENDBRANCH  12  18
ENDBRANCH  10  12
ENDBRANCH   3   9
BRANCH   2  20
ATOM     20  S   UNL     1      34.300 -16.184 -24.659  0.00  0.00    +0.027 S 
ATOM     21  O   UNL     1      35.592 -15.913 -25.275  0.00  0.00    -0.164 OA
ATOM     22  O   UNL     1      33.208 -16.707 -25.469  0.00  0.00    -0.164 OA
BRANCH  20  23
ATOM     23  C   UNL     1      34.640 -17.367 -23.382  0.00  0.00    +0.110 C 
ATOM     24  C   UNL     1      34.407 -18.706 -23.630  0.00  0.00    +0.019 C 
ATOM     25  C   UNL     1      35.127 -16.921 -22.168  0.00  0.00    +0.019 C 
ATOM     26  C   UNL     1      35.165 -19.209 -21.392  0.00  0.00    +0.054 C 
ATOM     27  C   UNL     1      34.672 -19.636 -22.625  0.00  0.00    +0.006 C 
ATOM     28  C   UNL     1      35.394 -17.852 -21.164  0.00  0.00    +0.006 C 
BRANCH  26  31
ATOM     29  O   UNL     1      36.627 -20.321 -20.011  0.00  0.00    -0.270 OA
ATOM     30  N   UNL     1      34.375 -20.904 -19.787  0.00  0.00    -0.273 N 
ATOM     31  C   UNL     1      35.444 -20.179 -20.345  0.00  0.00    +0.249 C 
ATOM     32  C   UNL     1      32.992 -20.704 -20.214  0.00  0.00    +0.115 C 
ATOM     33  C   UNL     1      34.575 -21.903 -18.747  0.00  0.00    +0.115 C 
ENDBRANCH  26  31
ENDBRANCH  20  23
ENDBRANCH   2  20
TORSDOF 7
ENDMDL
MODEL 4
REMARK VINA RESULT:     -10.4      6.152     10.074
REMARK  Name = 16741245
REMARK  7 active torsions:
REMARK  status: ('A' for Active; 'I' for Inactive)
REMARK    1  A    between atoms: C_2  and  S_20
REMARK    2  A    between atoms: C_3  and  N_9
REMARK    3  A    between atoms: C_10  and  C_12
REMARK    4  A    between atoms: C_12  and  C_17
REMARK    5  A    between atoms: C_12  and  O_18
REMARK    6  A    between atoms: S_20  and  C_23
REMARK    7  A    between atoms: C_26  and  C_31
REMARK                            x       y       z     vdW  Elec       q    Type
REMARK                         _______ _______ _______ _____ _____    ______ ____
ROOT
ATOM      1 CL   UNL     1      34.366 -24.281 -15.225  0.00  0.00    -0.081 Cl
ATOM      2  C   UNL     1      35.089 -21.984 -18.410  0.00  0.00    +0.111 C 
ATOM      3  C   UNL     1      32.875 -23.146 -17.211  0.00  0.00    +0.061 C 
ATOM      4  C   UNL     1      35.243 -22.752 -17.256  0.00  0.00    +0.031 C 
ATOM      5  C   UNL     1      33.820 -21.800 -18.960  0.00  0.00    +0.020 C 
ATOM      6  C   UNL     1      34.130 -23.337 -16.653  0.00  0.00    +0.072 C 
ATOM      7  C   UNL     1      32.707 -22.385 -18.357  0.00  0.00    +0.017 C 
ENDROOT
BRANCH   3   9
ATOM      8  O   UNL     1      31.500 -22.519 -14.630  0.00  0.00    -0.272 OA
ATOM      9  N   UNL     1      31.725 -23.726 -16.623  0.00  0.00    -0.281 N 
ATOM     10  C   UNL     1      31.128 -23.391 -15.413  0.00  0.00    +0.259 C 
ATOM     11  H   UNL     1      31.298 -24.452 -17.131  0.00  0.00    +0.155 HD
BRANCH  10  12
ATOM     12  C   UNL     1      29.887 -24.248 -15.104  0.00  0.00    +0.245 C 
ATOM     13  C   UNL     1      28.625 -23.389 -15.015  0.00  0.00    +0.048 C 
BRANCH  12  17
ATOM     14  F   UNL     1      30.345 -24.325 -12.766  0.00  0.00    -0.167 F 
ATOM     15  F   UNL     1      31.114 -25.948 -13.996  0.00  0.00    -0.167 F 
ATOM     16  F   UNL     1      28.979 -25.821 -13.574  0.00  0.00    -0.167 F 
ATOM     17  C   UNL     1      30.080 -25.087 -13.849  0.00  0.00    +0.427 C 
ENDBRANCH  12  17
BRANCH  12  18
ATOM     18  O   UNL     1      29.723 -25.160 -16.190  0.00  0.00    -0.372 OA
ATOM     19  H   UNL     1      29.210 -25.928 -15.892  0.00  0.00    +0.211 HD
ENDBRANCH  12  18
ENDBRANCH  10  12
ENDBRANCH   3   9
BRANCH   2  20
ATOM     20  S   UNL     1      36.482 -21.251 -19.165  0.00  0.00    +0.027 S 
ATOM     21  O   UNL     1      37.272 -22.287 -19.816  0.00  0.00    -0.164 OA
ATOM     22  O   UNL     1      37.097 -20.402 -18.154  0.00  0.00    -0.164 OA
BRANCH  20  23
ATOM     23  C   UNL     1      35.922 -20.205 -20.482  0.00  0.00    +0.110 C 
ATOM     24  C   UNL     1      34.644 -20.378 -20.978  0.00  0.00    +0.019 C 
ATOM     25  C   UNL     1      36.776 -19.242 -20.983  0.00  0.00    +0.019 C 
ATOM     26  C   UNL     1      35.049 -18.578 -22.537  0.00  0.00    +0.054 C 
ATOM     27  C   UNL     1      34.204 -19.557 -22.016  0.00  0.00    +0.006 C 
ATOM     28  C   UNL     1      36.335 -18.420 -22.020  0.00  0.00    +0.006 C 
BRANCH  26  31
ATOM     29  O   UNL     1      34.335 -18.267 -24.698  0.00  0.00    -0.270 OA
ATOM     30  N   UNL     1      34.475 -16.337 -23.388  0.00  0.00    -0.273 N 
ATOM     31  C   UNL     1      34.590 -17.720 -23.618  0.00  0.00    +0.249 C 
ATOM     32  C   UNL     1      34.787 -15.734 -22.094  0.00  0.00    +0.115 C 
ATOM     33  C   UNL     1      34.037 -15.413 -24.424  0.00  0.00    +0.115 C 
ENDBRANCH  26  31
ENDBRANCH  20  23
ENDBRANCH   2  20
TORSDOF 7
ENDMDL
MODEL 5
REMARK VINA RESULT:     -10.2      4.622     11.032
REMARK  Name = 16741245
REMARK  7 active torsions:
REMARK  status: ('A' for Active; 'I' for Inactive)
REMARK    1  A    between atoms: C_2  and  S_20
REMARK    2  A    between atoms: C_3  and  N_9
REMARK    3  A    between atoms: C_10  and  C_12
REMARK    4  A    between atoms: C_12  and  C_17
REMARK    5  A    between atoms: C_12  and  O_18
REMARK    6  A    between atoms: S_20  and  C_23
REMARK    7  A    between atoms: C_26  and  C_31
REMARK                            x       y       z     vdW  Elec       q    Type
REMARK                         _______ _______ _______ _____ _____    ______ ____
ROOT
ATOM      1 CL   UNL     1      33.446 -14.088 -24.518  0.00  0.00    -0.081 Cl
ATOM      2  C   UNL     1      32.282 -12.372 -21.106  0.00  0.00    +0.111 C 
ATOM      3  C   UNL     1      33.567 -14.710 -21.862  0.00  0.00    +0.061 C 
ATOM      4  C   UNL     1      32.522 -12.630 -22.455  0.00  0.00    +0.031 C 
ATOM      5  C   UNL     1      32.689 -13.289 -20.137  0.00  0.00    +0.020 C 
ATOM      6  C   UNL     1      33.168 -13.807 -22.835  0.00  0.00    +0.072 C 
ATOM      7  C   UNL     1      33.334 -14.465 -20.517  0.00  0.00    +0.017 C 
ENDROOT
BRANCH   3   9
ATOM      8  O   UNL     1      35.048 -16.672 -20.159  0.00  0.00    -0.272 OA
ATOM      9  N   UNL     1      34.225 -15.913 -22.214  0.00  0.00    -0.281 N 
ATOM     10  C   UNL     1      34.902 -16.789 -21.374  0.00  0.00    +0.259 C 
ATOM     11  H   UNL     1      34.201 -16.156 -23.167  0.00  0.00    +0.155 HD
BRANCH  10  12
ATOM     12  C   UNL     1      35.493 -17.996 -22.124  0.00  0.00    +0.245 C 
ATOM     13  C   UNL     1      35.104 -17.979 -23.603  0.00  0.00    +0.048 C 
BRANCH  12  17
ATOM     14  F   UNL     1      33.962 -19.209 -20.757  0.00  0.00    -0.167 F 
ATOM     15  F   UNL     1      36.072 -19.722 -20.604  0.00  0.00    -0.167 F 
ATOM     16  F   UNL     1      34.940 -20.292 -22.378  0.00  0.00    -0.167 F 
ATOM     17  C   UNL     1      35.109 -19.312 -21.462  0.00  0.00    +0.427 C 
ENDBRANCH  12  17
BRANCH  12  18
ATOM     18  O   UNL     1      36.914 -17.891 -22.041  0.00  0.00    -0.372 OA
ATOM     19  H   UNL     1      37.282 -17.786 -22.932  0.00  0.00    +0.211 HD
ENDBRANCH  12  18
ENDBRANCH  10  12
ENDBRANCH   3   9
BRANCH   2  20
ATOM     20  S   UNL     1      31.474 -10.899 -20.630  0.00  0.00    +0.027 S 
ATOM     21  O   UNL     1      31.804 -10.601 -19.242  0.00  0.00    -0.164 OA
ATOM     22  O   UNL     1      30.080 -11.050 -21.024  0.00  0.00    -0.164 OA
BRANCH  20  23
ATOM     23  C   UNL     1      32.158  -9.556 -21.563  0.00  0.00    +0.110 C 
ATOM     24  C   UNL     1      32.170  -9.636 -22.942  0.00  0.00    +0.019 C 
ATOM     25  C   UNL     1      32.664  -8.460 -20.889  0.00  0.00    +0.019 C 
ATOM     26  C   UNL     1      33.226  -7.465 -23.018  0.00  0.00    +0.054 C 
ATOM     27  C   UNL     1      32.710  -8.580 -23.676  0.00  0.00    +0.006 C 
ATOM     28  C   UNL     1      33.202  -7.404 -21.624  0.00  0.00    +0.006 C 
BRANCH  26  31
ATOM     29  O   UNL     1      35.018  -6.343 -23.919  0.00  0.00    -0.270 OA
ATOM     30  N   UNL     1      32.921  -5.387 -24.308  0.00  0.00    -0.273 N 
ATOM     31  C   UNL     1      33.787  -6.363 -23.783  0.00  0.00    +0.249 C 
ATOM     32  C   UNL     1      31.473  -5.451 -24.122  0.00  0.00    +0.115 C 
ATOM     33  C   UNL     1      33.408  -4.247 -25.071  0.00  0.00    +0.115 C 
ENDBRANCH  26  31
ENDBRANCH  20  23
ENDBRANCH   2  20
TORSDOF 7
ENDMDL
MODEL 6
REMARK VINA RESULT:     -10.2      4.692      9.391
REMARK  Name = 16741245
REMARK  7 active torsions:
REMARK  status: ('A' for Active; 'I' for Inactive)
REMARK    1  A    between atoms: C_2  and  S_20
REMARK    2  A    between atoms: C_3  and  N_9
REMARK    3  A    between atoms: C_10  and  C_12
REMARK    4  A    between atoms: C_12  and  C_17
REMARK    5  A    between atoms: C_12  and  O_18
REMARK    6  A    between atoms: S_20  and  C_23
REMARK    7  A    between atoms: C_26  and  C_31
REMARK                            x       y       z     vdW  Elec       q    Type
REMARK                         _______ _______ _______ _____ _____    ______ ____
ROOT
ATOM      1 CL   UNL     1      36.167 -22.037 -18.092  0.00  0.00    -0.081 Cl
ATOM      2  C   UNL     1      34.872 -20.023 -21.287  0.00  0.00    +0.111 C 
ATOM      3  C   UNL     1      33.738 -21.321 -19.115  0.00  0.00    +0.061 C 
ATOM      4  C   UNL     1      35.689 -20.636 -20.337  0.00  0.00    +0.031 C 
ATOM      5  C   UNL     1      33.485 -20.062 -21.143  0.00  0.00    +0.020 C 
ATOM      6  C   UNL     1      35.118 -21.290 -19.245  0.00  0.00    +0.072 C 
ATOM      7  C   UNL     1      32.915 -20.716 -20.052  0.00  0.00    +0.017 C 
ENDROOT
BRANCH   3   9
ATOM      8  O   UNL     1      33.750 -24.210 -18.341  0.00  0.00    -0.272 OA
ATOM      9  N   UNL     1      33.128 -21.977 -18.018  0.00  0.00    -0.281 N 
ATOM     10  C   UNL     1      33.168 -23.331 -17.709  0.00  0.00    +0.259 C 
ATOM     11  H   UNL     1      32.615 -21.405 -17.403  0.00  0.00    +0.155 HD
BRANCH  10  12
ATOM     12  C   UNL     1      32.379 -23.673 -16.431  0.00  0.00    +0.245 C 
ATOM     13  C   UNL     1      31.080 -22.871 -16.346  0.00  0.00    +0.048 C 
BRANCH  12  17
ATOM     14  F   UNL     1      33.566 -24.674 -14.622  0.00  0.00    -0.167 F 
ATOM     15  F   UNL     1      32.565 -22.778 -14.243  0.00  0.00    -0.167 F 
ATOM     16  F   UNL     1      34.375 -22.828 -15.458  0.00  0.00    -0.167 F 
ATOM     17  C   UNL     1      33.229 -23.492 -15.181  0.00  0.00    +0.427 C 
ENDBRANCH  12  17
BRANCH  12  18
ATOM     18  O   UNL     1      32.040 -25.057 -16.503  0.00  0.00    -0.372 OA
ATOM     19  H   UNL     1      31.461 -25.208 -17.267  0.00  0.00    +0.211 HD
ENDBRANCH  12  18
ENDBRANCH  10  12
ENDBRANCH   3   9
BRANCH   2  20
ATOM     20  S   UNL     1      35.585 -19.204 -22.654  0.00  0.00    +0.027 S 
ATOM     21  O   UNL     1      35.055 -19.777 -23.884  0.00  0.00    -0.164 OA
ATOM     22  O   UNL     1      37.023 -19.194 -22.422  0.00  0.00    -0.164 OA
BRANCH  20  23
ATOM     23  C   UNL     1      35.027 -17.521 -22.655  0.00  0.00    +0.110 C 
ATOM     24  C   UNL     1      34.562 -16.970 -23.833  0.00  0.00    +0.019 C 
ATOM     25  C   UNL     1      35.071 -16.799 -21.477  0.00  0.00    +0.019 C 
ATOM     26  C   UNL     1      34.160 -14.898 -22.658  0.00  0.00    +0.054 C 
ATOM     27  C   UNL     1      34.124 -15.646 -23.835  0.00  0.00    +0.006 C 
ATOM     28  C   UNL     1      34.632 -15.475 -21.479  0.00  0.00    +0.006 C 
BRANCH  26  31
ATOM     29  O   UNL     1      34.186 -12.767 -23.516  0.00  0.00    -0.270 OA
ATOM     30  N   UNL     1      32.760 -13.112 -21.696  0.00  0.00    -0.273 N 
ATOM     31  C   UNL     1      33.702 -13.518 -22.659  0.00  0.00    +0.249 C 
ATOM     32  C   UNL     1      32.215 -14.034 -20.703  0.00  0.00    +0.115 C 
ATOM     33  C   UNL     1      32.267 -11.744 -21.623  0.00  0.00    +0.115 C 
ENDBRANCH  26  31
ENDBRANCH  20  23
ENDBRANCH   2  20
TORSDOF 7
ENDMDL
MODEL 7
REMARK VINA RESULT:     -10.2      5.526      9.729
REMARK  Name = 16741245
REMARK  7 active torsions:
REMARK  status: ('A' for Active; 'I' for Inactive)
REMARK    1  A    between atoms: C_2  and  S_20
REMARK    2  A    between atoms: C_3  and  N_9
REMARK    3  A    between atoms: C_10  and  C_12
REMARK    4  A    between atoms: C_12  and  C_17
REMARK    5  A    between atoms: C_12  and  O_18
REMARK    6  A    between atoms: S_20  and  C_23
REMARK    7  A    between atoms: C_26  and  C_31
REMARK                            x       y       z     vdW  Elec       q    Type
REMARK                         _______ _______ _______ _____ _____    ______ ____
ROOT
ATOM      1 CL   UNL     1      34.389 -24.283 -15.238  0.00  0.00    -0.081 Cl
ATOM      2  C   UNL     1      35.100 -21.981 -18.422  0.00  0.00    +0.111 C 
ATOM      3  C   UNL     1      32.890 -23.141 -17.214  0.00  0.00    +0.061 C 
ATOM      4  C   UNL     1      35.259 -22.752 -17.270  0.00  0.00    +0.031 C 
ATOM      5  C   UNL     1      33.829 -21.793 -18.965  0.00  0.00    +0.020 C 
ATOM      6  C   UNL     1      34.148 -23.336 -16.663  0.00  0.00    +0.072 C 
ATOM      7  C   UNL     1      32.718 -22.377 -18.358  0.00  0.00    +0.017 C 
ENDROOT
BRANCH   3   9
ATOM      8  O   UNL     1      31.538 -22.525 -14.618  0.00  0.00    -0.272 OA
ATOM      9  N   UNL     1      31.742 -23.719 -16.621  0.00  0.00    -0.281 N 
ATOM     10  C   UNL     1      31.157 -23.391 -15.404  0.00  0.00    +0.259 C 
ATOM     11  H   UNL     1      31.308 -24.440 -17.131  0.00  0.00    +0.155 HD
BRANCH  10  12
ATOM     12  C   UNL     1      29.913 -24.243 -15.092  0.00  0.00    +0.245 C 
ATOM     13  C   UNL     1      30.166 -25.724 -15.377  0.00  0.00    +0.048 C 
BRANCH  12  17
ATOM     14  F   UNL     1      28.934 -22.592 -16.506  0.00  0.00    -0.167 F 
ATOM     15  F   UNL     1      27.672 -23.478 -14.969  0.00  0.00    -0.167 F 
ATOM     16  F   UNL     1      28.233 -24.647 -16.721  0.00  0.00    -0.167 F 
ATOM     17  C   UNL     1      28.684 -23.734 -15.831  0.00  0.00    +0.427 C 
ENDBRANCH  12  17
BRANCH  12  18
ATOM     18  O   UNL     1      29.645 -24.103 -13.697  0.00  0.00    -0.372 OA
ATOM     19  H   UNL     1      29.394 -23.185 -13.507  0.00  0.00    +0.211 HD
ENDBRANCH  12  18
ENDBRANCH  10  12
ENDBRANCH   3   9
BRANCH   2  20
ATOM     20  S   UNL     1      36.491 -21.249 -19.182  0.00  0.00    +0.027 S 
ATOM     21  O   UNL     1      37.282 -22.288 -19.829  0.00  0.00    -0.164 OA
ATOM     22  O   UNL     1      37.106 -20.394 -18.177  0.00  0.00    -0.164 OA
BRANCH  20  23
ATOM     23  C   UNL     1      35.927 -20.211 -20.504  0.00  0.00    +0.110 C 
ATOM     24  C   UNL     1      36.790 -19.268 -21.030  0.00  0.00    +0.019 C 
ATOM     25  C   UNL     1      34.638 -20.368 -20.978  0.00  0.00    +0.019 C 
ATOM     26  C   UNL     1      35.049 -18.591 -22.562  0.00  0.00    +0.054 C 
ATOM     27  C   UNL     1      36.346 -18.450 -22.068  0.00  0.00    +0.006 C 
ATOM     28  C   UNL     1      34.196 -19.550 -22.017  0.00  0.00    +0.006 C 
BRANCH  26  31
ATOM     29  O   UNL     1      34.334 -18.291 -24.725  0.00  0.00    -0.270 OA
ATOM     30  N   UNL     1      34.468 -16.356 -23.422  0.00  0.00    -0.273 N 
ATOM     31  C   UNL     1      34.587 -17.739 -23.646  0.00  0.00    +0.249 C 
ATOM     32  C   UNL     1      34.780 -15.747 -22.131  0.00  0.00    +0.115 C 
ATOM     33  C   UNL     1      34.029 -15.436 -24.462  0.00  0.00    +0.115 C 
ENDBRANCH  26  31
ENDBRANCH  20  23
ENDBRANCH   2  20
TORSDOF 7
ENDMDL
MODEL 8
REMARK VINA RESULT:     -10.1      2.953      4.441
REMARK  Name = 16741245
REMARK  7 active torsions:
REMARK  status: ('A' for Active; 'I' for Inactive)
REMARK    1  A    between atoms: C_2  and  S_20
REMARK    2  A    between atoms: C_3  and  N_9
REMARK    3  A    between atoms: C_10  and  C_12
REMARK    4  A    between atoms: C_12  and  C_17
REMARK    5  A    between atoms: C_12  and  O_18
REMARK    6  A    between atoms: S_20  and  C_23
REMARK    7  A    between atoms: C_26  and  C_31
REMARK                            x       y       z     vdW  Elec       q    Type
REMARK                         _______ _______ _______ _____ _____    ______ ____
ROOT
ATOM      1 CL   UNL     1      35.045 -10.400 -23.987  0.00  0.00    -0.081 Cl
ATOM      2  C   UNL     1      33.604 -14.123 -23.956  0.00  0.00    +0.111 C 
ATOM      3  C   UNL     1      33.010 -11.711 -22.725  0.00  0.00    +0.061 C 
ATOM      4  C   UNL     1      34.370 -12.991 -24.234  0.00  0.00    +0.031 C 
ATOM      5  C   UNL     1      32.539 -14.041 -23.059  0.00  0.00    +0.020 C 
ATOM      6  C   UNL     1      34.071 -11.778 -23.614  0.00  0.00    +0.072 C 
ATOM      7  C   UNL     1      32.241 -12.828 -22.439  0.00  0.00    +0.017 C 
ENDROOT
BRANCH   3   9
ATOM      8  O   UNL     1      32.016  -9.129 -23.860  0.00  0.00    -0.272 OA
ATOM      9  N   UNL     1      32.681 -10.495 -22.079  0.00  0.00    -0.281 N 
ATOM     10  C   UNL     1      32.222  -9.320 -22.663  0.00  0.00    +0.259 C 
ATOM     11  H   UNL     1      32.791 -10.479 -21.102  0.00  0.00    +0.155 HD
BRANCH  10  12
ATOM     12  C   UNL     1      31.972  -8.202 -21.634  0.00  0.00    +0.245 C 
ATOM     13  C   UNL     1      30.878  -7.244 -22.107  0.00  0.00    +0.048 C 
BRANCH  12  17
ATOM     14  F   UNL     1      34.282  -7.823 -22.086  0.00  0.00    -0.167 F 
ATOM     15  F   UNL     1      33.630  -7.705 -20.012  0.00  0.00    -0.167 F 
ATOM     16  F   UNL     1      33.095  -6.121 -21.412  0.00  0.00    -0.167 F 
ATOM     17  C   UNL     1      33.255  -7.458 -21.289  0.00  0.00    +0.427 C 
ENDBRANCH  12  17
BRANCH  12  18
ATOM     18  O   UNL     1      31.521  -8.827 -20.433  0.00  0.00    -0.372 OA
ATOM     19  H   UNL     1      31.606  -8.205 -19.694  0.00  0.00    +0.211 HD
ENDBRANCH  12  18
ENDBRANCH  10  12
ENDBRANCH   3   9
BRANCH   2  20
ATOM     20  S   UNL     1      33.976 -15.642 -24.732  0.00  0.00    +0.027 S 
ATOM     21  O   UNL     1      35.085 -15.446 -25.657  0.00  0.00    -0.164 OA
ATOM     22  O   UNL     1      32.712 -16.174 -25.222  0.00  0.00    -0.164 OA
BRANCH  20  23
ATOM     23  C   UNL     1      34.595 -16.763 -23.506  0.00  0.00    +0.110 C 
ATOM     24  C   UNL     1      34.710 -18.103 -23.820  0.00  0.00    +0.019 C 
ATOM     25  C   UNL     1      34.948 -16.270 -22.263  0.00  0.00    +0.019 C 
ATOM     26  C   UNL     1      35.556 -18.510 -21.594  0.00  0.00    +0.054 C 
ATOM     27  C   UNL     1      35.194 -18.985 -22.854  0.00  0.00    +0.006 C 
ATOM     28  C   UNL     1      35.434 -17.153 -21.299  0.00  0.00    +0.006 C 
BRANCH  26  31
ATOM     29  O   UNL     1      37.236 -19.272 -20.224  0.00  0.00    -0.270 OA
ATOM     30  N   UNL     1      35.216 -20.441 -20.101  0.00  0.00    -0.273 N 
ATOM     31  C   UNL     1      36.064 -19.430 -20.588  0.00  0.00    +0.249 C 
ATOM     32  C   UNL     1      33.837 -20.590 -20.561  0.00  0.00    +0.115 C 
ATOM     33  C   UNL     1      35.656 -21.409 -19.106  0.00  0.00    +0.115 C 
ENDBRANCH  26  31
ENDBRANCH  20  23
ENDBRANCH   2  20
TORSDOF 7
ENDMDL
MODEL 9
REMARK VINA RESULT:      -9.9      6.600     11.186
REMARK  Name = 16741245
REMARK  7 active torsions:
REMARK  status: ('A' for Active; 'I' for Inactive)
REMARK    1  A    between atoms: C_2  and  S_20
REMARK    2  A    between atoms: C_3  and  N_9
REMARK    3  A    between atoms: C_10  and  C_12
REMARK    4  A    between atoms: C_12  and  C_17
REMARK    5  A    between atoms: C_12  and  O_18
REMARK    6  A    between atoms: S_20  and  C_23
REMARK    7  A    between atoms: C_26  and  C_31
REMARK                            x       y       z     vdW  Elec       q    Type
REMARK                         _______ _______ _______ _____ _____    ______ ____
ROOT
ATOM      1 CL   UNL     1      33.284 -24.141 -13.482  0.00  0.00    -0.081 Cl
ATOM      2  C   UNL     1      34.254 -23.093 -17.211  0.00  0.00    +0.111 C 
ATOM      3  C   UNL     1      35.482 -23.101 -14.725  0.00  0.00    +0.061 C 
ATOM      4  C   UNL     1      33.561 -23.556 -16.093  0.00  0.00    +0.031 C 
ATOM      5  C   UNL     1      35.565 -22.635 -17.079  0.00  0.00    +0.020 C 
ATOM      6  C   UNL     1      34.178 -23.559 -14.842  0.00  0.00    +0.072 C 
ATOM      7  C   UNL     1      36.182 -22.638 -15.829  0.00  0.00    +0.017 C 
ENDROOT
BRANCH   3   9
ATOM      8  O   UNL     1      37.439 -25.035 -13.554  0.00  0.00    -0.272 OA
ATOM      9  N   UNL     1      36.137 -23.092 -13.470  0.00  0.00    -0.281 N 
ATOM     10  C   UNL     1      37.041 -24.025 -12.977  0.00  0.00    +0.259 C 
ATOM     11  H   UNL     1      35.926 -22.336 -12.877  0.00  0.00    +0.155 HD
BRANCH  10  12
ATOM     12  C   UNL     1      37.544 -23.677 -11.564  0.00  0.00    +0.245 C 
ATOM     13  C   UNL     1      38.850 -24.404 -11.242  0.00  0.00    +0.048 C 
BRANCH  12  17
ATOM     14  F   UNL     1      35.246 -23.608 -10.935  0.00  0.00    -0.167 F 
ATOM     15  F   UNL     1      36.725 -23.232  -9.383  0.00  0.00    -0.167 F 
ATOM     16  F   UNL     1      36.453 -25.251 -10.160  0.00  0.00    -0.167 F 
ATOM     17  C   UNL     1      36.482 -23.945 -10.508  0.00  0.00    +0.427 C 
ENDBRANCH  12  17
BRANCH  12  18
ATOM     18  O   UNL     1      37.804 -22.274 -11.543  0.00  0.00    -0.372 OA
ATOM     19  H   UNL     1      38.756 -22.123 -11.423  0.00  0.00    +0.211 HD
ENDBRANCH  12  18
ENDBRANCH  10  12
ENDBRANCH   3   9
BRANCH   2  20
ATOM     20  S   UNL     1      33.482 -23.089 -18.777  0.00  0.00    +0.027 S 
ATOM     21  O   UNL     1      32.040 -22.978 -18.598  0.00  0.00    -0.164 OA
ATOM     22  O   UNL     1      34.034 -24.219 -19.510  0.00  0.00    -0.164 OA
BRANCH  20  23
ATOM     23  C   UNL     1      33.952 -21.608 -19.632  0.00  0.00    +0.110 C 
ATOM     24  C   UNL     1      32.970 -20.719 -20.021  0.00  0.00    +0.019 C 
ATOM     25  C   UNL     1      35.291 -21.379 -19.890  0.00  0.00    +0.019 C 
ATOM     26  C   UNL     1      34.684 -19.303 -20.966  0.00  0.00    +0.054 C 
ATOM     27  C   UNL     1      33.339 -19.555 -20.696  0.00  0.00    +0.006 C 
ATOM     28  C   UNL     1      35.659 -20.215 -20.563  0.00  0.00    +0.006 C 
BRANCH  26  31
ATOM     29  O   UNL     1      35.559 -17.178 -20.986  0.00  0.00    -0.270 OA
ATOM     30  N   UNL     1      34.857 -18.007 -23.055  0.00  0.00    -0.273 N 
ATOM     31  C   UNL     1      35.070 -18.089 -21.667  0.00  0.00    +0.249 C 
ATOM     32  C   UNL     1      34.274 -19.108 -23.820  0.00  0.00    +0.115 C 
ATOM     33  C   UNL     1      35.201 -16.819 -23.824  0.00  0.00    +0.115 C 
ENDBRANCH  26  31
ENDBRANCH  20  23
ENDBRANCH   2  20
TORSDOF 7
ENDMDL
