MODEL 1
REMARK VINA RESULT:     -12.4      0.000      0.000
REMARK  Name = 59473233
REMARK  3 active torsions:
REMARK  status: ('A' for Active; 'I' for Inactive)
REMARK    1  A    between atoms: N_1  and  C_25
REMARK    2  A    between atoms: C_7  and  C_14
REMARK    3  A    between atoms: C_22  and  N_29
REMARK                            x       y       z     vdW  Elec       q    Type
REMARK                         _______ _______ _______ _____ _____    ______ ____
ROOT
ATOM      1  N   UNL     1      36.628 -23.127 -16.072  0.00  0.00    -0.286 N 
ATOM      2  N   UNL     1      35.350 -23.941 -12.695  0.00  0.00    -0.260 N 
ATOM      3  N   UNL     1      34.475 -23.603 -15.300  0.00  0.00    -0.387 NA
ATOM      4  N   UNL     1      37.466 -23.516 -13.255  0.00  0.00    -0.224 NA
ATOM      5  C   UNL     1      35.761 -23.449 -15.053  0.00  0.00    +0.216 C 
ATOM      6  C   UNL     1      36.233 -23.626 -13.694  0.00  0.00    +0.180 C 
ATOM      7  C   UNL     1      33.605 -23.931 -14.261  0.00  0.00    +0.131 C 
ATOM      8  C   UNL     1      34.008 -24.096 -12.981  0.00  0.00    +0.156 C 
ATOM      9  C   UNL     1      36.068 -24.039 -11.537  0.00  0.00    +0.088 C 
ATOM     10  C   UNL     1      37.369 -23.773 -11.908  0.00  0.00    +0.117 C 
ATOM     11  H   UNL     1      37.553 -23.452 -15.983  0.00  0.00    +0.155 HD
ENDROOT
BRANCH   7  14
ATOM     12  N   UNL     1      29.441 -22.863 -16.806  0.00  0.00    -0.236 N 
ATOM     13  N   UNL     1      28.174 -23.309 -16.777  0.00  0.00    -0.180 NA
ATOM     14  C   UNL     1      32.172 -24.078 -14.601  0.00  0.00    +0.028 C 
ATOM     15  C   UNL     1      30.269 -23.463 -15.895  0.00  0.00    +0.067 C 
ATOM     16  C   UNL     1      31.625 -23.284 -15.615  0.00  0.00    +0.018 C 
ATOM     17  C   UNL     1      29.468 -24.377 -15.220  0.00  0.00    +0.035 C 
ATOM     18  C   UNL     1      31.390 -25.002 -13.905  0.00  0.00    +0.002 C 
ATOM     19  C   UNL     1      30.032 -25.166 -14.203  0.00  0.00    +0.003 C 
ATOM     20  C   UNL     1      28.194 -24.230 -15.811  0.00  0.00    +0.119 C 
ATOM     21  H   UNL     1      29.747 -22.164 -17.428  0.00  0.00    +0.174 HD
ENDBRANCH   7  14
BRANCH   1  25
ATOM     22  C   UNL     1      35.741 -20.913 -19.507  0.00  0.00    +0.048 C 
ATOM     23  C   UNL     1      36.910 -20.652 -18.791  0.00  0.00    +0.016 C 
ATOM     24  C   UNL     1      34.869 -21.913 -19.076  0.00  0.00    +0.016 C 
ATOM     25  C   UNL     1      36.332 -22.389 -17.214  0.00  0.00    +0.050 C 
ATOM     26  C   UNL     1      37.206 -21.390 -17.644  0.00  0.00    +0.016 C 
ATOM     27  C   UNL     1      35.163 -22.650 -17.930  0.00  0.00    +0.016 C 
BRANCH  22  29
ATOM     28  O   UNL     1      34.781 -18.476 -22.795  0.00  0.00    -0.350 OA
ATOM     29  N   UNL     1      35.445 -20.174 -20.656  0.00  0.00    -0.303 N 
ATOM     30  C   UNL     1      36.274 -18.999 -20.957  0.00  0.00    +0.123 C 
ATOM     31  C   UNL     1      34.064 -20.106 -21.148  0.00  0.00    +0.123 C 
ATOM     32  C   UNL     1      36.152 -18.647 -22.435  0.00  0.00    +0.164 C 
ATOM     33  C   UNL     1      34.059 -19.693 -22.615  0.00  0.00    +0.164 C 
ENDBRANCH  22  29
ENDBRANCH   1  25
TORSDOF 3
ENDMDL
MODEL 2
REMARK VINA RESULT:      -9.6      2.569      7.053
REMARK  Name = 59473233
REMARK  3 active torsions:
REMARK  status: ('A' for Active; 'I' for Inactive)
REMARK    1  A    between atoms: N_1  and  C_25
REMARK    2  A    between atoms: C_7  and  C_14
REMARK    3  A    between atoms: C_22  and  N_29
REMARK                            x       y       z     vdW  Elec       q    Type
REMARK                         _______ _______ _______ _____ _____    ______ ____
ROOT
ATOM      1  N   UNL     1      33.658 -24.184 -12.921  0.00  0.00    -0.286 N 
ATOM      2  N   UNL     1      37.202 -24.951 -13.667  0.00  0.00    -0.260 N 
ATOM      3  N   UNL     1      35.109 -23.377 -14.565  0.00  0.00    -0.387 NA
ATOM      4  N   UNL     1      35.962 -25.824 -12.032  0.00  0.00    -0.224 NA
ATOM      5  C   UNL     1      34.894 -24.160 -13.526  0.00  0.00    +0.216 C 
ATOM      6  C   UNL     1      35.982 -24.988 -13.044  0.00  0.00    +0.180 C 
ATOM      7  C   UNL     1      36.365 -23.359 -15.171  0.00  0.00    +0.131 C 
ATOM      8  C   UNL     1      37.399 -24.123 -14.753  0.00  0.00    +0.156 C 
ATOM      9  C   UNL     1      38.019 -25.825 -13.007  0.00  0.00    +0.088 C 
ATOM     10  C   UNL     1      37.232 -26.351 -12.004  0.00  0.00    +0.117 C 
ATOM     11  H   UNL     1      33.643 -24.385 -11.957  0.00  0.00    +0.155 HD
ENDROOT
BRANCH   7  14
ATOM     12  N   UNL     1      35.312 -21.678 -19.756  0.00  0.00    -0.236 N 
ATOM     13  N   UNL     1      35.795 -20.698 -20.537  0.00  0.00    -0.180 NA
ATOM     14  C   UNL     1      36.538 -22.469 -16.340  0.00  0.00    +0.028 C 
ATOM     15  C   UNL     1      35.926 -21.777 -18.536  0.00  0.00    +0.067 C 
ATOM     16  C   UNL     1      35.721 -22.645 -17.462  0.00  0.00    +0.018 C 
ATOM     17  C   UNL     1      36.888 -20.774 -18.528  0.00  0.00    +0.035 C 
ATOM     18  C   UNL     1      37.513 -21.470 -16.306  0.00  0.00    +0.002 C 
ATOM     19  C   UNL     1      37.702 -20.609 -17.394  0.00  0.00    +0.003 C 
ATOM     20  C   UNL     1      36.754 -20.150 -19.787  0.00  0.00    +0.119 C 
ATOM     21  H   UNL     1      34.581 -22.274 -20.037  0.00  0.00    +0.174 HD
ENDBRANCH   7  14
BRANCH   1  25
ATOM     22  C   UNL     1      29.965 -23.494 -14.756  0.00  0.00    +0.048 C 
ATOM     23  C   UNL     1      30.837 -22.430 -14.522  0.00  0.00    +0.016 C 
ATOM     24  C   UNL     1      30.325 -24.787 -14.378  0.00  0.00    +0.016 C 
ATOM     25  C   UNL     1      32.428 -23.954 -13.530  0.00  0.00    +0.050 C 
ATOM     26  C   UNL     1      32.070 -22.660 -13.909  0.00  0.00    +0.016 C 
ATOM     27  C   UNL     1      31.556 -25.017 -13.765  0.00  0.00    +0.016 C 
BRANCH  22  29
ATOM     28  O   UNL     1      26.374 -22.591 -16.746  0.00  0.00    -0.350 OA
ATOM     29  N   UNL     1      28.730 -23.262 -15.371  0.00  0.00    -0.303 N 
ATOM     30  C   UNL     1      28.618 -23.508 -16.815  0.00  0.00    +0.123 C 
ATOM     31  C   UNL     1      27.831 -22.231 -14.840  0.00  0.00    +0.123 C 
ATOM     32  C   UNL     1      27.153 -23.700 -17.191  0.00  0.00    +0.164 C 
ATOM     33  C   UNL     1      26.408 -22.491 -15.324  0.00  0.00    +0.164 C 
ENDBRANCH  22  29
ENDBRANCH   1  25
TORSDOF 3
ENDMDL
