MODEL 1
REMARK VINA RESULT:     -11.7      0.000      0.000
REMARK  Name = 23725625
REMARK  4 active torsions:
REMARK  status: ('A' for Active; 'I' for Inactive)
REMARK    1  A    between atoms: C_2  and  C_17
REMARK    2  A    between atoms: C_4  and  C_21
REMARK    3  A    between atoms: C_12  and  C_18
REMARK    4  A    between atoms: C_21  and  C_25
REMARK                            x       y       z     vdW  Elec       q    Type
REMARK                         _______ _______ _______ _____ _____    ______ ____
ROOT
ATOM      1  F   UNL     1      31.218 -12.774 -21.180  0.00  0.00    -0.204 F 
ATOM      2  C   UNL     1      32.405 -10.872 -21.964  0.00  0.00    +0.081 C 
ATOM      3  C   UNL     1      32.848  -9.568 -21.760  0.00  0.00    +0.003 C 
ATOM      4  C   UNL     1      32.532  -8.905 -20.575  0.00  0.00    -0.016 C 
ATOM      5  C   UNL     1      31.649 -11.519 -20.991  0.00  0.00    +0.144 C 
ATOM      6  C   UNL     1      31.774  -9.549 -19.596  0.00  0.00    -0.002 C 
ATOM      7  C   UNL     1      31.333 -10.856 -19.804  0.00  0.00    +0.029 C 
ENDROOT
BRANCH   2  17
ATOM      8  O   UNL     1      35.024 -17.332 -24.055  0.00  0.00    -0.275 OA
ATOM      9  O   UNL     1      32.277 -11.084 -24.246  0.00  0.00    -0.270 OA
ATOM     10  N   UNL     1      34.114 -15.476 -22.984  0.00  0.00    -0.276 N 
ATOM     11  N   UNL     1      33.535 -12.713 -23.137  0.00  0.00    -0.273 N 
ATOM     12  C   UNL     1      34.829 -16.676 -23.036  0.00  0.00    +0.225 C 
ATOM     13  C   UNL     1      33.799 -14.733 -21.756  0.00  0.00    +0.115 C 
ATOM     14  C   UNL     1      33.535 -14.920 -24.211  0.00  0.00    +0.115 C 
ATOM     15  C   UNL     1      34.146 -13.254 -21.916  0.00  0.00    +0.115 C 
ATOM     16  C   UNL     1      33.879 -13.441 -24.358  0.00  0.00    +0.115 C 
ATOM     17  C   UNL     1      32.740 -11.567 -23.213  0.00  0.00    +0.251 C 
BRANCH  12  18
ATOM     18  C   UNL     1      35.398 -17.190 -21.752  0.00  0.00    +0.077 C 
ATOM     19  C   UNL     1      36.363 -18.323 -21.809  0.00  0.00    +0.010 C 
ATOM     20  C   UNL     1      34.975 -18.537 -21.282  0.00  0.00    +0.010 C 
ENDBRANCH  12  18
ENDBRANCH   2  17
BRANCH   4  21
ATOM     21  C   UNL     1      33.002  -7.507 -20.353  0.00  0.00    +0.074 C 
BRANCH  21  25
ATOM     22  O   UNL     1      30.866  -4.048 -24.056  0.00  0.00    -0.266 OA
ATOM     23  N   UNL     1      31.290  -6.049 -21.156  0.00  0.00    -0.174 NA
ATOM     24  N   UNL     1      30.773  -5.199 -22.074  0.00  0.00    -0.242 N 
ATOM     25  C   UNL     1      32.454  -6.572 -21.382  0.00  0.00    +0.083 A 
ATOM     26  C   UNL     1      33.250  -6.289 -22.594  0.00  0.00    +0.020 A 
ATOM     27  C   UNL     1      32.700  -5.411 -23.524  0.00  0.00    +0.059 A 
ATOM     28  C   UNL     1      34.505  -6.857 -22.829  0.00  0.00    +0.001 C 
ATOM     29  C   UNL     1      31.377  -4.825 -23.255  0.00  0.00    +0.273 A 
ATOM     30  C   UNL     1      33.395  -5.095 -24.695  0.00  0.00    +0.005 C 
ATOM     31  C   UNL     1      35.200  -6.542 -23.999  0.00  0.00    +0.000 C 
ATOM     32  C   UNL     1      34.647  -5.663 -24.929  0.00  0.00    +0.000 C 
ATOM     33  H   UNL     1      29.888  -4.814 -21.880  0.00  0.00    +0.192 HD
ENDBRANCH  21  25
ENDBRANCH   4  21
TORSDOF 4
ENDMDL
MODEL 2
REMARK VINA RESULT:     -11.0     11.989     15.485
REMARK  Name = 23725625
REMARK  4 active torsions:
REMARK  status: ('A' for Active; 'I' for Inactive)
REMARK    1  A    between atoms: C_2  and  C_17
REMARK    2  A    between atoms: C_4  and  C_21
REMARK    3  A    between atoms: C_12  and  C_18
REMARK    4  A    between atoms: C_21  and  C_25
REMARK                            x       y       z     vdW  Elec       q    Type
REMARK                         _______ _______ _______ _____ _____    ______ ____
ROOT
ATOM      1  F   UNL     1      30.699 -25.467 -12.537  0.00  0.00    -0.204 F 
ATOM      2  C   UNL     1      31.969 -23.905 -13.797  0.00  0.00    +0.081 C 
ATOM      3  C   UNL     1      32.193 -23.230 -14.994  0.00  0.00    +0.003 C 
ATOM      4  C   UNL     1      31.361 -23.465 -16.088  0.00  0.00    -0.016 C 
ATOM      5  C   UNL     1      30.919 -24.812 -13.686  0.00  0.00    +0.144 C 
ATOM      6  C   UNL     1      30.308 -24.374 -15.982  0.00  0.00    -0.002 C 
ATOM      7  C   UNL     1      30.087 -25.047 -14.781  0.00  0.00    +0.029 C 
ENDROOT
BRANCH   2  17
ATOM      8  O   UNL     1      39.018 -24.542 -12.104  0.00  0.00    -0.275 OA
ATOM      9  O   UNL     1      32.390 -22.938 -11.758  0.00  0.00    -0.270 OA
ATOM     10  N   UNL     1      36.910 -24.381 -13.079  0.00  0.00    -0.276 N 
ATOM     11  N   UNL     1      34.119 -24.232 -12.652  0.00  0.00    -0.273 N 
ATOM     12  C   UNL     1      38.231 -24.831 -13.001  0.00  0.00    +0.225 C 
ATOM     13  C   UNL     1      35.992 -24.649 -14.194  0.00  0.00    +0.115 C 
ATOM     14  C   UNL     1      36.378 -23.498 -12.037  0.00  0.00    +0.115 C 
ATOM     15  C   UNL     1      34.643 -25.146 -13.677  0.00  0.00    +0.115 C 
ATOM     16  C   UNL     1      35.029 -23.998 -11.531  0.00  0.00    +0.115 C 
ATOM     17  C   UNL     1      32.847 -23.656 -12.647  0.00  0.00    +0.251 C 
BRANCH  12  18
ATOM     18  C   UNL     1      38.713 -25.731 -14.093  0.00  0.00    +0.077 C 
ATOM     19  C   UNL     1      40.108 -26.248 -14.020  0.00  0.00    +0.010 C 
ATOM     20  C   UNL     1      39.739 -25.209 -15.038  0.00  0.00    +0.010 C 
ENDBRANCH  12  18
ENDBRANCH   2  17
BRANCH   4  21
ATOM     21  C   UNL     1      31.598 -22.746 -17.374  0.00  0.00    +0.074 C 
BRANCH  21  25
ATOM     22  O   UNL     1      36.995 -22.162 -18.248  0.00  0.00    -0.266 OA
ATOM     23  N   UNL     1      33.891 -23.153 -16.845  0.00  0.00    -0.174 NA
ATOM     24  N   UNL     1      35.217 -23.003 -17.069  0.00  0.00    -0.242 N 
ATOM     25  C   UNL     1      33.057 -22.565 -17.643  0.00  0.00    +0.083 A 
ATOM     26  C   UNL     1      33.479 -21.734 -18.789  0.00  0.00    +0.020 A 
ATOM     27  C   UNL     1      34.847 -21.594 -19.002  0.00  0.00    +0.059 A 
ATOM     28  C   UNL     1      32.572 -21.103 -19.646  0.00  0.00    +0.001 C 
ATOM     29  C   UNL     1      35.783 -22.267 -18.087  0.00  0.00    +0.273 A 
ATOM     30  C   UNL     1      35.322 -20.823 -20.067  0.00  0.00    +0.005 C 
ATOM     31  C   UNL     1      33.045 -20.333 -20.711  0.00  0.00    +0.000 C 
ATOM     32  C   UNL     1      34.417 -20.194 -20.921  0.00  0.00    +0.000 C 
ATOM     33  H   UNL     1      35.831 -23.459 -16.449  0.00  0.00    +0.192 HD
ENDBRANCH  21  25
ENDBRANCH   4  21
TORSDOF 4
ENDMDL
MODEL 3
REMARK VINA RESULT:     -11.0     10.666     14.528
REMARK  Name = 23725625
REMARK  4 active torsions:
REMARK  status: ('A' for Active; 'I' for Inactive)
REMARK    1  A    between atoms: C_2  and  C_17
REMARK    2  A    between atoms: C_4  and  C_21
REMARK    3  A    between atoms: C_12  and  C_18
REMARK    4  A    between atoms: C_21  and  C_25
REMARK                            x       y       z     vdW  Elec       q    Type
REMARK                         _______ _______ _______ _____ _____    ______ ____
ROOT
ATOM      1  F   UNL     1      35.980 -23.175 -12.549  0.00  0.00    -0.204 F 
ATOM      2  C   UNL     1      35.382 -23.797 -14.762  0.00  0.00    +0.081 C 
ATOM      3  C   UNL     1      35.541 -23.637 -16.136  0.00  0.00    +0.003 C 
ATOM      4  C   UNL     1      36.453 -22.702 -16.624  0.00  0.00    -0.016 C 
ATOM      5  C   UNL     1      36.128 -23.028 -13.873  0.00  0.00    +0.144 C 
ATOM      6  C   UNL     1      37.202 -21.928 -15.737  0.00  0.00    -0.002 C 
ATOM      7  C   UNL     1      37.041 -22.092 -14.362  0.00  0.00    +0.029 C 
ENDROOT
BRANCH   2  17
ATOM      8  O   UNL     1      28.207 -24.998 -14.959  0.00  0.00    -0.275 OA
ATOM      9  O   UNL     1      34.892 -25.849 -13.857  0.00  0.00    -0.270 OA
ATOM     10  N   UNL     1      30.418 -24.326 -15.244  0.00  0.00    -0.276 N 
ATOM     11  N   UNL     1      33.066 -24.446 -14.259  0.00  0.00    -0.273 N 
ATOM     12  C   UNL     1      29.032 -24.145 -15.276  0.00  0.00    +0.225 C 
ATOM     13  C   UNL     1      31.408 -23.344 -15.707  0.00  0.00    +0.115 C 
ATOM     14  C   UNL     1      30.976 -25.610 -14.808  0.00  0.00    +0.115 C 
ATOM     15  C   UNL     1      32.505 -23.149 -14.663  0.00  0.00    +0.115 C 
ATOM     16  C   UNL     1      32.075 -25.405 -13.771  0.00  0.00    +0.115 C 
ATOM     17  C   UNL     1      34.421 -24.782 -14.250  0.00  0.00    +0.251 C 
BRANCH  12  18
ATOM     18  C   UNL     1      28.526 -22.813 -15.727  0.00  0.00    +0.077 C 
ATOM     19  C   UNL     1      27.125 -22.436 -15.388  0.00  0.00    +0.010 C 
ATOM     20  C   UNL     1      27.496 -22.776 -16.801  0.00  0.00    +0.010 C 
ENDBRANCH  12  18
ENDBRANCH   2  17
BRANCH   4  21
ATOM     21  C   UNL     1      36.624 -22.525 -18.096  0.00  0.00    +0.074 C 
BRANCH  21  25
ATOM     22  O   UNL     1      31.977 -20.670 -20.376  0.00  0.00    -0.266 OA
ATOM     23  N   UNL     1      34.256 -22.542 -18.404  0.00  0.00    -0.174 NA
ATOM     24  N   UNL     1      33.118 -22.078 -18.970  0.00  0.00    -0.242 N 
ATOM     25  C   UNL     1      35.382 -21.994 -18.736  0.00  0.00    +0.083 A 
ATOM     26  C   UNL     1      35.491 -20.886 -19.706  0.00  0.00    +0.020 A 
ATOM     27  C   UNL     1      34.308 -20.423 -20.276  0.00  0.00    +0.059 A 
ATOM     28  C   UNL     1      36.710 -20.300 -20.059  0.00  0.00    +0.001 C 
ATOM     29  C   UNL     1      33.036 -21.055 -19.890  0.00  0.00    +0.273 A 
ATOM     30  C   UNL     1      34.331 -19.377 -21.203  0.00  0.00    +0.005 C 
ATOM     31  C   UNL     1      36.734 -19.254 -20.984  0.00  0.00    +0.000 C 
ATOM     32  C   UNL     1      35.548 -18.794 -21.554  0.00  0.00    +0.000 C 
ATOM     33  H   UNL     1      32.275 -22.510 -18.702  0.00  0.00    +0.192 HD
ENDBRANCH  21  25
ENDBRANCH   4  21
TORSDOF 4
ENDMDL
MODEL 4
REMARK VINA RESULT:     -11.0      5.956     13.459
REMARK  Name = 23725625
REMARK  4 active torsions:
REMARK  status: ('A' for Active; 'I' for Inactive)
REMARK    1  A    between atoms: C_2  and  C_17
REMARK    2  A    between atoms: C_4  and  C_21
REMARK    3  A    between atoms: C_12  and  C_18
REMARK    4  A    between atoms: C_21  and  C_25
REMARK                            x       y       z     vdW  Elec       q    Type
REMARK                         _______ _______ _______ _____ _____    ______ ____
ROOT
ATOM      1  F   UNL     1      37.659 -19.362 -20.744  0.00  0.00    -0.204 F 
ATOM      2  C   UNL     1      35.516 -20.370 -20.927  0.00  0.00    +0.081 C 
ATOM      3  C   UNL     1      34.543 -21.219 -20.408  0.00  0.00    +0.003 C 
ATOM      4  C   UNL     1      34.770 -21.879 -19.200  0.00  0.00    -0.016 C 
ATOM      5  C   UNL     1      36.716 -20.176 -20.249  0.00  0.00    +0.144 C 
ATOM      6  C   UNL     1      35.972 -21.688 -18.517  0.00  0.00    -0.002 C 
ATOM      7  C   UNL     1      36.944 -20.837 -19.041  0.00  0.00    +0.029 C 
ENDROOT
BRANCH   2  17
ATOM      8  O   UNL     1      34.048 -13.630 -23.247  0.00  0.00    -0.275 OA
ATOM      9  O   UNL     1      35.607 -20.278 -23.219  0.00  0.00    -0.270 OA
ATOM     10  N   UNL     1      34.641 -15.577 -22.115  0.00  0.00    -0.276 N 
ATOM     11  N   UNL     1      34.703 -18.404 -22.156  0.00  0.00    -0.273 N 
ATOM     12  C   UNL     1      34.153 -14.270 -22.204  0.00  0.00    +0.225 C 
ATOM     13  C   UNL     1      34.854 -16.314 -20.863  0.00  0.00    +0.115 C 
ATOM     14  C   UNL     1      35.069 -16.279 -23.329  0.00  0.00    +0.115 C 
ATOM     15  C   UNL     1      34.240 -17.710 -20.946  0.00  0.00    +0.115 C 
ATOM     16  C   UNL     1      34.457 -17.674 -23.400  0.00  0.00    +0.115 C 
ATOM     17  C   UNL     1      35.273 -19.677 -22.199  0.00  0.00    +0.251 C 
BRANCH  12  18
ATOM     18  C   UNL     1      33.729 -13.609 -20.932  0.00  0.00    +0.077 C 
ATOM     19  C   UNL     1      32.499 -14.104 -20.253  0.00  0.00    +0.010 C 
ATOM     20  C   UNL     1      32.498 -12.773 -20.946  0.00  0.00    +0.010 C 
ENDBRANCH  12  18
ENDBRANCH   2  17
BRANCH   4  21
ATOM     21  C   UNL     1      33.731 -22.791 -18.641  0.00  0.00    +0.074 C 
BRANCH  21  25
ATOM     22  O   UNL     1      34.804 -23.922 -13.368  0.00  0.00    -0.266 OA
ATOM     23  N   UNL     1      35.214 -23.258 -16.828  0.00  0.00    -0.174 NA
ATOM     24  N   UNL     1      35.468 -23.536 -15.529  0.00  0.00    -0.242 N 
ATOM     25  C   UNL     1      33.984 -23.097 -17.200  0.00  0.00    +0.083 A 
ATOM     26  C   UNL     1      32.837 -23.203 -16.275  0.00  0.00    +0.020 A 
ATOM     27  C   UNL     1      33.119 -23.488 -14.943  0.00  0.00    +0.059 A 
ATOM     28  C   UNL     1      31.512 -23.027 -16.684  0.00  0.00    +0.001 C 
ATOM     29  C   UNL     1      34.523 -23.668 -14.535  0.00  0.00    +0.273 A 
ATOM     30  C   UNL     1      32.086 -23.603 -14.008  0.00  0.00    +0.005 C 
ATOM     31  C   UNL     1      30.478 -23.142 -15.752  0.00  0.00    +0.000 C 
ATOM     32  C   UNL     1      30.764 -23.428 -14.418  0.00  0.00    +0.000 C 
ATOM     33  H   UNL     1      36.410 -23.653 -15.271  0.00  0.00    +0.192 HD
ENDBRANCH  21  25
ENDBRANCH   4  21
TORSDOF 4
ENDMDL
MODEL 5
REMARK VINA RESULT:     -10.8      1.726      2.420
REMARK  Name = 23725625
REMARK  4 active torsions:
REMARK  status: ('A' for Active; 'I' for Inactive)
REMARK    1  A    between atoms: C_2  and  C_17
REMARK    2  A    between atoms: C_4  and  C_21
REMARK    3  A    between atoms: C_12  and  C_18
REMARK    4  A    between atoms: C_21  and  C_25
REMARK                            x       y       z     vdW  Elec       q    Type
REMARK                         _______ _______ _______ _____ _____    ______ ____
ROOT
ATOM      1  F   UNL     1      30.063 -11.541 -22.295  0.00  0.00    -0.204 F 
ATOM      2  C   UNL     1      31.770 -10.392 -21.110  0.00  0.00    +0.081 C 
ATOM      3  C   UNL     1      32.515  -9.234 -20.904  0.00  0.00    +0.003 C 
ATOM      4  C   UNL     1      32.272  -8.105 -21.686  0.00  0.00    -0.016 C 
ATOM      5  C   UNL     1      30.783 -10.429 -22.090  0.00  0.00    +0.144 C 
ATOM      6  C   UNL     1      31.284  -8.137 -22.671  0.00  0.00    -0.002 C 
ATOM      7  C   UNL     1      30.539  -9.299 -22.872  0.00  0.00    +0.029 C 
ENDROOT
BRANCH   2  17
ATOM      8  O   UNL     1      35.137 -16.813 -21.737  0.00  0.00    -0.275 OA
ATOM      9  O   UNL     1      31.857 -11.449 -19.074  0.00  0.00    -0.270 OA
ATOM     10  N   UNL     1      34.298 -14.648 -21.913  0.00  0.00    -0.276 N 
ATOM     11  N   UNL     1      32.456 -12.744 -20.925  0.00  0.00    -0.273 N 
ATOM     12  C   UNL     1      34.807 -15.847 -22.420  0.00  0.00    +0.225 C 
ATOM     13  C   UNL     1      33.988 -13.457 -22.715  0.00  0.00    +0.115 C 
ATOM     14  C   UNL     1      34.126 -14.484 -20.467  0.00  0.00    +0.115 C 
ATOM     15  C   UNL     1      32.597 -12.925 -22.376  0.00  0.00    +0.115 C 
ATOM     16  C   UNL     1      32.737 -13.945 -20.138  0.00  0.00    +0.115 C 
ATOM     17  C   UNL     1      32.029 -11.579 -20.285  0.00  0.00    +0.251 C 
BRANCH  12  18
ATOM     18  C   UNL     1      34.956 -15.955 -23.904  0.00  0.00    +0.077 C 
ATOM     19  C   UNL     1      33.723 -16.028 -24.736  0.00  0.00    +0.010 C 
ATOM     20  C   UNL     1      34.589 -17.240 -24.559  0.00  0.00    +0.010 C 
ENDBRANCH  12  18
ENDBRANCH   2  17
BRANCH   4  21
ATOM     21  C   UNL     1      33.070  -6.862 -21.471  0.00  0.00    +0.074 C 
BRANCH  21  25
ATOM     22  O   UNL     1      31.385  -2.800 -24.771  0.00  0.00    -0.266 OA
ATOM     23  N   UNL     1      31.595  -5.079 -22.060  0.00  0.00    -0.174 NA
ATOM     24  N   UNL     1      31.189  -4.082 -22.879  0.00  0.00    -0.242 N 
ATOM     25  C   UNL     1      32.642  -5.766 -22.392  0.00  0.00    +0.083 A 
ATOM     26  C   UNL     1      33.418  -5.518 -23.624  0.00  0.00    +0.020 A 
ATOM     27  C   UNL     1      32.984  -4.487 -24.452  0.00  0.00    +0.059 A 
ATOM     28  C   UNL     1      34.547  -6.264 -23.975  0.00  0.00    +0.001 C 
ATOM     29  C   UNL     1      31.793  -3.715 -24.062  0.00  0.00    +0.273 A 
ATOM     30  C   UNL     1      33.668  -4.193 -25.635  0.00  0.00    +0.005 C 
ATOM     31  C   UNL     1      35.232  -5.971 -25.156  0.00  0.00    +0.000 C 
ATOM     32  C   UNL     1      34.794  -4.938 -25.984  0.00  0.00    +0.000 C 
ATOM     33  H   UNL     1      30.391  -3.573 -22.606  0.00  0.00    +0.192 HD
ENDBRANCH  21  25
ENDBRANCH   4  21
TORSDOF 4
ENDMDL
MODEL 6
REMARK VINA RESULT:     -10.6      2.296      3.171
REMARK  Name = 23725625
REMARK  4 active torsions:
REMARK  status: ('A' for Active; 'I' for Inactive)
REMARK    1  A    between atoms: C_2  and  C_17
REMARK    2  A    between atoms: C_4  and  C_21
REMARK    3  A    between atoms: C_12  and  C_18
REMARK    4  A    between atoms: C_21  and  C_25
REMARK                            x       y       z     vdW  Elec       q    Type
REMARK                         _______ _______ _______ _____ _____    ______ ____
ROOT
ATOM      1  F   UNL     1      29.914 -11.398 -22.186  0.00  0.00    -0.204 F 
ATOM      2  C   UNL     1      31.735 -10.324 -21.104  0.00  0.00    +0.081 C 
ATOM      3  C   UNL     1      32.540  -9.199 -20.945  0.00  0.00    +0.003 C 
ATOM      4  C   UNL     1      32.301  -8.061 -21.714  0.00  0.00    -0.016 C 
ATOM      5  C   UNL     1      30.693 -10.319 -22.026  0.00  0.00    +0.144 C 
ATOM      6  C   UNL     1      31.258  -8.051 -22.641  0.00  0.00    -0.002 C 
ATOM      7  C   UNL     1      30.453  -9.179 -22.796  0.00  0.00    +0.029 C 
ENDROOT
BRANCH   2  17
ATOM      8  O   UNL     1      35.092 -16.744 -21.795  0.00  0.00    -0.275 OA
ATOM      9  O   UNL     1      31.814 -11.404 -19.080  0.00  0.00    -0.270 OA
ATOM     10  N   UNL     1      34.258 -14.575 -21.949  0.00  0.00    -0.276 N 
ATOM     11  N   UNL     1      32.416 -12.679 -20.944  0.00  0.00    -0.273 N 
ATOM     12  C   UNL     1      34.766 -15.769 -22.468  0.00  0.00    +0.225 C 
ATOM     13  C   UNL     1      33.952 -13.374 -22.738  0.00  0.00    +0.115 C 
ATOM     14  C   UNL     1      34.082 -14.427 -20.501  0.00  0.00    +0.115 C 
ATOM     15  C   UNL     1      32.561 -12.844 -22.397  0.00  0.00    +0.115 C 
ATOM     16  C   UNL     1      32.693 -13.890 -20.170  0.00  0.00    +0.115 C 
ATOM     17  C   UNL     1      31.989 -11.521 -20.292  0.00  0.00    +0.251 C 
BRANCH  12  18
ATOM     18  C   UNL     1      34.919 -15.860 -23.952  0.00  0.00    +0.077 C 
ATOM     19  C   UNL     1      33.688 -15.927 -24.788  0.00  0.00    +0.010 C 
ATOM     20  C   UNL     1      34.557 -17.139 -24.623  0.00  0.00    +0.010 C 
ENDBRANCH  12  18
ENDBRANCH   2  17
BRANCH   4  21
ATOM     21  C   UNL     1      33.163  -6.854 -21.549  0.00  0.00    +0.074 C 
BRANCH  21  25
ATOM     22  O   UNL     1      35.663  -5.515 -26.260  0.00  0.00    -0.266 OA
ATOM     23  N   UNL     1      34.874  -7.116 -23.194  0.00  0.00    -0.174 NA
ATOM     24  N   UNL     1      35.482  -6.779 -24.355  0.00  0.00    -0.242 N 
ATOM     25  C   UNL     1      33.815  -6.462 -22.835  0.00  0.00    +0.083 A 
ATOM     26  C   UNL     1      33.233  -5.361 -23.630  0.00  0.00    +0.020 A 
ATOM     27  C   UNL     1      33.873  -5.031 -24.822  0.00  0.00    +0.059 A 
ATOM     28  C   UNL     1      32.090  -4.661 -23.237  0.00  0.00    +0.001 C 
ATOM     29  C   UNL     1      35.076  -5.783 -25.216  0.00  0.00    +0.273 A 
ATOM     30  C   UNL     1      33.381  -4.000 -25.628  0.00  0.00    +0.005 C 
ATOM     31  C   UNL     1      31.597  -3.631 -24.041  0.00  0.00    +0.000 C 
ATOM     32  C   UNL     1      32.240  -3.302 -25.234  0.00  0.00    +0.000 C 
ATOM     33  H   UNL     1      36.285  -7.291 -24.606  0.00  0.00    +0.192 HD
ENDBRANCH  21  25
ENDBRANCH   4  21
TORSDOF 4
ENDMDL
MODEL 7
REMARK VINA RESULT:     -10.4      1.544      2.049
REMARK  Name = 23725625
REMARK  4 active torsions:
REMARK  status: ('A' for Active; 'I' for Inactive)
REMARK    1  A    between atoms: C_2  and  C_17
REMARK    2  A    between atoms: C_4  and  C_21
REMARK    3  A    between atoms: C_12  and  C_18
REMARK    4  A    between atoms: C_21  and  C_25
REMARK                            x       y       z     vdW  Elec       q    Type
REMARK                         _______ _______ _______ _____ _____    ______ ____
ROOT
ATOM      1  F   UNL     1      31.210 -12.768 -21.430  0.00  0.00    -0.204 F 
ATOM      2  C   UNL     1      32.436 -10.927 -22.296  0.00  0.00    +0.081 C 
ATOM      3  C   UNL     1      32.899  -9.622 -22.153  0.00  0.00    +0.003 C 
ATOM      4  C   UNL     1      32.587  -8.897 -21.003  0.00  0.00    -0.016 C 
ATOM      5  C   UNL     1      31.662 -11.513 -21.298  0.00  0.00    +0.144 C 
ATOM      6  C   UNL     1      31.811  -9.480 -20.000  0.00  0.00    -0.002 C 
ATOM      7  C   UNL     1      31.349 -10.787 -20.147  0.00  0.00    +0.029 C 
ENDROOT
BRANCH   2  17
ATOM      8  O   UNL     1      35.038 -17.494 -24.048  0.00  0.00    -0.275 OA
ATOM      9  O   UNL     1      32.303 -11.259 -24.563  0.00  0.00    -0.270 OA
ATOM     10  N   UNL     1      34.133 -15.582 -23.075  0.00  0.00    -0.276 N 
ATOM     11  N   UNL     1      33.559 -12.829 -23.373  0.00  0.00    -0.273 N 
ATOM     12  C   UNL     1      34.846 -16.784 -23.065  0.00  0.00    +0.225 C 
ATOM     13  C   UNL     1      33.822 -14.775 -21.887  0.00  0.00    +0.115 C 
ATOM     14  C   UNL     1      33.552 -15.090 -24.328  0.00  0.00    +0.115 C 
ATOM     15  C   UNL     1      34.171 -13.307 -22.125  0.00  0.00    +0.115 C 
ATOM     16  C   UNL     1      33.900 -13.622 -24.554  0.00  0.00    +0.115 C 
ATOM     17  C   UNL     1      32.766 -11.688 -23.508  0.00  0.00    +0.251 C 
BRANCH  12  18
ATOM     18  C   UNL     1      35.416 -17.231 -21.757  0.00  0.00    +0.077 C 
ATOM     19  C   UNL     1      36.382 -18.365 -21.756  0.00  0.00    +0.010 C 
ATOM     20  C   UNL     1      34.994 -18.553 -21.217  0.00  0.00    +0.010 C 
ENDBRANCH  12  18
ENDBRANCH   2  17
BRANCH   4  21
ATOM     21  C   UNL     1      33.079  -7.498 -20.847  0.00  0.00    +0.074 C 
BRANCH  21  25
ATOM     22  O   UNL     1      35.608  -5.755 -25.407  0.00  0.00    -0.266 OA
ATOM     23  N   UNL     1      34.910  -7.468 -22.380  0.00  0.00    -0.174 NA
ATOM     24  N   UNL     1      35.524  -7.032 -23.504  0.00  0.00    -0.242 N 
ATOM     25  C   UNL     1      33.735  -7.001 -22.094  0.00  0.00    +0.083 A 
ATOM     26  C   UNL     1      33.028  -6.014 -22.934  0.00  0.00    +0.020 A 
ATOM     27  C   UNL     1      33.677  -5.580 -24.087  0.00  0.00    +0.059 A 
ATOM     28  C   UNL     1      31.761  -5.516 -22.619  0.00  0.00    +0.001 C 
ATOM     29  C   UNL     1      35.011  -6.118 -24.399  0.00  0.00    +0.273 A 
ATOM     30  C   UNL     1      33.070  -4.646 -24.932  0.00  0.00    +0.005 C 
ATOM     31  C   UNL     1      31.153  -4.583 -23.463  0.00  0.00    +0.000 C 
ATOM     32  C   UNL     1      31.806  -4.151 -24.616  0.00  0.00    +0.000 C 
ATOM     33  H   UNL     1      36.415  -7.401 -23.700  0.00  0.00    +0.192 HD
ENDBRANCH  21  25
ENDBRANCH   4  21
TORSDOF 4
ENDMDL
MODEL 8
REMARK VINA RESULT:     -10.4      2.495      8.574
REMARK  Name = 23725625
REMARK  4 active torsions:
REMARK  status: ('A' for Active; 'I' for Inactive)
REMARK    1  A    between atoms: C_2  and  C_17
REMARK    2  A    between atoms: C_4  and  C_21
REMARK    3  A    between atoms: C_12  and  C_18
REMARK    4  A    between atoms: C_21  and  C_25
REMARK                            x       y       z     vdW  Elec       q    Type
REMARK                         _______ _______ _______ _____ _____    ______ ____
ROOT
ATOM      1  F   UNL     1      32.930  -6.221 -19.740  0.00  0.00    -0.204 F 
ATOM      2  C   UNL     1      31.823  -7.357 -21.508  0.00  0.00    +0.081 C 
ATOM      3  C   UNL     1      31.338  -8.544 -22.052  0.00  0.00    +0.003 C 
ATOM      4  C   UNL     1      31.491  -9.741 -21.353  0.00  0.00    -0.016 C 
ATOM      5  C   UNL     1      32.459  -7.359 -20.270  0.00  0.00    +0.144 C 
ATOM      6  C   UNL     1      32.129  -9.748 -20.112  0.00  0.00    -0.002 C 
ATOM      7  C   UNL     1      32.612  -8.557 -19.571  0.00  0.00    +0.029 C 
ENDROOT
BRANCH   2  17
ATOM      8  O   UNL     1      34.146  -4.364 -27.721  0.00  0.00    -0.275 OA
ATOM      9  O   UNL     1      30.718  -5.385 -21.904  0.00  0.00    -0.270 OA
ATOM     10  N   UNL     1      33.550  -5.714 -25.921  0.00  0.00    -0.276 N 
ATOM     11  N   UNL     1      32.563  -5.816 -23.272  0.00  0.00    -0.273 N 
ATOM     12  C   UNL     1      34.334  -5.354 -27.020  0.00  0.00    +0.225 C 
ATOM     13  C   UNL     1      33.713  -6.944 -25.134  0.00  0.00    +0.115 C 
ATOM     14  C   UNL     1      32.407  -4.880 -25.536  0.00  0.00    +0.115 C 
ATOM     15  C   UNL     1      33.729  -6.631 -23.639  0.00  0.00    +0.115 C 
ATOM     16  C   UNL     1      32.428  -4.578 -24.041  0.00  0.00    +0.115 C 
ATOM     17  C   UNL     1      31.660  -6.099 -22.246  0.00  0.00    +0.251 C 
BRANCH  12  18
ATOM     18  C   UNL     1      35.486  -6.244 -27.359  0.00  0.00    +0.077 C 
ATOM     19  C   UNL     1      36.776  -5.613 -27.754  0.00  0.00    +0.010 C 
ATOM     20  C   UNL     1      35.932  -6.312 -28.778  0.00  0.00    +0.010 C 
ENDBRANCH  12  18
ENDBRANCH   2  17
BRANCH   4  21
ATOM     21  C   UNL     1      30.976 -11.015 -21.934  0.00  0.00    +0.074 C 
BRANCH  21  25
ATOM     22  O   UNL     1      35.082 -14.215 -23.703  0.00  0.00    -0.266 OA
ATOM     23  N   UNL     1      32.653 -11.636 -23.516  0.00  0.00    -0.174 NA
ATOM     24  N   UNL     1      33.663 -12.429 -23.942  0.00  0.00    -0.242 N 
ATOM     25  C   UNL     1      32.088 -11.906 -22.382  0.00  0.00    +0.083 A 
ATOM     26  C   UNL     1      32.489 -13.042 -21.526  0.00  0.00    +0.020 A 
ATOM     27  C   UNL     1      33.531 -13.845 -21.983  0.00  0.00    +0.059 A 
ATOM     28  C   UNL     1      31.874 -13.326 -20.303  0.00  0.00    +0.001 C 
ATOM     29  C   UNL     1      34.163 -13.525 -23.273  0.00  0.00    +0.273 A 
ATOM     30  C   UNL     1      33.965 -14.938 -21.227  0.00  0.00    +0.005 C 
ATOM     31  C   UNL     1      32.308 -14.418 -19.547  0.00  0.00    +0.000 C 
ATOM     32  C   UNL     1      33.351 -15.220 -20.008  0.00  0.00    +0.000 C 
ATOM     33  H   UNL     1      34.076 -12.204 -24.806  0.00  0.00    +0.192 HD
ENDBRANCH  21  25
ENDBRANCH   4  21
TORSDOF 4
ENDMDL
MODEL 9
REMARK VINA RESULT:     -10.0      2.077      9.329
REMARK  Name = 23725625
REMARK  4 active torsions:
REMARK  status: ('A' for Active; 'I' for Inactive)
REMARK    1  A    between atoms: C_2  and  C_17
REMARK    2  A    between atoms: C_4  and  C_21
REMARK    3  A    between atoms: C_12  and  C_18
REMARK    4  A    between atoms: C_21  and  C_25
REMARK                            x       y       z     vdW  Elec       q    Type
REMARK                         _______ _______ _______ _____ _____    ______ ____
ROOT
ATOM      1  F   UNL     1      31.494 -12.052 -19.482  0.00  0.00    -0.204 F 
ATOM      2  C   UNL     1      32.180 -12.120 -21.755  0.00  0.00    +0.081 C 
ATOM      3  C   UNL     1      32.979 -12.678 -22.750  0.00  0.00    +0.003 C 
ATOM      4  C   UNL     1      33.861 -13.710 -22.433  0.00  0.00    -0.016 C 
ATOM      5  C   UNL     1      32.258 -12.586 -20.446  0.00  0.00    +0.144 C 
ATOM      6  C   UNL     1      33.944 -14.181 -21.122  0.00  0.00    -0.002 C 
ATOM      7  C   UNL     1      33.142 -13.619 -20.129  0.00  0.00    +0.029 C 
ENDROOT
BRANCH   2  17
ATOM      8  O   UNL     1      32.398  -5.580 -24.940  0.00  0.00    -0.275 OA
ATOM      9  O   UNL     1      30.054 -11.312 -22.063  0.00  0.00    -0.270 OA
ATOM     10  N   UNL     1      32.740  -7.730 -24.116  0.00  0.00    -0.276 N 
ATOM     11  N   UNL     1      31.789  -9.789 -22.426  0.00  0.00    -0.273 N 
ATOM     12  C   UNL     1      33.151  -6.466 -24.546  0.00  0.00    +0.225 C 
ATOM     13  C   UNL     1      33.641  -8.825 -23.730  0.00  0.00    +0.115 C 
ATOM     14  C   UNL     1      31.315  -8.072 -24.114  0.00  0.00    +0.115 C 
ATOM     15  C   UNL     1      33.214  -9.432 -22.395  0.00  0.00    +0.115 C 
ATOM     16  C   UNL     1      30.898  -8.683 -22.780  0.00  0.00    +0.115 C 
ATOM     17  C   UNL     1      31.252 -11.033 -22.091  0.00  0.00    +0.251 C 
BRANCH  12  18
ATOM     18  C   UNL     1      34.618  -6.178 -24.521  0.00  0.00    +0.077 C 
ATOM     19  C   UNL     1      35.182  -5.283 -25.570  0.00  0.00    +0.010 C 
ATOM     20  C   UNL     1      35.470  -6.755 -25.597  0.00  0.00    +0.010 C 
ENDBRANCH  12  18
ENDBRANCH   2  17
BRANCH   4  21
ATOM     21  C   UNL     1      34.720 -14.310 -23.495  0.00  0.00    +0.074 C 
BRANCH  21  25
ATOM     22  O   UNL     1      32.760 -19.158 -25.195  0.00  0.00    -0.266 OA
ATOM     23  N   UNL     1      33.371 -15.674 -24.916  0.00  0.00    -0.174 NA
ATOM     24  N   UNL     1      32.894 -16.872 -25.327  0.00  0.00    -0.242 N 
ATOM     25  C   UNL     1      34.210 -15.645 -23.929  0.00  0.00    +0.083 A 
ATOM     26  C   UNL     1      34.675 -16.857 -23.224  0.00  0.00    +0.020 A 
ATOM     27  C   UNL     1      34.173 -18.079 -23.664  0.00  0.00    +0.059 A 
ATOM     28  C   UNL     1      35.580 -16.817 -22.161  0.00  0.00    +0.001 C 
ATOM     29  C   UNL     1      33.221 -18.096 -24.786  0.00  0.00    +0.273 A 
ATOM     30  C   UNL     1      34.568 -19.269 -23.045  0.00  0.00    +0.005 C 
ATOM     31  C   UNL     1      35.976 -18.006 -21.542  0.00  0.00    +0.000 C 
ATOM     32  C   UNL     1      35.472 -19.228 -21.984  0.00  0.00    +0.000 C 
ATOM     33  H   UNL     1      32.258 -16.868 -26.078  0.00  0.00    +0.192 HD
ENDBRANCH  21  25
ENDBRANCH   4  21
TORSDOF 4
ENDMDL
