MODEL 1
REMARK VINA RESULT:     -12.3      0.000      0.000
REMARK  Name = 44129603
REMARK  3 active torsions:
REMARK  status: ('A' for Active; 'I' for Inactive)
REMARK    1  A    between atoms: N_5  and  C_17
REMARK    2  A    between atoms: C_12  and  C_24
REMARK    3  A    between atoms: C_24  and  O_25
REMARK                            x       y       z     vdW  Elec       q    Type
REMARK                         _______ _______ _______ _____ _____    ______ ____
ROOT
ATOM      1  N   UNL     1      36.631 -23.155 -14.836  0.00  0.00    -0.246 N 
ATOM      2  N   UNL     1      37.605 -23.239 -13.908  0.00  0.00    -0.163 NA
ATOM      3  N   UNL     1      34.037 -23.056 -16.275  0.00  0.00    -0.336 NA
ATOM      4  N   UNL     1      31.720 -23.739 -16.290  0.00  0.00    -0.170 NA
ATOM      5  N   UNL     1      32.651 -22.576 -18.104  0.00  0.00    -0.247 N 
ATOM      6  C   UNL     1      34.466 -24.336 -12.194  0.00  0.00    +0.035 C 
ATOM      7  C   UNL     1      35.596 -23.893 -13.053  0.00  0.00    +0.024 A 
ATOM      8  C   UNL     1      33.305 -24.924 -13.042  0.00  0.00    +0.035 C 
ATOM      9  C   UNL     1      35.412 -23.543 -14.372  0.00  0.00    +0.106 A 
ATOM     10  C   UNL     1      33.093 -24.244 -14.378  0.00  0.00    +0.030 C 
ATOM     11  C   UNL     1      34.140 -23.614 -15.054  0.00  0.00    +0.158 C 
ATOM     12  C   UNL     1      36.966 -23.686 -12.820  0.00  0.00    +0.174 A 
ATOM     13  C   UNL     1      31.896 -24.283 -15.065  0.00  0.00    +0.110 C 
ATOM     14  C   UNL     1      36.971 -22.663 -16.151  0.00  0.00    +0.154 C 
ATOM     15  C   UNL     1      32.812 -23.153 -16.825  0.00  0.00    +0.149 C 
ATOM     16  H   UNL     1      31.741 -22.668 -18.468  0.00  0.00    +0.165 HD
ENDROOT
BRANCH   5  17
ATOM     17  C   UNL     1      33.536 -21.896 -18.960  0.00  0.00    +0.058 C 
ATOM     18  C   UNL     1      33.061 -20.881 -19.790  0.00  0.00    +0.015 C 
ATOM     19  C   UNL     1      34.889 -22.236 -18.978  0.00  0.00    +0.015 C 
ATOM     20  C   UNL     1      33.939 -20.205 -20.639  0.00  0.00    +0.001 C 
ATOM     21  C   UNL     1      35.767 -21.561 -19.826  0.00  0.00    +0.001 C 
ATOM     22  C   UNL     1      35.292 -20.546 -20.656  0.00  0.00    +0.000 C 
ENDBRANCH   5  17
BRANCH  12  24
ATOM     23  O   UNL     1      37.653 -24.929 -10.895  0.00  0.00    -0.243 OA
ATOM     24  C   UNL     1      37.696 -23.905 -11.605  0.00  0.00    +0.357 C 
BRANCH  24  25
ATOM     25  O   UNL     1      38.494 -22.848 -11.257  0.00  0.00    -0.476 OA
ATOM     26  H   UNL     1      38.834 -22.280 -11.920  0.00  0.00    +0.295 HD
ENDBRANCH  24  25
ENDBRANCH  12  24
TORSDOF 3
ENDMDL
MODEL 2
REMARK VINA RESULT:      -9.9      8.151     11.638
REMARK  Name = 44129603
REMARK  3 active torsions:
REMARK  status: ('A' for Active; 'I' for Inactive)
REMARK    1  A    between atoms: N_5  and  C_17
REMARK    2  A    between atoms: C_12  and  C_24
REMARK    3  A    between atoms: C_24  and  O_25
REMARK                            x       y       z     vdW  Elec       q    Type
REMARK                         _______ _______ _______ _____ _____    ______ ____
ROOT
ATOM      1  N   UNL     1      34.712 -15.743 -20.936  0.00  0.00    -0.246 N 
ATOM      2  N   UNL     1      35.219 -16.815 -20.294  0.00  0.00    -0.163 NA
ATOM      3  N   UNL     1      33.464 -13.893 -22.892  0.00  0.00    -0.336 NA
ATOM      4  N   UNL     1      33.026 -13.429 -25.222  0.00  0.00    -0.170 NA
ATOM      5  N   UNL     1      32.426 -11.896 -23.548  0.00  0.00    -0.247 N 
ATOM      6  C   UNL     1      34.763 -17.876 -23.853  0.00  0.00    +0.035 C 
ATOM      7  C   UNL     1      34.887 -17.260 -22.505  0.00  0.00    +0.024 A 
ATOM      8  C   UNL     1      34.770 -16.799 -24.972  0.00  0.00    +0.035 C 
ATOM      9  C   UNL     1      34.503 -15.960 -22.263  0.00  0.00    +0.106 A 
ATOM     10  C   UNL     1      34.080 -15.503 -24.604  0.00  0.00    +0.030 C 
ATOM     11  C   UNL     1      33.997 -15.066 -23.279  0.00  0.00    +0.158 C 
ATOM     12  C   UNL     1      35.319 -17.739 -21.258  0.00  0.00    +0.174 A 
ATOM     13  C   UNL     1      33.580 -14.620 -25.541  0.00  0.00    +0.110 C 
ATOM     14  C   UNL     1      34.438 -14.547 -20.172  0.00  0.00    +0.154 C 
ATOM     15  C   UNL     1      33.002 -13.135 -23.905  0.00  0.00    +0.149 C 
ATOM     16  H   UNL     1      32.099 -11.375 -24.317  0.00  0.00    +0.165 HD
ENDROOT
BRANCH   5  17
ATOM     17  C   UNL     1      32.226 -11.259 -22.310  0.00  0.00    +0.058 C 
ATOM     18  C   UNL     1      32.385  -9.878 -22.202  0.00  0.00    +0.015 C 
ATOM     19  C   UNL     1      31.869 -12.010 -21.190  0.00  0.00    +0.015 C 
ATOM     20  C   UNL     1      32.186  -9.246 -20.973  0.00  0.00    +0.001 C 
ATOM     21  C   UNL     1      31.670 -11.378 -19.961  0.00  0.00    +0.001 C 
ATOM     22  C   UNL     1      31.829  -9.997 -19.854  0.00  0.00    +0.000 C 
ENDBRANCH   5  17
BRANCH  12  24
ATOM     23  O   UNL     1      35.262 -20.128 -21.154  0.00  0.00    -0.243 OA
ATOM     24  C   UNL     1      35.834 -19.041 -20.944  0.00  0.00    +0.357 C 
BRANCH  24  25
ATOM     25  O   UNL     1      37.073 -19.006 -20.362  0.00  0.00    -0.476 OA
ATOM     26  H   UNL     1      37.324 -18.270 -19.838  0.00  0.00    +0.295 HD
ENDBRANCH  24  25
ENDBRANCH  12  24
TORSDOF 3
ENDMDL
MODEL 3
REMARK VINA RESULT:      -9.9      3.579      7.079
REMARK  Name = 44129603
REMARK  3 active torsions:
REMARK  status: ('A' for Active; 'I' for Inactive)
REMARK    1  A    between atoms: N_5  and  C_17
REMARK    2  A    between atoms: C_12  and  C_24
REMARK    3  A    between atoms: C_24  and  O_25
REMARK                            x       y       z     vdW  Elec       q    Type
REMARK                         _______ _______ _______ _____ _____    ______ ____
ROOT
ATOM      1  N   UNL     1      32.336 -24.178 -14.847  0.00  0.00    -0.246 N 
ATOM      2  N   UNL     1      30.989 -24.243 -14.840  0.00  0.00    -0.163 NA
ATOM      3  N   UNL     1      35.175 -23.499 -15.381  0.00  0.00    -0.336 NA
ATOM      4  N   UNL     1      36.770 -22.643 -16.980  0.00  0.00    -0.170 NA
ATOM      5  N   UNL     1      37.470 -23.475 -14.900  0.00  0.00    -0.247 N 
ATOM      6  C   UNL     1      31.898 -22.206 -17.845  0.00  0.00    +0.035 C 
ATOM      7  C   UNL     1      31.747 -23.048 -16.627  0.00  0.00    +0.024 A 
ATOM      8  C   UNL     1      33.292 -22.404 -18.500  0.00  0.00    +0.035 C 
ATOM      9  C   UNL     1      32.835 -23.479 -15.902  0.00  0.00    +0.106 A 
ATOM     10  C   UNL     1      34.424 -22.628 -17.521  0.00  0.00    +0.030 C 
ATOM     11  C   UNL     1      34.206 -23.205 -16.267  0.00  0.00    +0.158 C 
ATOM     12  C   UNL     1      30.636 -23.546 -15.928  0.00  0.00    +0.174 A 
ATOM     13  C   UNL     1      35.749 -22.379 -17.825  0.00  0.00    +0.110 C 
ATOM     14  C   UNL     1      33.063 -24.810 -13.770  0.00  0.00    +0.154 C 
ATOM     15  C   UNL     1      36.418 -23.192 -15.798  0.00  0.00    +0.149 C 
ATOM     16  H   UNL     1      38.360 -23.234 -15.243  0.00  0.00    +0.165 HD
ENDROOT
BRANCH   5  17
ATOM     17  C   UNL     1      37.495 -24.033 -13.608  0.00  0.00    +0.058 C 
ATOM     18  C   UNL     1      37.161 -23.251 -12.504  0.00  0.00    +0.015 C 
ATOM     19  C   UNL     1      37.854 -25.370 -13.435  0.00  0.00    +0.015 C 
ATOM     20  C   UNL     1      37.186 -23.805 -11.223  0.00  0.00    +0.001 C 
ATOM     21  C   UNL     1      37.878 -25.925 -12.154  0.00  0.00    +0.001 C 
ATOM     22  C   UNL     1      37.544 -25.142 -11.049  0.00  0.00    +0.000 C 
ENDBRANCH   5  17
BRANCH  12  24
ATOM     23  O   UNL     1      28.682 -22.337 -16.592  0.00  0.00    -0.243 OA
ATOM     24  C   UNL     1      29.247 -23.396 -16.256  0.00  0.00    +0.357 C 
BRANCH  24  25
ATOM     25  O   UNL     1      28.542 -24.566 -16.169  0.00  0.00    -0.476 OA
ATOM     26  H   UNL     1      28.883 -25.348 -16.557  0.00  0.00    +0.295 HD
ENDBRANCH  24  25
ENDBRANCH  12  24
TORSDOF 3
ENDMDL
MODEL 4
REMARK VINA RESULT:      -9.8      1.757      4.477
REMARK  Name = 44129603
REMARK  3 active torsions:
REMARK  status: ('A' for Active; 'I' for Inactive)
REMARK    1  A    between atoms: N_5  and  C_17
REMARK    2  A    between atoms: C_12  and  C_24
REMARK    3  A    between atoms: C_24  and  O_25
REMARK                            x       y       z     vdW  Elec       q    Type
REMARK                         _______ _______ _______ _____ _____    ______ ____
ROOT
ATOM      1  N   UNL     1      35.000 -23.991 -13.264  0.00  0.00    -0.246 N 
ATOM      2  N   UNL     1      35.920 -24.276 -12.320  0.00  0.00    -0.163 NA
ATOM      3  N   UNL     1      33.576 -23.404 -15.800  0.00  0.00    -0.336 NA
ATOM      4  N   UNL     1      33.740 -22.500 -18.034  0.00  0.00    -0.170 NA
ATOM      5  N   UNL     1      31.677 -23.201 -17.161  0.00  0.00    -0.247 N 
ATOM      6  C   UNL     1      37.855 -23.372 -15.392  0.00  0.00    +0.035 C 
ATOM      7  C   UNL     1      36.912 -23.675 -14.282  0.00  0.00    +0.024 A 
ATOM      8  C   UNL     1      37.200 -22.449 -16.456  0.00  0.00    +0.035 C 
ATOM      9  C   UNL     1      35.547 -23.620 -14.453  0.00  0.00    +0.106 A 
ATOM     10  C   UNL     1      35.726 -22.701 -16.687  0.00  0.00    +0.030 C 
ATOM     11  C   UNL     1      34.905 -23.225 -15.686  0.00  0.00    +0.158 C 
ATOM     12  C   UNL     1      37.086 -24.085 -12.950  0.00  0.00    +0.174 A 
ATOM     13  C   UNL     1      35.070 -22.342 -17.849  0.00  0.00    +0.110 C 
ATOM     14  C   UNL     1      33.601 -24.129 -12.928  0.00  0.00    +0.154 C 
ATOM     15  C   UNL     1      33.068 -23.026 -16.989  0.00  0.00    +0.149 C 
ATOM     16  H   UNL     1      31.348 -22.914 -18.043  0.00  0.00    +0.165 HD
ENDROOT
BRANCH   5  17
ATOM     17  C   UNL     1      30.669 -23.706 -16.319  0.00  0.00    +0.058 C 
ATOM     18  C   UNL     1      29.411 -23.105 -16.301  0.00  0.00    +0.015 C 
ATOM     19  C   UNL     1      30.930 -24.807 -15.504  0.00  0.00    +0.015 C 
ATOM     20  C   UNL     1      28.411 -23.607 -15.467  0.00  0.00    +0.001 C 
ATOM     21  C   UNL     1      29.929 -25.308 -14.669  0.00  0.00    +0.001 C 
ATOM     22  C   UNL     1      28.671 -24.708 -14.651  0.00  0.00    +0.000 C 
ENDBRANCH   5  17
BRANCH  12  24
ATOM     23  O   UNL     1      38.748 -23.610 -11.297  0.00  0.00    -0.243 OA
ATOM     24  C   UNL     1      38.318 -24.295 -12.245  0.00  0.00    +0.357 C 
BRANCH  24  25
ATOM     25  O   UNL     1      39.033 -25.364 -12.714  0.00  0.00    -0.476 OA
ATOM     26  H   UNL     1      39.862 -25.577 -12.332  0.00  0.00    +0.295 HD
ENDBRANCH  24  25
ENDBRANCH  12  24
TORSDOF 3
ENDMDL
MODEL 5
REMARK VINA RESULT:      -9.8      3.616      6.706
REMARK  Name = 44129603
REMARK  3 active torsions:
REMARK  status: ('A' for Active; 'I' for Inactive)
REMARK    1  A    between atoms: N_5  and  C_17
REMARK    2  A    between atoms: C_12  and  C_24
REMARK    3  A    between atoms: C_24  and  O_25
REMARK                            x       y       z     vdW  Elec       q    Type
REMARK                         _______ _______ _______ _____ _____    ______ ____
ROOT
ATOM      1  N   UNL     1      36.410 -21.969 -17.718  0.00  0.00    -0.246 N 
ATOM      2  N   UNL     1      36.761 -21.191 -18.762  0.00  0.00    -0.163 NA
ATOM      3  N   UNL     1      35.013 -23.787 -15.833  0.00  0.00    -0.336 NA
ATOM      4  N   UNL     1      32.886 -24.613 -15.042  0.00  0.00    -0.170 NA
ATOM      5  N   UNL     1      34.894 -25.253 -14.008  0.00  0.00    -0.247 N 
ATOM      6  C   UNL     1      33.118 -21.919 -19.209  0.00  0.00    +0.035 C 
ATOM      7  C   UNL     1      34.548 -21.730 -18.844  0.00  0.00    +0.024 A 
ATOM      8  C   UNL     1      32.255 -22.261 -17.964  0.00  0.00    +0.035 C 
ATOM      9  C   UNL     1      35.093 -22.310 -17.721  0.00  0.00    +0.106 A 
ATOM     10  C   UNL     1      32.951 -23.122 -16.931  0.00  0.00    +0.030 C 
ATOM     11  C   UNL     1      34.339 -23.104 -16.777  0.00  0.00    +0.158 C 
ATOM     12  C   UNL     1      35.619 -21.053 -19.449  0.00  0.00    +0.174 A 
ATOM     13  C   UNL     1      32.273 -23.897 -16.011  0.00  0.00    +0.110 C 
ATOM     14  C   UNL     1      37.430 -22.352 -16.769  0.00  0.00    +0.154 C 
ATOM     15  C   UNL     1      34.232 -24.513 -15.012  0.00  0.00    +0.149 C 
ATOM     16  H   UNL     1      34.285 -25.770 -13.432  0.00  0.00    +0.165 HD
ENDROOT
BRANCH   5  17
ATOM     17  C   UNL     1      36.251 -25.398 -13.670  0.00  0.00    +0.058 C 
ATOM     18  C   UNL     1      37.077 -26.221 -14.435  0.00  0.00    +0.015 C 
ATOM     19  C   UNL     1      36.771 -24.716 -12.569  0.00  0.00    +0.015 C 
ATOM     20  C   UNL     1      38.424 -26.364 -14.100  0.00  0.00    +0.001 C 
ATOM     21  C   UNL     1      38.119 -24.859 -12.234  0.00  0.00    +0.001 C 
ATOM     22  C   UNL     1      38.944 -25.682 -12.999  0.00  0.00    +0.000 C 
ENDBRANCH   5  17
BRANCH  12  24
ATOM     23  O   UNL     1      34.832 -20.425 -21.618  0.00  0.00    -0.243 OA
ATOM     24  C   UNL     1      35.602 -20.270 -20.651  0.00  0.00    +0.357 C 
BRANCH  24  25
ATOM     25  O   UNL     1      36.549 -19.281 -20.664  0.00  0.00    -0.476 OA
ATOM     26  H   UNL     1      36.959 -19.014 -19.865  0.00  0.00    +0.295 HD
ENDBRANCH  24  25
ENDBRANCH  12  24
TORSDOF 3
ENDMDL
MODEL 6
REMARK VINA RESULT:      -9.7      2.619      4.442
REMARK  Name = 44129603
REMARK  3 active torsions:
REMARK  status: ('A' for Active; 'I' for Inactive)
REMARK    1  A    between atoms: N_5  and  C_17
REMARK    2  A    between atoms: C_12  and  C_24
REMARK    3  A    between atoms: C_24  and  O_25
REMARK                            x       y       z     vdW  Elec       q    Type
REMARK                         _______ _______ _______ _____ _____    ______ ____
ROOT
ATOM      1  N   UNL     1      32.158 -23.336 -16.010  0.00  0.00    -0.246 N 
ATOM      2  N   UNL     1      31.012 -23.851 -15.521  0.00  0.00    -0.163 NA
ATOM      3  N   UNL     1      34.993 -22.743 -16.659  0.00  0.00    -0.336 NA
ATOM      4  N   UNL     1      37.288 -22.843 -15.915  0.00  0.00    -0.170 NA
ATOM      5  N   UNL     1      36.714 -21.786 -17.931  0.00  0.00    -0.247 N 
ATOM      6  C   UNL     1      33.759 -25.316 -13.444  0.00  0.00    +0.035 C 
ATOM      7  C   UNL     1      32.820 -24.615 -14.361  0.00  0.00    +0.024 A 
ATOM      8  C   UNL     1      35.101 -24.545 -13.310  0.00  0.00    +0.035 C 
ATOM      9  C   UNL     1      33.266 -23.759 -15.343  0.00  0.00    +0.106 A 
ATOM     10  C   UNL     1      35.563 -23.857 -14.578  0.00  0.00    +0.030 C 
ATOM     11  C   UNL     1      34.656 -23.424 -15.549  0.00  0.00    +0.158 C 
ATOM     12  C   UNL     1      31.424 -24.635 -14.516  0.00  0.00    +0.174 A 
ATOM     13  C   UNL     1      36.880 -23.519 -14.818  0.00  0.00    +0.110 C 
ATOM     14  C   UNL     1      32.086 -22.451 -17.150  0.00  0.00    +0.154 C 
ATOM     15  C   UNL     1      36.310 -22.492 -16.777  0.00  0.00    +0.149 C 
ATOM     16  H   UNL     1      37.685 -21.625 -17.977  0.00  0.00    +0.165 HD
ENDROOT
BRANCH   5  17
ATOM     17  C   UNL     1      36.003 -21.266 -19.027  0.00  0.00    +0.058 C 
ATOM     18  C   UNL     1      34.670 -21.624 -19.227  0.00  0.00    +0.015 C 
ATOM     19  C   UNL     1      36.631 -20.392 -19.914  0.00  0.00    +0.015 C 
ATOM     20  C   UNL     1      33.964 -21.107 -20.314  0.00  0.00    +0.001 C 
ATOM     21  C   UNL     1      35.925 -19.875 -21.002  0.00  0.00    +0.001 C 
ATOM     22  C   UNL     1      34.592 -20.233 -21.201  0.00  0.00    +0.000 C 
ENDBRANCH   5  17
BRANCH  12  24
ATOM     23  O   UNL     1      29.582 -26.125 -14.189  0.00  0.00    -0.243 OA
ATOM     24  C   UNL     1      30.461 -25.364 -13.741  0.00  0.00    +0.357 C 
BRANCH  24  25
ATOM     25  O   UNL     1      30.581 -25.153 -12.394  0.00  0.00    -0.476 OA
ATOM     26  H   UNL     1      29.943 -25.507 -11.806  0.00  0.00    +0.295 HD
ENDBRANCH  24  25
ENDBRANCH  12  24
TORSDOF 3
ENDMDL
MODEL 7
REMARK VINA RESULT:      -9.4      8.350     11.827
REMARK  Name = 44129603
REMARK  3 active torsions:
REMARK  status: ('A' for Active; 'I' for Inactive)
REMARK    1  A    between atoms: N_5  and  C_17
REMARK    2  A    between atoms: C_12  and  C_24
REMARK    3  A    between atoms: C_24  and  O_25
REMARK                            x       y       z     vdW  Elec       q    Type
REMARK                         _______ _______ _______ _____ _____    ______ ____
ROOT
ATOM      1  N   UNL     1      33.050 -14.376 -20.621  0.00  0.00    -0.246 N 
ATOM      2  N   UNL     1      32.539 -13.372 -19.880  0.00  0.00    -0.163 NA
ATOM      3  N   UNL     1      34.278 -16.031 -22.757  0.00  0.00    -0.336 NA
ATOM      4  N   UNL     1      34.651 -16.297 -25.128  0.00  0.00    -0.170 NA
ATOM      5  N   UNL     1      35.343 -17.941 -23.602  0.00  0.00    -0.247 N 
ATOM      6  C   UNL     1      32.850 -12.021 -23.355  0.00  0.00    +0.035 C 
ATOM      7  C   UNL     1      32.786 -12.745 -22.058  0.00  0.00    +0.024 A 
ATOM      8  C   UNL     1      32.833 -13.005 -24.556  0.00  0.00    +0.035 C 
ATOM      9  C   UNL     1      33.210 -14.049 -21.932  0.00  0.00    +0.106 A 
ATOM     10  C   UNL     1      33.567 -14.308 -24.314  0.00  0.00    +0.030 C 
ATOM     11  C   UNL     1      33.704 -14.845 -23.032  0.00  0.00    +0.158 C 
ATOM     12  C   UNL     1      32.384 -12.377 -20.763  0.00  0.00    +0.174 A 
ATOM     13  C   UNL     1      34.057 -15.100 -25.334  0.00  0.00    +0.110 C 
ATOM     14  C   UNL     1      33.378 -15.621 -19.964  0.00  0.00    +0.154 C 
ATOM     15  C   UNL     1      34.726 -16.693 -23.840  0.00  0.00    +0.149 C 
ATOM     16  H   UNL     1      35.657 -18.390 -24.420  0.00  0.00    +0.165 HD
ENDROOT
BRANCH   5  17
ATOM     17  C   UNL     1      35.599 -18.668 -22.425  0.00  0.00    +0.058 C 
ATOM     18  C   UNL     1      34.616 -19.501 -21.893  0.00  0.00    +0.015 C 
ATOM     19  C   UNL     1      36.837 -18.555 -21.792  0.00  0.00    +0.015 C 
ATOM     20  C   UNL     1      34.870 -20.223 -20.726  0.00  0.00    +0.001 C 
ATOM     21  C   UNL     1      37.091 -19.278 -20.625  0.00  0.00    +0.001 C 
ATOM     22  C   UNL     1      36.108 -20.110 -20.093  0.00  0.00    +0.000 C 
ENDBRANCH   5  17
BRANCH  12  24
ATOM     23  O   UNL     1      31.198 -10.317 -21.029  0.00  0.00    -0.243 OA
ATOM     24  C   UNL     1      31.847 -11.119 -20.330  0.00  0.00    +0.357 C 
BRANCH  24  25
ATOM     25  O   UNL     1      32.115 -10.842 -19.016  0.00  0.00    -0.476 OA
ATOM     26  H   UNL     1      32.451 -10.001 -18.774  0.00  0.00    +0.295 HD
ENDBRANCH  24  25
ENDBRANCH  12  24
TORSDOF 3
ENDMDL
MODEL 8
REMARK VINA RESULT:      -9.3      3.216      6.223
REMARK  Name = 44129603
REMARK  3 active torsions:
REMARK  status: ('A' for Active; 'I' for Inactive)
REMARK    1  A    between atoms: N_5  and  C_17
REMARK    2  A    between atoms: C_12  and  C_24
REMARK    3  A    between atoms: C_24  and  O_25
REMARK                            x       y       z     vdW  Elec       q    Type
REMARK                         _______ _______ _______ _____ _____    ______ ____
ROOT
ATOM      1  N   UNL     1      34.159 -22.566 -17.778  0.00  0.00    -0.246 N 
ATOM      2  N   UNL     1      34.633 -21.922 -18.864  0.00  0.00    -0.163 NA
ATOM      3  N   UNL     1      33.745 -23.706 -15.070  0.00  0.00    -0.336 NA
ATOM      4  N   UNL     1      34.790 -24.486 -13.037  0.00  0.00    -0.170 NA
ATOM      5  N   UNL     1      32.473 -24.678 -13.357  0.00  0.00    -0.247 N 
ATOM      6  C   UNL     1      37.453 -21.990 -16.406  0.00  0.00    +0.035 C 
ATOM      7  C   UNL     1      36.227 -22.086 -17.243  0.00  0.00    +0.024 A 
ATOM      8  C   UNL     1      37.494 -23.109 -15.330  0.00  0.00    +0.035 C 
ATOM      9  C   UNL     1      35.080 -22.694 -16.785  0.00  0.00    +0.106 A 
ATOM     10  C   UNL     1      36.144 -23.482 -14.756  0.00  0.00    +0.030 C 
ATOM     11  C   UNL     1      34.966 -23.328 -15.492  0.00  0.00    +0.158 C 
ATOM     12  C   UNL     1      35.896 -21.628 -18.529  0.00  0.00    +0.174 A 
ATOM     13  C   UNL     1      35.986 -24.087 -13.524  0.00  0.00    +0.110 C 
ATOM     14  C   UNL     1      32.783 -23.006 -17.783  0.00  0.00    +0.154 C 
ATOM     15  C   UNL     1      33.732 -24.270 -13.847  0.00  0.00    +0.149 C 
ATOM     16  H   UNL     1      32.509 -25.082 -12.460  0.00  0.00    +0.165 HD
ENDROOT
BRANCH   5  17
ATOM     17  C   UNL     1      31.175 -24.619 -13.899  0.00  0.00    +0.058 C 
ATOM     18  C   UNL     1      30.682 -23.415 -14.398  0.00  0.00    +0.015 C 
ATOM     19  C   UNL     1      30.384 -25.767 -13.936  0.00  0.00    +0.015 C 
ATOM     20  C   UNL     1      29.396 -23.357 -14.936  0.00  0.00    +0.001 C 
ATOM     21  C   UNL     1      29.097 -25.709 -14.474  0.00  0.00    +0.001 C 
ATOM     22  C   UNL     1      28.604 -24.505 -14.974  0.00  0.00    +0.000 C 
ENDBRANCH   5  17
BRANCH  12  24
ATOM     23  O   UNL     1      37.322 -19.849 -19.251  0.00  0.00    -0.243 OA
ATOM     24  C   UNL     1      36.734 -20.928 -19.459  0.00  0.00    +0.357 C 
BRANCH  24  25
ATOM     25  O   UNL     1      36.852 -21.565 -20.665  0.00  0.00    -0.476 OA
ATOM     26  H   UNL     1      36.623 -21.117 -21.456  0.00  0.00    +0.295 HD
ENDBRANCH  24  25
ENDBRANCH  12  24
TORSDOF 3
ENDMDL
MODEL 9
REMARK VINA RESULT:      -9.3     12.069     15.091
REMARK  Name = 44129603
REMARK  3 active torsions:
REMARK  status: ('A' for Active; 'I' for Inactive)
REMARK    1  A    between atoms: N_5  and  C_17
REMARK    2  A    between atoms: C_12  and  C_24
REMARK    3  A    between atoms: C_24  and  O_25
REMARK                            x       y       z     vdW  Elec       q    Type
REMARK                         _______ _______ _______ _____ _____    ______ ____
ROOT
ATOM      1  N   UNL     1      32.780 -11.442 -23.493  0.00  0.00    -0.246 N 
ATOM      2  N   UNL     1      33.123 -12.476 -24.288  0.00  0.00    -0.163 NA
ATOM      3  N   UNL     1      32.217  -9.652 -21.194  0.00  0.00    -0.336 NA
ATOM      4  N   UNL     1      31.587  -9.508 -18.867  0.00  0.00    -0.170 NA
ATOM      5  N   UNL     1      31.827  -7.576 -20.177  0.00  0.00    -0.247 N 
ATOM      6  C   UNL     1      32.886 -13.883 -20.829  0.00  0.00    +0.035 C 
ATOM      7  C   UNL     1      32.906 -13.142 -22.119  0.00  0.00    +0.024 A 
ATOM      8  C   UNL     1      31.977 -13.178 -19.785  0.00  0.00    +0.035 C 
ATOM      9  C   UNL     1      32.633 -11.794 -22.187  0.00  0.00    +0.106 A 
ATOM     10  C   UNL     1      31.991 -11.666 -19.854  0.00  0.00    +0.030 C 
ATOM     11  C   UNL     1      32.260 -10.989 -21.046  0.00  0.00    +0.158 C 
ATOM     12  C   UNL     1      33.202 -13.511 -23.441  0.00  0.00    +0.174 A 
ATOM     13  C   UNL     1      31.645 -10.856 -18.790  0.00  0.00    +0.110 C 
ATOM     14  C   UNL     1      32.638 -10.133 -24.086  0.00  0.00    +0.154 C 
ATOM     15  C   UNL     1      31.879  -8.983 -20.075  0.00  0.00    +0.149 C 
ATOM     16  H   UNL     1      31.579  -7.127 -19.337  0.00  0.00    +0.165 HD
ENDROOT
BRANCH   5  17
ATOM     17  C   UNL     1      32.061  -6.689 -21.244  0.00  0.00    +0.058 C 
ATOM     18  C   UNL     1      33.217  -6.811 -22.013  0.00  0.00    +0.015 C 
ATOM     19  C   UNL     1      31.134  -5.687 -21.532  0.00  0.00    +0.015 C 
ATOM     20  C   UNL     1      33.449  -5.932 -23.072  0.00  0.00    +0.001 C 
ATOM     21  C   UNL     1      31.365  -4.807 -22.591  0.00  0.00    +0.001 C 
ATOM     22  C   UNL     1      32.522  -4.930 -23.360  0.00  0.00    +0.000 C 
ENDBRANCH   5  17
BRANCH  12  24
ATOM     23  O   UNL     1      34.402 -15.579 -23.452  0.00  0.00    -0.243 OA
ATOM     24  C   UNL     1      33.549 -14.811 -23.938  0.00  0.00    +0.357 C 
BRANCH  24  25
ATOM     25  O   UNL     1      32.836 -15.173 -25.049  0.00  0.00    -0.476 OA
ATOM     26  H   UNL     1      32.455 -14.514 -25.596  0.00  0.00    +0.295 HD
ENDBRANCH  24  25
ENDBRANCH  12  24
TORSDOF 3
ENDMDL
