MODEL 1
REMARK VINA RESULT:     -11.8      0.000      0.000
REMARK  Name = 42627769
REMARK  10 active torsions:
REMARK  status: ('A' for Active; 'I' for Inactive)
REMARK    1  A    between atoms: C_1  and  C_3
REMARK    2  A    between atoms: C_1  and  N_6
REMARK    3  A    between atoms: C_1  and  C_22
REMARK    4  A    between atoms: C_3  and  O_4
REMARK    5  A    between atoms: N_6  and  S_8
REMARK    6  A    between atoms: S_8  and  C_11
REMARK    7  A    between atoms: C_16  and  O_17
REMARK    8  A    between atoms: O_17  and  C_18
REMARK    9  A    between atoms: C_18  and  C_19
REMARK   10  A    between atoms: C_22  and  C_24
REMARK                            x       y       z     vdW  Elec       q    Type
REMARK                         _______ _______ _______ _____ _____    ______ ____
ROOT
ATOM      1  C   UNL     1      34.663 -23.716 -15.952  0.00  0.00    +0.178 C 
ENDROOT
BRANCH   1   3
ATOM      2  O   UNL     1      36.687 -23.068 -14.764  0.00  0.00    -0.249 OA
ATOM      3  C   UNL     1      36.002 -23.938 -15.286  0.00  0.00    +0.330 C 
BRANCH   3   4
ATOM      4  O   UNL     1      36.375 -25.244 -15.323  0.00  0.00    -0.479 OA
ATOM      5  H   UNL     1      36.022 -25.851 -14.703  0.00  0.00    +0.295 HD
ENDBRANCH   3   4
ENDBRANCH   1   3
BRANCH   1   6
ATOM      6  N   UNL     1      34.896 -22.806 -17.098  0.00  0.00    -0.170 NA
ATOM      7  H   UNL     1      34.868 -21.855 -16.731  0.00  0.00    +0.149 HD
BRANCH   6   8
ATOM      8  S   UNL     1      33.849 -22.846 -18.435  0.00  0.00    +0.061 S 
ATOM      9  O   UNL     1      32.517 -22.452 -18.018  0.00  0.00    -0.153 OA
ATOM     10  O   UNL     1      34.052 -24.092 -19.150  0.00  0.00    -0.153 OA
BRANCH   8  11
ATOM     11  C   UNL     1      34.506 -21.556 -19.450  0.00  0.00    +0.122 C 
ATOM     12  C   UNL     1      35.881 -21.333 -19.491  0.00  0.00    +0.023 C 
ATOM     13  C   UNL     1      33.647 -20.760 -20.209  0.00  0.00    +0.023 C 
ATOM     14  C   UNL     1      36.400 -20.314 -20.290  0.00  0.00    +0.038 C 
ATOM     15  C   UNL     1      34.166 -19.740 -21.007  0.00  0.00    +0.038 C 
ATOM     16  C   UNL     1      35.542 -19.518 -21.049  0.00  0.00    +0.140 C 
BRANCH  16  17
ATOM     17  O   UNL     1      36.048 -18.524 -21.827  0.00  0.00    -0.461 OA
BRANCH  17  18
ATOM     18  C   UNL     1      35.258 -18.102 -22.938  0.00  0.00    +0.281 C 
BRANCH  18  19
ATOM     19  C   UNL     1      34.970 -16.674 -22.825  0.00  0.00    -0.044 C 
ATOM     20  C   UNL     1      34.730 -15.500 -22.733  0.00  0.00    -0.086 C 
ATOM     21  C   UNL     1      34.438 -14.072 -22.619  0.00  0.00    +0.090 C 
ENDBRANCH  18  19
ENDBRANCH  17  18
ENDBRANCH  16  17
ENDBRANCH   8  11
ENDBRANCH   6   8
ENDBRANCH   1   6
BRANCH   1  22
ATOM     22  C   UNL     1      33.638 -23.079 -14.990  0.00  0.00    +0.056 C 
BRANCH  22  24
ATOM     23  N   UNL     1      31.839 -25.666 -13.144  0.00  0.00    -0.312 N 
ATOM     24  C   UNL     1      32.689 -24.046 -14.402  0.00  0.00    -0.004 C 
ATOM     25  C   UNL     1      31.318 -24.206 -14.749  0.00  0.00    +0.010 C 
ATOM     26  C   UNL     1      30.809 -25.228 -13.945  0.00  0.00    +0.048 C 
ATOM     27  C   UNL     1      32.980 -24.957 -13.413  0.00  0.00    +0.058 C 
ATOM     28  C   UNL     1      30.461 -23.578 -15.673  0.00  0.00    -0.003 C 
ATOM     29  C   UNL     1      29.479 -25.656 -14.020  0.00  0.00    +0.014 C 
ATOM     30  C   UNL     1      29.127 -23.995 -15.759  0.00  0.00    -0.022 C 
ATOM     31  C   UNL     1      28.646 -25.017 -14.944  0.00  0.00    -0.003 C 
ATOM     32  C   UNL     1      28.211 -23.332 -16.734  0.00  0.00    +0.031 C 
ATOM     33  H   UNL     1      31.767 -26.384 -12.475  0.00  0.00    +0.152 HD
ENDBRANCH  22  24
ENDBRANCH   1  22
TORSDOF 10
ENDMDL
MODEL 2
REMARK VINA RESULT:     -10.4      1.969      4.301
REMARK  Name = 42627769
REMARK  10 active torsions:
REMARK  status: ('A' for Active; 'I' for Inactive)
REMARK    1  A    between atoms: C_1  and  C_3
REMARK    2  A    between atoms: C_1  and  N_6
REMARK    3  A    between atoms: C_1  and  C_22
REMARK    4  A    between atoms: C_3  and  O_4
REMARK    5  A    between atoms: N_6  and  S_8
REMARK    6  A    between atoms: S_8  and  C_11
REMARK    7  A    between atoms: C_16  and  O_17
REMARK    8  A    between atoms: O_17  and  C_18
REMARK    9  A    between atoms: C_18  and  C_19
REMARK   10  A    between atoms: C_22  and  C_24
REMARK                            x       y       z     vdW  Elec       q    Type
REMARK                         _______ _______ _______ _____ _____    ______ ____
ROOT
ATOM      1  C   UNL     1      31.766 -23.064 -16.151  0.00  0.00    +0.178 C 
ENDROOT
BRANCH   1   3
ATOM      2  O   UNL     1      29.508 -22.456 -16.828  0.00  0.00    -0.249 OA
ATOM      3  C   UNL     1      30.258 -23.165 -16.169  0.00  0.00    +0.330 C 
BRANCH   3   4
ATOM      4  O   UNL     1      29.808 -24.159 -15.358  0.00  0.00    -0.479 OA
ATOM      5  H   UNL     1      30.338 -24.916 -15.207  0.00  0.00    +0.295 HD
ENDBRANCH   3   4
ENDBRANCH   1   3
BRANCH   1   6
ATOM      6  N   UNL     1      32.199 -22.793 -17.542  0.00  0.00    -0.170 NA
ATOM      7  H   UNL     1      31.555 -23.292 -18.155  0.00  0.00    +0.149 HD
BRANCH   6   8
ATOM      8  S   UNL     1      33.769 -23.213 -18.036  0.00  0.00    +0.061 S 
ATOM      9  O   UNL     1      33.723 -24.445 -18.799  0.00  0.00    -0.153 OA
ATOM     10  O   UNL     1      34.664 -23.091 -16.900  0.00  0.00    -0.153 OA
BRANCH   8  11
ATOM     11  C   UNL     1      34.165 -21.898 -19.148  0.00  0.00    +0.122 C 
ATOM     12  C   UNL     1      33.144 -21.174 -19.762  0.00  0.00    +0.023 C 
ATOM     13  C   UNL     1      35.499 -21.587 -19.414  0.00  0.00    +0.023 C 
ATOM     14  C   UNL     1      33.456 -20.137 -20.642  0.00  0.00    +0.038 C 
ATOM     15  C   UNL     1      35.811 -20.550 -20.294  0.00  0.00    +0.038 C 
ATOM     16  C   UNL     1      34.790 -19.826 -20.908  0.00  0.00    +0.140 C 
BRANCH  16  17
ATOM     17  O   UNL     1      35.093 -18.815 -21.767  0.00  0.00    -0.461 OA
BRANCH  17  18
ATOM     18  C   UNL     1      34.894 -19.063 -23.158  0.00  0.00    +0.281 C 
BRANCH  18  19
ATOM     19  C   UNL     1      34.499 -17.825 -23.828  0.00  0.00    -0.044 C 
ATOM     20  C   UNL     1      34.177 -16.807 -24.378  0.00  0.00    -0.086 C 
ATOM     21  C   UNL     1      33.784 -15.568 -25.048  0.00  0.00    +0.090 C 
ENDBRANCH  18  19
ENDBRANCH  17  18
ENDBRANCH  16  17
ENDBRANCH   8  11
ENDBRANCH   6   8
ENDBRANCH   1   6
BRANCH   1  22
ATOM     22  C   UNL     1      32.426 -24.367 -15.651  0.00  0.00    +0.056 C 
BRANCH  22  24
ATOM     23  N   UNL     1      33.474 -23.687 -12.220  0.00  0.00    -0.312 N 
ATOM     24  C   UNL     1      33.082 -24.238 -14.334  0.00  0.00    -0.004 C 
ATOM     25  C   UNL     1      34.348 -24.771 -13.963  0.00  0.00    +0.010 C 
ATOM     26  C   UNL     1      34.570 -24.410 -12.632  0.00  0.00    +0.048 C 
ATOM     27  C   UNL     1      32.569 -23.578 -13.242  0.00  0.00    +0.058 C 
ATOM     28  C   UNL     1      35.330 -25.525 -14.634  0.00  0.00    -0.003 C 
ATOM     29  C   UNL     1      35.730 -24.768 -11.936  0.00  0.00    +0.014 C 
ATOM     30  C   UNL     1      36.496 -25.891 -13.950  0.00  0.00    -0.022 C 
ATOM     31  C   UNL     1      36.690 -25.518 -12.622  0.00  0.00    -0.003 C 
ATOM     32  C   UNL     1      37.540 -26.693 -14.654  0.00  0.00    +0.031 C 
ATOM     33  H   UNL     1      33.357 -23.304 -11.321  0.00  0.00    +0.152 HD
ENDBRANCH  22  24
ENDBRANCH   1  22
TORSDOF 10
ENDMDL
MODEL 3
REMARK VINA RESULT:     -10.3      3.042      5.759
REMARK  Name = 42627769
REMARK  10 active torsions:
REMARK  status: ('A' for Active; 'I' for Inactive)
REMARK    1  A    between atoms: C_1  and  C_3
REMARK    2  A    between atoms: C_1  and  N_6
REMARK    3  A    between atoms: C_1  and  C_22
REMARK    4  A    between atoms: C_3  and  O_4
REMARK    5  A    between atoms: N_6  and  S_8
REMARK    6  A    between atoms: S_8  and  C_11
REMARK    7  A    between atoms: C_16  and  O_17
REMARK    8  A    between atoms: O_17  and  C_18
REMARK    9  A    between atoms: C_18  and  C_19
REMARK   10  A    between atoms: C_22  and  C_24
REMARK                            x       y       z     vdW  Elec       q    Type
REMARK                         _______ _______ _______ _____ _____    ______ ____
ROOT
ATOM      1  C   UNL     1      34.328 -20.448 -20.067  0.00  0.00    +0.178 C 
ENDROOT
BRANCH   1   3
ATOM      2  O   UNL     1      32.150 -20.927 -19.090  0.00  0.00    -0.249 OA
ATOM      3  C   UNL     1      32.824 -20.600 -20.058  0.00  0.00    +0.330 C 
BRANCH   3   4
ATOM      4  O   UNL     1      32.280 -20.322 -21.273  0.00  0.00    -0.479 OA
ATOM      5  H   UNL     1      31.573 -20.843 -21.600  0.00  0.00    +0.295 HD
ENDBRANCH   3   4
ENDBRANCH   1   3
BRANCH   1   6
ATOM      6  N   UNL     1      34.693 -19.835 -21.366  0.00  0.00    -0.170 NA
ATOM      7  H   UNL     1      34.854 -20.601 -22.020  0.00  0.00    +0.149 HD
BRANCH   6   8
ATOM      8  S   UNL     1      36.045 -18.812 -21.467  0.00  0.00    +0.061 S 
ATOM      9  O   UNL     1      36.762 -19.078 -22.700  0.00  0.00    -0.153 OA
ATOM     10  O   UNL     1      36.745 -18.835 -20.197  0.00  0.00    -0.153 OA
BRANCH   8  11
ATOM     11  C   UNL     1      35.288 -17.221 -21.610  0.00  0.00    +0.122 C 
ATOM     12  C   UNL     1      35.049 -16.674 -22.870  0.00  0.00    +0.023 C 
ATOM     13  C   UNL     1      34.933 -16.512 -20.463  0.00  0.00    +0.023 C 
ATOM     14  C   UNL     1      34.454 -15.417 -22.984  0.00  0.00    +0.038 C 
ATOM     15  C   UNL     1      34.338 -15.255 -20.576  0.00  0.00    +0.038 C 
ATOM     16  C   UNL     1      34.098 -14.708 -21.836  0.00  0.00    +0.140 C 
BRANCH  16  17
ATOM     17  O   UNL     1      33.519 -13.482 -21.947  0.00  0.00    -0.461 OA
BRANCH  17  18
ATOM     18  C   UNL     1      32.154 -13.370 -21.547  0.00  0.00    +0.281 C 
BRANCH  18  19
ATOM     19  C   UNL     1      32.022 -12.330 -20.528  0.00  0.00    -0.044 C 
ATOM     20  C   UNL     1      31.913 -11.478 -19.689  0.00  0.00    -0.086 C 
ATOM     21  C   UNL     1      31.781 -10.439 -18.668  0.00  0.00    +0.090 C 
ENDBRANCH  18  19
ENDBRANCH  17  18
ENDBRANCH  16  17
ENDBRANCH   8  11
ENDBRANCH   6   8
ENDBRANCH   1   6
BRANCH   1  22
ATOM     22  C   UNL     1      35.046 -21.806 -19.919  0.00  0.00    +0.056 C 
BRANCH  22  24
ATOM     23  N   UNL     1      36.949 -22.176 -16.825  0.00  0.00    -0.312 N 
ATOM     24  C   UNL     1      35.574 -22.060 -18.563  0.00  0.00    -0.004 C 
ATOM     25  C   UNL     1      34.854 -22.604 -17.463  0.00  0.00    +0.010 C 
ATOM     26  C   UNL     1      35.740 -22.667 -16.385  0.00  0.00    +0.048 C 
ATOM     27  C   UNL     1      36.858 -21.806 -18.140  0.00  0.00    +0.058 C 
ATOM     28  C   UNL     1      33.531 -23.053 -17.281  0.00  0.00    -0.003 C 
ATOM     29  C   UNL     1      35.368 -23.158 -15.129  0.00  0.00    +0.014 C 
ATOM     30  C   UNL     1      33.144 -23.546 -16.029  0.00  0.00    -0.022 C 
ATOM     31  C   UNL     1      34.050 -23.596 -14.971  0.00  0.00    -0.003 C 
ATOM     32  C   UNL     1      31.743 -24.021 -15.828  0.00  0.00    +0.031 C 
ATOM     33  H   UNL     1      37.761 -22.102 -16.274  0.00  0.00    +0.152 HD
ENDBRANCH  22  24
ENDBRANCH   1  22
TORSDOF 10
ENDMDL
MODEL 4
REMARK VINA RESULT:     -10.2      8.102     15.170
REMARK  Name = 42627769
REMARK  10 active torsions:
REMARK  status: ('A' for Active; 'I' for Inactive)
REMARK    1  A    between atoms: C_1  and  C_3
REMARK    2  A    between atoms: C_1  and  N_6
REMARK    3  A    between atoms: C_1  and  C_22
REMARK    4  A    between atoms: C_3  and  O_4
REMARK    5  A    between atoms: N_6  and  S_8
REMARK    6  A    between atoms: S_8  and  C_11
REMARK    7  A    between atoms: C_16  and  O_17
REMARK    8  A    between atoms: O_17  and  C_18
REMARK    9  A    between atoms: C_18  and  C_19
REMARK   10  A    between atoms: C_22  and  C_24
REMARK                            x       y       z     vdW  Elec       q    Type
REMARK                         _______ _______ _______ _____ _____    ______ ____
ROOT
ATOM      1  C   UNL     1      31.859  -8.866 -20.529  0.00  0.00    +0.178 C 
ENDROOT
BRANCH   1   3
ATOM      2  O   UNL     1      32.698  -9.670 -18.389  0.00  0.00    -0.249 OA
ATOM      3  C   UNL     1      31.822  -9.663 -19.245  0.00  0.00    +0.330 C 
BRANCH   3   4
ATOM      4  O   UNL     1      30.679 -10.390 -19.133  0.00  0.00    -0.479 OA
ATOM      5  H   UNL     1      30.359 -10.632 -18.286  0.00  0.00    +0.295 HD
ENDBRANCH   3   4
ENDBRANCH   1   3
BRANCH   1   6
ATOM      6  N   UNL     1      32.682  -9.635 -21.492  0.00  0.00    -0.170 NA
ATOM      7  H   UNL     1      33.144  -8.955 -22.095  0.00  0.00    +0.149 HD
BRANCH   6   8
ATOM      8  S   UNL     1      31.944 -10.775 -22.513  0.00  0.00    +0.061 S 
ATOM      9  O   UNL     1      32.302 -10.493 -23.890  0.00  0.00    -0.153 OA
ATOM     10  O   UNL     1      30.550 -10.908 -22.134  0.00  0.00    -0.153 OA
BRANCH   8  11
ATOM     11  C   UNL     1      32.754 -12.271 -22.034  0.00  0.00    +0.122 C 
ATOM     12  C   UNL     1      32.373 -12.926 -20.864  0.00  0.00    +0.023 C 
ATOM     13  C   UNL     1      33.777 -12.794 -22.825  0.00  0.00    +0.023 C 
ATOM     14  C   UNL     1      33.014 -14.105 -20.485  0.00  0.00    +0.038 C 
ATOM     15  C   UNL     1      34.418 -13.974 -22.446  0.00  0.00    +0.038 C 
ATOM     16  C   UNL     1      34.036 -14.629 -21.276  0.00  0.00    +0.140 C 
BRANCH  16  17
ATOM     17  O   UNL     1      34.661 -15.780 -20.905  0.00  0.00    -0.461 OA
BRANCH  17  18
ATOM     18  C   UNL     1      35.133 -16.629 -21.950  0.00  0.00    +0.281 C 
BRANCH  18  19
ATOM     19  C   UNL     1      35.212 -18.007 -21.467  0.00  0.00    -0.044 C 
ATOM     20  C   UNL     1      35.280 -19.139 -21.072  0.00  0.00    -0.086 C 
ATOM     21  C   UNL     1      35.361 -20.517 -20.590  0.00  0.00    +0.090 C 
ENDBRANCH  18  19
ENDBRANCH  17  18
ENDBRANCH  16  17
ENDBRANCH   8  11
ENDBRANCH   6   8
ENDBRANCH   1   6
BRANCH   1  22
ATOM     22  C   UNL     1      32.480  -7.468 -20.323  0.00  0.00    +0.056 C 
BRANCH  22  24
ATOM     23  N   UNL     1      30.761  -4.902 -22.270  0.00  0.00    -0.312 N 
ATOM     24  C   UNL     1      32.005  -6.455 -21.287  0.00  0.00    -0.004 C 
ATOM     25  C   UNL     1      32.664  -6.047 -22.480  0.00  0.00    +0.010 C 
ATOM     26  C   UNL     1      31.862  -5.072 -23.078  0.00  0.00    +0.048 C 
ATOM     27  C   UNL     1      30.839  -5.733 -21.184  0.00  0.00    +0.058 C 
ATOM     28  C   UNL     1      33.868  -6.415 -23.112  0.00  0.00    -0.003 C 
ATOM     29  C   UNL     1      32.205  -4.445 -24.281  0.00  0.00    +0.014 C 
ATOM     30  C   UNL     1      34.225  -5.796 -24.315  0.00  0.00    -0.022 C 
ATOM     31  C   UNL     1      33.405  -4.826 -24.889  0.00  0.00    -0.003 C 
ATOM     32  C   UNL     1      35.500  -6.180 -24.989  0.00  0.00    +0.031 C 
ATOM     33  H   UNL     1      30.024  -4.273 -22.446  0.00  0.00    +0.152 HD
ENDBRANCH  22  24
ENDBRANCH   1  22
TORSDOF 10
ENDMDL
MODEL 5
REMARK VINA RESULT:      -9.9      3.519     10.272
REMARK  Name = 42627769
REMARK  10 active torsions:
REMARK  status: ('A' for Active; 'I' for Inactive)
REMARK    1  A    between atoms: C_1  and  C_3
REMARK    2  A    between atoms: C_1  and  N_6
REMARK    3  A    between atoms: C_1  and  C_22
REMARK    4  A    between atoms: C_3  and  O_4
REMARK    5  A    between atoms: N_6  and  S_8
REMARK    6  A    between atoms: S_8  and  C_11
REMARK    7  A    between atoms: C_16  and  O_17
REMARK    8  A    between atoms: O_17  and  C_18
REMARK    9  A    between atoms: C_18  and  C_19
REMARK   10  A    between atoms: C_22  and  C_24
REMARK                            x       y       z     vdW  Elec       q    Type
REMARK                         _______ _______ _______ _____ _____    ______ ____
ROOT
ATOM      1  C   UNL     1      35.063 -17.185 -23.505  0.00  0.00    +0.178 C 
ENDROOT
BRANCH   1   3
ATOM      2  O   UNL     1      33.366 -16.613 -25.156  0.00  0.00    -0.249 OA
ATOM      3  C   UNL     1      33.880 -17.439 -24.413  0.00  0.00    +0.330 C 
BRANCH   3   4
ATOM      4  O   UNL     1      33.437 -18.721 -24.319  0.00  0.00    -0.479 OA
ATOM      5  H   UNL     1      33.590 -19.213 -23.537  0.00  0.00    +0.295 HD
ENDBRANCH   3   4
ENDBRANCH   1   3
BRANCH   1   6
ATOM      6  N   UNL     1      34.804 -17.915 -22.242  0.00  0.00    -0.170 NA
ATOM      7  H   UNL     1      34.649 -17.212 -21.520  0.00  0.00    +0.149 HD
BRANCH   6   8
ATOM      8  S   UNL     1      35.967 -18.994 -21.635  0.00  0.00    +0.061 S 
ATOM      9  O   UNL     1      36.842 -18.294 -20.714  0.00  0.00    -0.153 OA
ATOM     10  O   UNL     1      36.526 -19.748 -22.741  0.00  0.00    -0.153 OA
BRANCH   8  11
ATOM     11  C   UNL     1      34.972 -20.114 -20.698  0.00  0.00    +0.122 C 
ATOM     12  C   UNL     1      33.582 -20.015 -20.742  0.00  0.00    +0.023 C 
ATOM     13  C   UNL     1      35.577 -21.094 -19.911  0.00  0.00    +0.023 C 
ATOM     14  C   UNL     1      32.796 -20.897 -20.000  0.00  0.00    +0.038 C 
ATOM     15  C   UNL     1      34.791 -21.976 -19.169  0.00  0.00    +0.038 C 
ATOM     16  C   UNL     1      33.401 -21.878 -19.214  0.00  0.00    +0.140 C 
BRANCH  16  17
ATOM     17  O   UNL     1      32.634 -22.738 -18.490  0.00  0.00    -0.461 OA
BRANCH  17  18
ATOM     18  C   UNL     1      33.200 -23.260 -17.289  0.00  0.00    +0.281 C 
BRANCH  18  19
ATOM     19  C   UNL     1      32.185 -23.293 -16.239  0.00  0.00    -0.044 C 
ATOM     20  C   UNL     1      31.352 -23.321 -15.373  0.00  0.00    -0.086 C 
ATOM     21  C   UNL     1      30.338 -23.353 -14.320  0.00  0.00    +0.090 C 
ENDBRANCH  18  19
ENDBRANCH  17  18
ENDBRANCH  16  17
ENDBRANCH   8  11
ENDBRANCH   6   8
ENDBRANCH   1   6
BRANCH   1  22
ATOM     22  C   UNL     1      35.245 -15.682 -23.202  0.00  0.00    +0.056 C 
BRANCH  22  24
ATOM     23  N   UNL     1      33.544 -15.088 -20.025  0.00  0.00    -0.312 N 
ATOM     24  C   UNL     1      34.462 -15.207 -22.043  0.00  0.00    -0.004 C 
ATOM     25  C   UNL     1      33.688 -14.015 -21.976  0.00  0.00    +0.010 C 
ATOM     26  C   UNL     1      33.123 -13.965 -20.700  0.00  0.00    +0.048 C 
ATOM     27  C   UNL     1      34.354 -15.845 -20.829  0.00  0.00    +0.058 C 
ATOM     28  C   UNL     1      33.412 -12.971 -22.881  0.00  0.00    -0.003 C 
ATOM     29  C   UNL     1      32.293 -12.919 -20.282  0.00  0.00    +0.014 C 
ATOM     30  C   UNL     1      32.583 -11.918 -22.477  0.00  0.00    -0.022 C 
ATOM     31  C   UNL     1      32.034 -11.894 -21.196  0.00  0.00    -0.003 C 
ATOM     32  C   UNL     1      32.288 -10.808 -23.430  0.00  0.00    +0.031 C 
ATOM     33  H   UNL     1      33.299 -15.316 -19.099  0.00  0.00    +0.152 HD
ENDBRANCH  22  24
ENDBRANCH   1  22
TORSDOF 10
ENDMDL
MODEL 6
REMARK VINA RESULT:      -9.8      3.471     10.322
REMARK  Name = 42627769
REMARK  10 active torsions:
REMARK  status: ('A' for Active; 'I' for Inactive)
REMARK    1  A    between atoms: C_1  and  C_3
REMARK    2  A    between atoms: C_1  and  N_6
REMARK    3  A    between atoms: C_1  and  C_22
REMARK    4  A    between atoms: C_3  and  O_4
REMARK    5  A    between atoms: N_6  and  S_8
REMARK    6  A    between atoms: S_8  and  C_11
REMARK    7  A    between atoms: C_16  and  O_17
REMARK    8  A    between atoms: O_17  and  C_18
REMARK    9  A    between atoms: C_18  and  C_19
REMARK   10  A    between atoms: C_22  and  C_24
REMARK                            x       y       z     vdW  Elec       q    Type
REMARK                         _______ _______ _______ _____ _____    ______ ____
ROOT
ATOM      1  C   UNL     1      35.271 -18.202 -23.561  0.00  0.00    +0.178 C 
ENDROOT
BRANCH   1   3
ATOM      2  O   UNL     1      33.099 -18.699 -24.543  0.00  0.00    -0.249 OA
ATOM      3  C   UNL     1      34.191 -19.084 -24.145  0.00  0.00    +0.330 C 
BRANCH   3   4
ATOM      4  O   UNL     1      34.571 -20.388 -24.187  0.00  0.00    -0.479 OA
ATOM      5  H   UNL     1      35.084 -20.750 -23.491  0.00  0.00    +0.295 HD
ENDBRANCH   3   4
ENDBRANCH   1   3
BRANCH   1   6
ATOM      6  N   UNL     1      36.151 -19.075 -22.748  0.00  0.00    -0.170 NA
ATOM      7  H   UNL     1      35.790 -20.024 -22.839  0.00  0.00    +0.149 HD
BRANCH   6   8
ATOM      8  S   UNL     1      36.336 -18.776 -21.087  0.00  0.00    +0.061 S 
ATOM      9  O   UNL     1      35.684 -17.527 -20.744  0.00  0.00    -0.153 OA
ATOM     10  O   UNL     1      37.724 -18.999 -20.724  0.00  0.00    -0.153 OA
BRANCH   8  11
ATOM     11  C   UNL     1      35.399 -20.094 -20.373  0.00  0.00    +0.122 C 
ATOM     12  C   UNL     1      34.012 -20.115 -20.509  0.00  0.00    +0.023 C 
ATOM     13  C   UNL     1      36.047 -21.111 -19.671  0.00  0.00    +0.023 C 
ATOM     14  C   UNL     1      33.271 -21.153 -19.944  0.00  0.00    +0.038 C 
ATOM     15  C   UNL     1      35.306 -22.149 -19.106  0.00  0.00    +0.038 C 
ATOM     16  C   UNL     1      33.919 -22.171 -19.242  0.00  0.00    +0.140 C 
BRANCH  16  17
ATOM     17  O   UNL     1      33.196 -23.183 -18.691  0.00  0.00    -0.461 OA
BRANCH  17  18
ATOM     18  C   UNL     1      33.494 -23.533 -17.340  0.00  0.00    +0.281 C 
BRANCH  18  19
ATOM     19  C   UNL     1      32.293 -23.396 -16.518  0.00  0.00    -0.044 C 
ATOM     20  C   UNL     1      31.305 -23.285 -15.845  0.00  0.00    -0.086 C 
ATOM     21  C   UNL     1      30.102 -23.149 -15.025  0.00  0.00    +0.090 C 
ENDBRANCH  18  19
ENDBRANCH  17  18
ENDBRANCH  16  17
ENDBRANCH   8  11
ENDBRANCH   6   8
ENDBRANCH   1   6
BRANCH   1  22
ATOM     22  C   UNL     1      34.685 -17.088 -22.667  0.00  0.00    +0.056 C 
BRANCH  22  24
ATOM     23  N   UNL     1      34.019 -14.399 -25.046  0.00  0.00    -0.312 N 
ATOM     24  C   UNL     1      34.311 -15.864 -23.404  0.00  0.00    -0.004 C 
ATOM     25  C   UNL     1      33.700 -14.701 -22.859  0.00  0.00    +0.010 C 
ATOM     26  C   UNL     1      33.528 -13.798 -23.910  0.00  0.00    +0.048 C 
ATOM     27  C   UNL     1      34.494 -15.649 -24.750  0.00  0.00    +0.058 C 
ATOM     28  C   UNL     1      33.276 -14.328 -21.568  0.00  0.00    -0.003 C 
ATOM     29  C   UNL     1      32.951 -12.535 -23.734  0.00  0.00    +0.014 C 
ATOM     30  C   UNL     1      32.697 -13.068 -21.377  0.00  0.00    -0.022 C 
ATOM     31  C   UNL     1      32.537 -12.187 -22.445  0.00  0.00    -0.003 C 
ATOM     32  C   UNL     1      32.245 -12.666 -20.012  0.00  0.00    +0.031 C 
ATOM     33  H   UNL     1      34.027 -13.992 -25.942  0.00  0.00    +0.152 HD
ENDBRANCH  22  24
ENDBRANCH   1  22
TORSDOF 10
ENDMDL
MODEL 7
REMARK VINA RESULT:      -9.8      2.138      3.079
REMARK  Name = 42627769
REMARK  10 active torsions:
REMARK  status: ('A' for Active; 'I' for Inactive)
REMARK    1  A    between atoms: C_1  and  C_3
REMARK    2  A    between atoms: C_1  and  N_6
REMARK    3  A    between atoms: C_1  and  C_22
REMARK    4  A    between atoms: C_3  and  O_4
REMARK    5  A    between atoms: N_6  and  S_8
REMARK    6  A    between atoms: S_8  and  C_11
REMARK    7  A    between atoms: C_16  and  O_17
REMARK    8  A    between atoms: O_17  and  C_18
REMARK    9  A    between atoms: C_18  and  C_19
REMARK   10  A    between atoms: C_22  and  C_24
REMARK                            x       y       z     vdW  Elec       q    Type
REMARK                         _______ _______ _______ _____ _____    ______ ____
ROOT
ATOM      1  C   UNL     1      34.375 -23.974 -13.650  0.00  0.00    +0.178 C 
ENDROOT
BRANCH   1   3
ATOM      2  O   UNL     1      34.731 -23.878 -11.243  0.00  0.00    -0.249 OA
ATOM      3  C   UNL     1      34.918 -24.436 -12.316  0.00  0.00    +0.330 C 
BRANCH   3   4
ATOM      4  O   UNL     1      35.653 -25.573 -12.436  0.00  0.00    -0.479 OA
ATOM      5  H   UNL     1      35.286 -26.398 -12.184  0.00  0.00    +0.295 HD
ENDBRANCH   3   4
ENDBRANCH   1   3
BRANCH   1   6
ATOM      6  N   UNL     1      35.327 -22.969 -14.179  0.00  0.00    -0.170 NA
ATOM      7  H   UNL     1      34.772 -22.257 -14.653  0.00  0.00    +0.149 HD
BRANCH   6   8
ATOM      8  S   UNL     1      36.542 -23.445 -15.265  0.00  0.00    +0.061 S 
ATOM      9  O   UNL     1      36.526 -24.889 -15.406  0.00  0.00    -0.153 OA
ATOM     10  O   UNL     1      37.774 -22.760 -14.919  0.00  0.00    -0.153 OA
BRANCH   8  11
ATOM     11  C   UNL     1      35.971 -22.743 -16.783  0.00  0.00    +0.122 C 
ATOM     12  C   UNL     1      34.658 -22.957 -17.199  0.00  0.00    +0.023 C 
ATOM     13  C   UNL     1      36.835 -21.977 -17.566  0.00  0.00    +0.023 C 
ATOM     14  C   UNL     1      34.207 -22.405 -18.398  0.00  0.00    +0.038 C 
ATOM     15  C   UNL     1      36.384 -21.425 -18.765  0.00  0.00    +0.038 C 
ATOM     16  C   UNL     1      35.071 -21.639 -19.181  0.00  0.00    +0.140 C 
BRANCH  16  17
ATOM     17  O   UNL     1      34.631 -21.101 -20.351  0.00  0.00    -0.461 OA
BRANCH  17  18
ATOM     18  C   UNL     1      35.267 -19.904 -20.797  0.00  0.00    +0.281 C 
BRANCH  18  19
ATOM     19  C   UNL     1      34.764 -19.541 -22.120  0.00  0.00    -0.044 C 
ATOM     20  C   UNL     1      34.347 -19.242 -23.206  0.00  0.00    -0.086 C 
ATOM     21  C   UNL     1      33.842 -18.877 -24.529  0.00  0.00    +0.090 C 
ENDBRANCH  18  19
ENDBRANCH  17  18
ENDBRANCH  16  17
ENDBRANCH   8  11
ENDBRANCH   6   8
ENDBRANCH   1   6
BRANCH   1  22
ATOM     22  C   UNL     1      32.977 -23.336 -13.514  0.00  0.00    +0.056 C 
BRANCH  22  24
ATOM     23  N   UNL     1      30.632 -26.114 -13.170  0.00  0.00    -0.312 N 
ATOM     24  C   UNL     1      31.868 -24.311 -13.554  0.00  0.00    -0.004 C 
ATOM     25  C   UNL     1      30.663 -24.191 -14.302  0.00  0.00    +0.010 C 
ATOM     26  C   UNL     1      29.906 -25.336 -14.043  0.00  0.00    +0.048 C 
ATOM     27  C   UNL     1      31.820 -25.502 -12.869  0.00  0.00    +0.058 C 
ATOM     28  C   UNL     1      30.143 -23.218 -15.177  0.00  0.00    -0.003 C 
ATOM     29  C   UNL     1      28.649 -25.557 -14.618  0.00  0.00    +0.014 C 
ATOM     30  C   UNL     1      28.887 -23.425 -15.760  0.00  0.00    -0.022 C 
ATOM     31  C   UNL     1      28.153 -24.577 -15.483  0.00  0.00    -0.003 C 
ATOM     32  C   UNL     1      28.328 -22.396 -16.687  0.00  0.00    +0.031 C 
ATOM     33  H   UNL     1      30.341 -26.984 -12.814  0.00  0.00    +0.152 HD
ENDBRANCH  22  24
ENDBRANCH   1  22
TORSDOF 10
ENDMDL
MODEL 8
REMARK VINA RESULT:      -9.8      2.760      7.813
REMARK  Name = 42627769
REMARK  10 active torsions:
REMARK  status: ('A' for Active; 'I' for Inactive)
REMARK    1  A    between atoms: C_1  and  C_3
REMARK    2  A    between atoms: C_1  and  N_6
REMARK    3  A    between atoms: C_1  and  C_22
REMARK    4  A    between atoms: C_3  and  O_4
REMARK    5  A    between atoms: N_6  and  S_8
REMARK    6  A    between atoms: S_8  and  C_11
REMARK    7  A    between atoms: C_16  and  O_17
REMARK    8  A    between atoms: O_17  and  C_18
REMARK    9  A    between atoms: C_18  and  C_19
REMARK   10  A    between atoms: C_22  and  C_24
REMARK                            x       y       z     vdW  Elec       q    Type
REMARK                         _______ _______ _______ _____ _____    ______ ____
ROOT
ATOM      1  C   UNL     1      36.107 -22.773 -16.247  0.00  0.00    +0.178 C 
ENDROOT
BRANCH   1   3
ATOM      2  O   UNL     1      38.155 -23.507 -15.152  0.00  0.00    -0.249 OA
ATOM      3  C   UNL     1      37.477 -22.606 -15.630  0.00  0.00    +0.330 C 
BRANCH   3   4
ATOM      4  O   UNL     1      37.893 -21.312 -15.666  0.00  0.00    -0.479 OA
ATOM      5  H   UNL     1      38.639 -21.046 -15.165  0.00  0.00    +0.295 HD
ENDBRANCH   3   4
ENDBRANCH   1   3
BRANCH   1   6
ATOM      6  N   UNL     1      35.583 -24.081 -15.787  0.00  0.00    -0.170 NA
ATOM      7  H   UNL     1      34.776 -24.298 -16.371  0.00  0.00    +0.149 HD
BRANCH   6   8
ATOM      8  S   UNL     1      35.087 -24.273 -14.174  0.00  0.00    +0.061 S 
ATOM      9  O   UNL     1      35.494 -23.115 -13.402  0.00  0.00    -0.153 OA
ATOM     10  O   UNL     1      35.444 -25.608 -13.731  0.00  0.00    -0.153 OA
BRANCH   8  11
ATOM     11  C   UNL     1      33.327 -24.235 -14.327  0.00  0.00    +0.122 C 
ATOM     12  C   UNL     1      32.547 -25.161 -13.636  0.00  0.00    +0.023 C 
ATOM     13  C   UNL     1      32.717 -23.280 -15.141  0.00  0.00    +0.023 C 
ATOM     14  C   UNL     1      31.158 -25.133 -13.758  0.00  0.00    +0.038 C 
ATOM     15  C   UNL     1      31.328 -23.252 -15.263  0.00  0.00    +0.038 C 
ATOM     16  C   UNL     1      30.548 -24.178 -14.571  0.00  0.00    +0.140 C 
BRANCH  16  17
ATOM     17  O   UNL     1      29.193 -24.151 -14.691  0.00  0.00    -0.461 OA
BRANCH  17  18
ATOM     18  C   UNL     1      28.646 -24.488 -15.965  0.00  0.00    +0.281 C 
BRANCH  18  19
ATOM     19  C   UNL     1      27.738 -23.431 -16.407  0.00  0.00    -0.044 C 
ATOM     20  C   UNL     1      26.990 -22.564 -16.770  0.00  0.00    -0.086 C 
ATOM     21  C   UNL     1      26.080 -21.508 -17.211  0.00  0.00    +0.090 C 
ENDBRANCH  18  19
ENDBRANCH  17  18
ENDBRANCH  16  17
ENDBRANCH   8  11
ENDBRANCH   6   8
ENDBRANCH   1   6
BRANCH   1  22
ATOM     22  C   UNL     1      36.163 -22.755 -17.789  0.00  0.00    +0.056 C 
BRANCH  22  24
ATOM     23  N   UNL     1      32.757 -22.096 -18.930  0.00  0.00    -0.312 N 
ATOM     24  C   UNL     1      34.909 -22.305 -18.427  0.00  0.00    -0.004 C 
ATOM     25  C   UNL     1      34.786 -21.336 -19.462  0.00  0.00    +0.010 C 
ATOM     26  C   UNL     1      33.426 -21.224 -19.758  0.00  0.00    +0.048 C 
ATOM     27  C   UNL     1      33.645 -22.754 -18.122  0.00  0.00    +0.058 C 
ATOM     28  C   UNL     1      35.704 -20.541 -20.177  0.00  0.00    -0.003 C 
ATOM     29  C   UNL     1      32.936 -20.354 -20.739  0.00  0.00    +0.014 C 
ATOM     30  C   UNL     1      35.228 -19.666 -21.160  0.00  0.00    -0.022 C 
ATOM     31  C   UNL     1      33.865 -19.575 -21.435  0.00  0.00    -0.003 C 
ATOM     32  C   UNL     1      36.195 -18.820 -21.921  0.00  0.00    +0.031 C 
ATOM     33  H   UNL     1      31.782 -22.228 -18.920  0.00  0.00    +0.152 HD
ENDBRANCH  22  24
ENDBRANCH   1  22
TORSDOF 10
ENDMDL
MODEL 9
REMARK VINA RESULT:      -9.7      5.038      8.090
REMARK  Name = 42627769
REMARK  10 active torsions:
REMARK  status: ('A' for Active; 'I' for Inactive)
REMARK    1  A    between atoms: C_1  and  C_3
REMARK    2  A    between atoms: C_1  and  N_6
REMARK    3  A    between atoms: C_1  and  C_22
REMARK    4  A    between atoms: C_3  and  O_4
REMARK    5  A    between atoms: N_6  and  S_8
REMARK    6  A    between atoms: S_8  and  C_11
REMARK    7  A    between atoms: C_16  and  O_17
REMARK    8  A    between atoms: O_17  and  C_18
REMARK    9  A    between atoms: C_18  and  C_19
REMARK   10  A    between atoms: C_22  and  C_24
REMARK                            x       y       z     vdW  Elec       q    Type
REMARK                         _______ _______ _______ _____ _____    ______ ____
ROOT
ATOM      1  C   UNL     1      34.394 -18.613 -22.906  0.00  0.00    +0.178 C 
ENDROOT
BRANCH   1   3
ATOM      2  O   UNL     1      35.018 -20.473 -24.349  0.00  0.00    -0.249 OA
ATOM      3  C   UNL     1      34.208 -19.614 -24.025  0.00  0.00    +0.330 C 
BRANCH   3   4
ATOM      4  O   UNL     1      33.010 -19.458 -24.648  0.00  0.00    -0.479 OA
ATOM      5  H   UNL     1      32.218 -19.686 -24.204  0.00  0.00    +0.295 HD
ENDBRANCH   3   4
ENDBRANCH   1   3
BRANCH   1   6
ATOM      6  N   UNL     1      35.239 -17.519 -23.440  0.00  0.00    -0.170 NA
ATOM      7  H   UNL     1      35.675 -17.064 -22.639  0.00  0.00    +0.149 HD
BRANCH   6   8
ATOM      8  S   UNL     1      34.537 -16.291 -24.380  0.00  0.00    +0.061 S 
ATOM      9  O   UNL     1      33.391 -16.822 -25.092  0.00  0.00    -0.153 OA
ATOM     10  O   UNL     1      35.587 -15.596 -25.101  0.00  0.00    -0.153 OA
BRANCH   8  11
ATOM     11  C   UNL     1      33.941 -15.180 -23.141  0.00  0.00    +0.122 C 
ATOM     12  C   UNL     1      33.015 -14.194 -23.477  0.00  0.00    +0.023 C 
ATOM     13  C   UNL     1      34.401 -15.287 -21.828  0.00  0.00    +0.023 C 
ATOM     14  C   UNL     1      32.546 -13.315 -22.500  0.00  0.00    +0.038 C 
ATOM     15  C   UNL     1      33.932 -14.408 -20.852  0.00  0.00    +0.038 C 
ATOM     16  C   UNL     1      33.004 -13.423 -21.187  0.00  0.00    +0.140 C 
BRANCH  16  17
ATOM     17  O   UNL     1      32.548 -12.565 -20.235  0.00  0.00    -0.461 OA
BRANCH  17  18
ATOM     18  C   UNL     1      31.425 -11.753 -20.577  0.00  0.00    +0.281 C 
BRANCH  18  19
ATOM     19  C   UNL     1      31.732 -10.349 -20.307  0.00  0.00    -0.044 C 
ATOM     20  C   UNL     1      31.985  -9.196 -20.082  0.00  0.00    -0.086 C 
ATOM     21  C   UNL     1      32.294  -7.793 -19.810  0.00  0.00    +0.090 C 
ENDBRANCH  18  19
ENDBRANCH  17  18
ENDBRANCH  16  17
ENDBRANCH   8  11
ENDBRANCH   6   8
ENDBRANCH   1   6
BRANCH   1  22
ATOM     22  C   UNL     1      35.084 -19.243 -21.678  0.00  0.00    +0.056 C 
BRANCH  22  24
ATOM     23  N   UNL     1      32.397 -21.169 -20.127  0.00  0.00    -0.312 N 
ATOM     24  C   UNL     1      34.202 -20.117 -20.878  0.00  0.00    -0.004 C 
ATOM     25  C   UNL     1      34.590 -20.938 -19.783  0.00  0.00    +0.010 C 
ATOM     26  C   UNL     1      33.439 -21.587 -19.330  0.00  0.00    +0.048 C 
ATOM     27  C   UNL     1      32.849 -20.281 -21.066  0.00  0.00    +0.058 C 
ATOM     28  C   UNL     1      35.812 -21.191 -19.131  0.00  0.00    -0.003 C 
ATOM     29  C   UNL     1      33.450 -22.480 -18.253  0.00  0.00    +0.014 C 
ATOM     30  C   UNL     1      35.839 -22.082 -18.052  0.00  0.00    -0.022 C 
ATOM     31  C   UNL     1      34.675 -22.716 -17.622  0.00  0.00    -0.003 C 
ATOM     32  C   UNL     1      37.131 -22.356 -17.357  0.00  0.00    +0.031 C 
ATOM     33  H   UNL     1      31.463 -21.466 -20.036  0.00  0.00    +0.152 HD
ENDBRANCH  22  24
ENDBRANCH   1  22
TORSDOF 10
ENDMDL
