MODEL 1
REMARK VINA RESULT:     -11.7      0.000      0.000
REMARK  Name = 24812758
REMARK  9 active torsions:
REMARK  status: ('A' for Active; 'I' for Inactive)
REMARK    1  A    between atoms: C_1  and  C_11
REMARK    2  A    between atoms: C_4  and  C_23
REMARK    3  A    between atoms: C_9  and  O_14
REMARK    4  A    between atoms: C_10  and  O_16
REMARK    5  A    between atoms: C_12  and  O_18
REMARK    6  A    between atoms: C_13  and  C_20
REMARK    7  A    between atoms: C_20  and  O_21
REMARK    8  A    between atoms: C_23  and  C_25
REMARK    9  A    between atoms: C_27  and  C_30
REMARK                            x       y       z     vdW  Elec       q    Type
REMARK                         _______ _______ _______ _____ _____    ______ ____
ROOT
ATOM      1  C   UNL     1      34.597 -23.930 -14.775  0.00  0.00    +0.007 C 
ATOM      2  C   UNL     1      34.326 -23.806 -16.137  0.00  0.00    -0.006 C 
ATOM      3  C   UNL     1      33.592 -23.687 -13.838  0.00  0.00    -0.002 C 
ATOM      4  C   UNL     1      33.051 -23.439 -16.564  0.00  0.00    -0.021 C 
ATOM      5  C   UNL     1      32.045 -23.196 -15.628  0.00  0.00    -0.025 C 
ATOM      6  C   UNL     1      32.316 -23.320 -14.266  0.00  0.00    -0.005 C 
ATOM      7  C   UNL     1      30.671 -22.802 -16.061  0.00  0.00    +0.031 C 
ENDROOT
BRANCH   1  11
ATOM      8  O   UNL     1      36.200 -25.688 -14.703  0.00  0.00    -0.347 OA
ATOM      9  C   UNL     1      36.152 -24.165 -12.792  0.00  0.00    +0.171 C 
ATOM     10  C   UNL     1      37.500 -24.722 -12.326  0.00  0.00    +0.169 C 
ATOM     11  C   UNL     1      35.984 -24.328 -14.311  0.00  0.00    +0.167 C 
ATOM     12  C   UNL     1      37.746 -26.122 -12.886  0.00  0.00    +0.169 C 
ATOM     13  C   UNL     1      37.516 -26.150 -14.399  0.00  0.00    +0.174 C 
BRANCH   9  14
ATOM     14  O   UNL     1      36.090 -22.775 -12.473  0.00  0.00    -0.379 OA
ATOM     15  H   UNL     1      36.988 -22.431 -12.349  0.00  0.00    +0.211 HD
ENDBRANCH   9  14
BRANCH  10  16
ATOM     16  O   UNL     1      37.509 -24.810 -10.900  0.00  0.00    -0.379 OA
ATOM     17  H   UNL     1      36.812 -25.419 -10.608  0.00  0.00    +0.211 HD
ENDBRANCH  10  16
BRANCH  12  18
ATOM     18  O   UNL     1      39.088 -26.511 -12.608  0.00  0.00    -0.379 OA
ATOM     19  H   UNL     1      39.373 -26.112 -11.770  0.00  0.00    +0.211 HD
ENDBRANCH  12  18
BRANCH  13  20
ATOM     20  C   UNL     1      37.649 -27.559 -14.965  0.00  0.00    +0.169 C 
BRANCH  20  21
ATOM     21  O   UNL     1      36.823 -27.665 -16.111  0.00  0.00    -0.379 OA
ATOM     22  H   UNL     1      37.093 -28.436 -16.634  0.00  0.00    +0.211 HD
ENDBRANCH  20  21
ENDBRANCH  13  20
ENDBRANCH   1  11
BRANCH   4  23
ATOM     23  C   UNL     1      32.784 -23.313 -18.028  0.00  0.00    +0.059 C 
BRANCH  23  25
ATOM     24  S   UNL     1      33.112 -21.256 -19.884  0.00  0.00    -0.091 S 
ATOM     25  C   UNL     1      33.733 -22.375 -18.745  0.00  0.00    +0.012 C 
ATOM     26  C   UNL     1      35.100 -22.273 -18.613  0.00  0.00    +0.003 C 
ATOM     27  C   UNL     1      34.674 -20.634 -20.204  0.00  0.00    +0.029 C 
ATOM     28  C   UNL     1      35.646 -21.264 -19.459  0.00  0.00    +0.007 C 
BRANCH  27  30
ATOM     29  F   UNL     1      35.225 -16.529 -23.933  0.00  0.00    -0.204 F 
ATOM     30  C   UNL     1      34.817 -19.570 -21.171  0.00  0.00    +0.006 C 
ATOM     31  C   UNL     1      34.401 -19.764 -22.488  0.00  0.00    +0.003 C 
ATOM     32  C   UNL     1      35.371 -18.349 -20.787  0.00  0.00    +0.003 C 
ATOM     33  C   UNL     1      34.538 -18.737 -23.421  0.00  0.00    +0.030 C 
ATOM     34  C   UNL     1      35.509 -17.322 -21.720  0.00  0.00    +0.030 C 
ATOM     35  C   UNL     1      35.092 -17.515 -23.038  0.00  0.00    +0.140 C 
ENDBRANCH  27  30
ENDBRANCH  23  25
ENDBRANCH   4  23
TORSDOF 9
ENDMDL
MODEL 2
REMARK VINA RESULT:     -11.6      1.137      2.414
REMARK  Name = 24812758
REMARK  9 active torsions:
REMARK  status: ('A' for Active; 'I' for Inactive)
REMARK    1  A    between atoms: C_1  and  C_11
REMARK    2  A    between atoms: C_4  and  C_23
REMARK    3  A    between atoms: C_9  and  O_14
REMARK    4  A    between atoms: C_10  and  O_16
REMARK    5  A    between atoms: C_12  and  O_18
REMARK    6  A    between atoms: C_13  and  C_20
REMARK    7  A    between atoms: C_20  and  O_21
REMARK    8  A    between atoms: C_23  and  C_25
REMARK    9  A    between atoms: C_27  and  C_30
REMARK                            x       y       z     vdW  Elec       q    Type
REMARK                         _______ _______ _______ _____ _____    ______ ____
ROOT
ATOM      1  C   UNL     1      34.325 -24.461 -13.983  0.00  0.00    +0.007 C 
ATOM      2  C   UNL     1      34.076 -24.322 -15.349  0.00  0.00    -0.006 C 
ATOM      3  C   UNL     1      33.369 -24.048 -13.055  0.00  0.00    -0.002 C 
ATOM      4  C   UNL     1      32.873 -23.770 -15.787  0.00  0.00    -0.021 C 
ATOM      5  C   UNL     1      31.917 -23.356 -14.858  0.00  0.00    -0.025 C 
ATOM      6  C   UNL     1      32.166 -23.495 -13.493  0.00  0.00    -0.005 C 
ATOM      7  C   UNL     1      30.621 -22.762 -15.302  0.00  0.00    +0.031 C 
ENDROOT
BRANCH   1  11
ATOM      8  O   UNL     1      36.377 -24.025 -12.860  0.00  0.00    -0.347 OA
ATOM      9  C   UNL     1      36.440 -25.672 -14.665  0.00  0.00    +0.171 C 
ATOM     10  C   UNL     1      37.823 -26.126 -14.190  0.00  0.00    +0.169 C 
ATOM     11  C   UNL     1      35.633 -25.062 -13.508  0.00  0.00    +0.167 C 
ATOM     12  C   UNL     1      38.519 -25.033 -13.381  0.00  0.00    +0.169 C 
ATOM     13  C   UNL     1      37.597 -24.496 -12.285  0.00  0.00    +0.174 C 
BRANCH   9  14
ATOM     14  O   UNL     1      35.729 -26.801 -15.172  0.00  0.00    -0.379 OA
ATOM     15  H   UNL     1      36.253 -27.227 -15.868  0.00  0.00    +0.211 HD
ENDBRANCH   9  14
BRANCH  10  16
ATOM     16  O   UNL     1      38.639 -26.425 -15.323  0.00  0.00    -0.379 OA
ATOM     17  H   UNL     1      38.093 -26.822 -16.020  0.00  0.00    +0.211 HD
ENDBRANCH  10  16
BRANCH  12  18
ATOM     18  O   UNL     1      39.697 -25.568 -12.783  0.00  0.00    -0.379 OA
ATOM     19  H   UNL     1      39.606 -25.547 -11.816  0.00  0.00    +0.211 HD
ENDBRANCH  12  18
BRANCH  13  20
ATOM     20  C   UNL     1      38.230 -23.328 -11.535  0.00  0.00    +0.169 C 
BRANCH  20  21
ATOM     21  O   UNL     1      37.195 -22.517 -11.008  0.00  0.00    -0.379 OA
ATOM     22  H   UNL     1      36.334 -22.902 -11.236  0.00  0.00    +0.211 HD
ENDBRANCH  20  21
ENDBRANCH  13  20
ENDBRANCH   1  11
BRANCH   4  23
ATOM     23  C   UNL     1      32.629 -23.631 -17.253  0.00  0.00    +0.059 C 
BRANCH  23  25
ATOM     24  S   UNL     1      33.196 -21.769 -19.251  0.00  0.00    -0.091 S 
ATOM     25  C   UNL     1      33.674 -22.803 -17.972  0.00  0.00    +0.012 C 
ATOM     26  C   UNL     1      35.030 -22.747 -17.741  0.00  0.00    +0.003 C 
ATOM     27  C   UNL     1      34.807 -21.245 -19.500  0.00  0.00    +0.029 C 
ATOM     28  C   UNL     1      35.687 -21.844 -18.627  0.00  0.00    +0.007 C 
BRANCH  27  30
ATOM     29  F   UNL     1      35.836 -17.525 -23.521  0.00  0.00    -0.204 F 
ATOM     30  C   UNL     1      35.074 -20.281 -20.542  0.00  0.00    +0.006 C 
ATOM     31  C   UNL     1      34.125 -20.050 -21.539  0.00  0.00    +0.003 C 
ATOM     32  C   UNL     1      36.280 -19.581 -20.552  0.00  0.00    +0.003 C 
ATOM     33  C   UNL     1      34.382 -19.119 -22.544  0.00  0.00    +0.030 C 
ATOM     34  C   UNL     1      36.537 -18.650 -21.558  0.00  0.00    +0.030 C 
ATOM     35  C   UNL     1      35.588 -18.419 -22.555  0.00  0.00    +0.140 C 
ENDBRANCH  27  30
ENDBRANCH  23  25
ENDBRANCH   4  23
TORSDOF 9
ENDMDL
MODEL 3
REMARK VINA RESULT:     -11.4      3.018      4.940
REMARK  Name = 24812758
REMARK  9 active torsions:
REMARK  status: ('A' for Active; 'I' for Inactive)
REMARK    1  A    between atoms: C_1  and  C_11
REMARK    2  A    between atoms: C_4  and  C_23
REMARK    3  A    between atoms: C_9  and  O_14
REMARK    4  A    between atoms: C_10  and  O_16
REMARK    5  A    between atoms: C_12  and  O_18
REMARK    6  A    between atoms: C_13  and  C_20
REMARK    7  A    between atoms: C_20  and  O_21
REMARK    8  A    between atoms: C_23  and  C_25
REMARK    9  A    between atoms: C_27  and  C_30
REMARK                            x       y       z     vdW  Elec       q    Type
REMARK                         _______ _______ _______ _____ _____    ______ ____
ROOT
ATOM      1  C   UNL     1      33.723 -23.554 -15.671  0.00  0.00    +0.007 C 
ATOM      2  C   UNL     1      34.262 -23.387 -16.947  0.00  0.00    -0.006 C 
ATOM      3  C   UNL     1      34.405 -23.066 -14.556  0.00  0.00    -0.002 C 
ATOM      4  C   UNL     1      35.484 -22.734 -17.108  0.00  0.00    -0.021 C 
ATOM      5  C   UNL     1      36.166 -22.246 -15.993  0.00  0.00    -0.025 C 
ATOM      6  C   UNL     1      35.627 -22.413 -14.718  0.00  0.00    -0.005 C 
ATOM      7  C   UNL     1      37.475 -21.543 -16.140  0.00  0.00    +0.031 C 
ENDROOT
BRANCH   1  11
ATOM      8  O   UNL     1      31.365 -23.378 -15.946  0.00  0.00    -0.347 OA
ATOM      9  C   UNL     1      32.156 -24.685 -14.038  0.00  0.00    +0.171 C 
ATOM     10  C   UNL     1      30.746 -25.254 -13.855  0.00  0.00    +0.169 C 
ATOM     11  C   UNL     1      32.395 -24.265 -15.496  0.00  0.00    +0.167 C 
ATOM     12  C   UNL     1      29.693 -24.339 -14.477  0.00  0.00    +0.169 C 
ATOM     13  C   UNL     1      30.069 -23.976 -15.915  0.00  0.00    +0.174 C 
BRANCH   9  14
ATOM     14  O   UNL     1      33.110 -25.688 -13.690  0.00  0.00    -0.379 OA
ATOM     15  H   UNL     1      33.655 -25.373 -12.951  0.00  0.00    +0.211 HD
ENDBRANCH   9  14
BRANCH  10  16
ATOM     16  O   UNL     1      30.460 -25.373 -12.461  0.00  0.00    -0.379 OA
ATOM     17  H   UNL     1      30.921 -24.672 -11.975  0.00  0.00    +0.211 HD
ENDBRANCH  10  16
BRANCH  12  18
ATOM     18  O   UNL     1      28.432 -25.003 -14.475  0.00  0.00    -0.379 OA
ATOM     19  H   UNL     1      27.846 -24.582 -13.826  0.00  0.00    +0.211 HD
ENDBRANCH  12  18
BRANCH  13  20
ATOM     20  C   UNL     1      29.089 -22.976 -16.520  0.00  0.00    +0.169 C 
BRANCH  20  21
ATOM     21  O   UNL     1      28.109 -23.690 -17.252  0.00  0.00    -0.379 OA
ATOM     22  H   UNL     1      28.259 -24.643 -17.148  0.00  0.00    +0.211 HD
ENDBRANCH  20  21
ENDBRANCH  13  20
ENDBRANCH   1  11
BRANCH   4  23
ATOM     23  C   UNL     1      36.041 -22.566 -18.483  0.00  0.00    +0.059 C 
BRANCH  23  25
ATOM     24  S   UNL     1      36.072 -20.615 -20.476  0.00  0.00    -0.091 S 
ATOM     25  C   UNL     1      35.249 -21.613 -19.353  0.00  0.00    +0.012 C 
ATOM     26  C   UNL     1      33.886 -21.414 -19.386  0.00  0.00    +0.003 C 
ATOM     27  C   UNL     1      34.604 -19.912 -21.008  0.00  0.00    +0.029 C 
ATOM     28  C   UNL     1      33.513 -20.428 -20.345  0.00  0.00    +0.007 C 
BRANCH  27  30
ATOM     29  F   UNL     1      34.771 -16.017 -24.991  0.00  0.00    -0.204 F 
ATOM     30  C   UNL     1      34.648 -18.902 -22.040  0.00  0.00    +0.006 C 
ATOM     31  C   UNL     1      34.224 -19.209 -23.334  0.00  0.00    +0.003 C 
ATOM     32  C   UNL     1      35.113 -17.621 -21.744  0.00  0.00    +0.003 C 
ATOM     33  C   UNL     1      34.266 -18.235 -24.330  0.00  0.00    +0.030 C 
ATOM     34  C   UNL     1      35.154 -16.647 -22.741  0.00  0.00    +0.030 C 
ATOM     35  C   UNL     1      34.731 -16.953 -24.034  0.00  0.00    +0.140 C 
ENDBRANCH  27  30
ENDBRANCH  23  25
ENDBRANCH   4  23
TORSDOF 9
ENDMDL
MODEL 4
REMARK VINA RESULT:     -11.3     11.462     16.504
REMARK  Name = 24812758
REMARK  9 active torsions:
REMARK  status: ('A' for Active; 'I' for Inactive)
REMARK    1  A    between atoms: C_1  and  C_11
REMARK    2  A    between atoms: C_4  and  C_23
REMARK    3  A    between atoms: C_9  and  O_14
REMARK    4  A    between atoms: C_10  and  O_16
REMARK    5  A    between atoms: C_12  and  O_18
REMARK    6  A    between atoms: C_13  and  C_20
REMARK    7  A    between atoms: C_20  and  O_21
REMARK    8  A    between atoms: C_23  and  C_25
REMARK    9  A    between atoms: C_27  and  C_30
REMARK                            x       y       z     vdW  Elec       q    Type
REMARK                         _______ _______ _______ _____ _____    ______ ____
ROOT
ATOM      1  C   UNL     1      32.854  -7.425 -21.486  0.00  0.00    +0.007 C 
ATOM      2  C   UNL     1      32.288  -8.586 -22.012  0.00  0.00    -0.006 C 
ATOM      3  C   UNL     1      32.954  -7.262 -20.103  0.00  0.00    -0.002 C 
ATOM      4  C   UNL     1      31.821  -9.585 -21.157  0.00  0.00    -0.021 C 
ATOM      5  C   UNL     1      31.921  -9.422 -19.775  0.00  0.00    -0.025 C 
ATOM      6  C   UNL     1      32.487  -8.261 -19.249  0.00  0.00    -0.005 C 
ATOM      7  C   UNL     1      31.429 -10.476 -18.839  0.00  0.00    +0.031 C 
ENDROOT
BRANCH   1  11
ATOM      8  O   UNL     1      32.221  -5.705 -23.004  0.00  0.00    -0.347 OA
ATOM      9  C   UNL     1      34.295  -6.901 -23.499  0.00  0.00    +0.171 C 
ATOM     10  C   UNL     1      34.665  -5.820 -24.518  0.00  0.00    +0.169 C 
ATOM     11  C   UNL     1      33.361  -6.340 -22.415  0.00  0.00    +0.167 C 
ATOM     12  C   UNL     1      33.426  -5.075 -25.012  0.00  0.00    +0.169 C 
ATOM     13  C   UNL     1      32.573  -4.598 -23.835  0.00  0.00    +0.174 C 
BRANCH   9  14
ATOM     14  O   UNL     1      35.486  -7.377 -22.873  0.00  0.00    -0.379 OA
ATOM     15  H   UNL     1      35.255  -8.006 -22.172  0.00  0.00    +0.211 HD
ENDBRANCH   9  14
BRANCH  10  16
ATOM     16  O   UNL     1      35.294  -6.428 -25.647  0.00  0.00    -0.379 OA
ATOM     17  H   UNL     1      35.733  -5.746 -26.179  0.00  0.00    +0.211 HD
ENDBRANCH  10  16
BRANCH  12  18
ATOM     18  O   UNL     1      33.831  -3.948 -25.785  0.00  0.00    -0.379 OA
ATOM     19  H   UNL     1      33.053  -3.413 -26.007  0.00  0.00    +0.211 HD
ENDBRANCH  12  18
BRANCH  13  20
ATOM     20  C   UNL     1      31.276  -3.947 -24.303  0.00  0.00    +0.169 C 
BRANCH  20  21
ATOM     21  O   UNL     1      30.636  -3.360 -23.184  0.00  0.00    -0.379 OA
ATOM     22  H   UNL     1      30.268  -4.057 -22.619  0.00  0.00    +0.211 HD
ENDBRANCH  20  21
ENDBRANCH  13  20
ENDBRANCH   1  11
BRANCH   4  23
ATOM     23  C   UNL     1      31.220 -10.819 -21.743  0.00  0.00    +0.059 C 
BRANCH  23  25
ATOM     24  S   UNL     1      32.406 -13.341 -21.620  0.00  0.00    -0.091 S 
ATOM     25  C   UNL     1      32.238 -11.784 -22.315  0.00  0.00    +0.012 C 
ATOM     26  C   UNL     1      33.099 -11.595 -23.372  0.00  0.00    +0.003 C 
ATOM     27  C   UNL     1      33.635 -13.764 -22.734  0.00  0.00    +0.029 C 
ATOM     28  C   UNL     1      33.909 -12.742 -23.615  0.00  0.00    +0.007 C 
BRANCH  27  30
ATOM     29  F   UNL     1      35.945 -18.825 -22.401  0.00  0.00    -0.204 F 
ATOM     30  C   UNL     1      34.234 -15.076 -22.648  0.00  0.00    +0.006 C 
ATOM     31  C   UNL     1      34.617 -15.588 -21.408  0.00  0.00    +0.003 C 
ATOM     32  C   UNL     1      34.429 -15.831 -23.804  0.00  0.00    +0.003 C 
ATOM     33  C   UNL     1      35.195 -16.854 -21.324  0.00  0.00    +0.030 C 
ATOM     34  C   UNL     1      35.006 -17.097 -23.721  0.00  0.00    +0.030 C 
ATOM     35  C   UNL     1      35.390 -17.609 -22.481  0.00  0.00    +0.140 C 
ENDBRANCH  27  30
ENDBRANCH  23  25
ENDBRANCH   4  23
TORSDOF 9
ENDMDL
MODEL 5
REMARK VINA RESULT:     -10.8     11.901     16.871
REMARK  Name = 24812758
REMARK  9 active torsions:
REMARK  status: ('A' for Active; 'I' for Inactive)
REMARK    1  A    between atoms: C_1  and  C_11
REMARK    2  A    between atoms: C_4  and  C_23
REMARK    3  A    between atoms: C_9  and  O_14
REMARK    4  A    between atoms: C_10  and  O_16
REMARK    5  A    between atoms: C_12  and  O_18
REMARK    6  A    between atoms: C_13  and  C_20
REMARK    7  A    between atoms: C_20  and  O_21
REMARK    8  A    between atoms: C_23  and  C_25
REMARK    9  A    between atoms: C_27  and  C_30
REMARK                            x       y       z     vdW  Elec       q    Type
REMARK                         _______ _______ _______ _____ _____    ______ ____
ROOT
ATOM      1  C   UNL     1      31.839  -7.261 -21.932  0.00  0.00    +0.007 C 
ATOM      2  C   UNL     1      31.391  -8.565 -22.139  0.00  0.00    -0.006 C 
ATOM      3  C   UNL     1      32.412  -6.906 -20.711  0.00  0.00    -0.002 C 
ATOM      4  C   UNL     1      31.515  -9.515 -21.126  0.00  0.00    -0.021 C 
ATOM      5  C   UNL     1      32.088  -9.160 -19.904  0.00  0.00    -0.025 C 
ATOM      6  C   UNL     1      32.536  -7.856 -19.697  0.00  0.00    -0.005 C 
ATOM      7  C   UNL     1      32.233 -10.159 -18.803  0.00  0.00    +0.031 C 
ENDROOT
BRANCH   1  11
ATOM      8  O   UNL     1      32.808  -6.401 -23.929  0.00  0.00    -0.347 OA
ATOM      9  C   UNL     1      31.668  -4.796 -22.480  0.00  0.00    +0.171 C 
ATOM     10  C   UNL     1      31.693  -3.768 -23.614  0.00  0.00    +0.169 C 
ATOM     11  C   UNL     1      31.704  -6.229 -23.034  0.00  0.00    +0.167 C 
ATOM     12  C   UNL     1      32.801  -4.076 -24.619  0.00  0.00    +0.169 C 
ATOM     13  C   UNL     1      32.739  -5.539 -25.065  0.00  0.00    +0.174 C 
BRANCH   9  14
ATOM     14  O   UNL     1      30.467  -4.628 -21.727  0.00  0.00    -0.379 OA
ATOM     15  H   UNL     1      30.131  -5.497 -21.455  0.00  0.00    +0.211 HD
ENDBRANCH   9  14
BRANCH  10  16
ATOM     16  O   UNL     1      31.938  -2.469 -23.072  0.00  0.00    -0.379 OA
ATOM     17  H   UNL     1      31.890  -1.808 -23.779  0.00  0.00    +0.211 HD
ENDBRANCH  10  16
BRANCH  12  18
ATOM     18  O   UNL     1      32.653  -3.232 -25.758  0.00  0.00    -0.379 OA
ATOM     19  H   UNL     1      33.277  -3.507 -26.448  0.00  0.00    +0.211 HD
ENDBRANCH  12  18
BRANCH  13  20
ATOM     20  C   UNL     1      33.901  -5.900 -25.985  0.00  0.00    +0.169 C 
BRANCH  20  21
ATOM     21  O   UNL     1      35.024  -5.117 -25.621  0.00  0.00    -0.379 OA
ATOM     22  H   UNL     1      35.334  -5.386 -24.742  0.00  0.00    +0.211 HD
ENDBRANCH  20  21
ENDBRANCH  13  20
ENDBRANCH   1  11
BRANCH   4  23
ATOM     23  C   UNL     1      31.028 -10.905 -21.370  0.00  0.00    +0.059 C 
BRANCH  23  25
ATOM     24  S   UNL     1      32.303 -13.385 -21.468  0.00  0.00    -0.091 S 
ATOM     25  C   UNL     1      32.043 -11.797 -22.056  0.00  0.00    +0.012 C 
ATOM     26  C   UNL     1      32.834 -11.514 -23.147  0.00  0.00    +0.003 C 
ATOM     27  C   UNL     1      33.478 -13.696 -22.674  0.00  0.00    +0.029 C 
ATOM     28  C   UNL     1      33.666 -12.614 -23.505  0.00  0.00    +0.007 C 
BRANCH  27  30
ATOM     29  F   UNL     1      35.970 -18.680 -22.781  0.00  0.00    -0.204 F 
ATOM     30  C   UNL     1      34.124 -14.987 -22.702  0.00  0.00    +0.006 C 
ATOM     31  C   UNL     1      34.612 -15.549 -21.522  0.00  0.00    +0.003 C 
ATOM     32  C   UNL     1      34.260 -15.674 -23.909  0.00  0.00    +0.003 C 
ATOM     33  C   UNL     1      35.236 -16.796 -21.548  0.00  0.00    +0.030 C 
ATOM     34  C   UNL     1      34.883 -16.921 -23.935  0.00  0.00    +0.030 C 
ATOM     35  C   UNL     1      35.371 -17.482 -22.755  0.00  0.00    +0.140 C 
ENDBRANCH  27  30
ENDBRANCH  23  25
ENDBRANCH   4  23
TORSDOF 9
ENDMDL
MODEL 6
REMARK VINA RESULT:     -10.1      6.221     10.670
REMARK  Name = 24812758
REMARK  9 active torsions:
REMARK  status: ('A' for Active; 'I' for Inactive)
REMARK    1  A    between atoms: C_1  and  C_11
REMARK    2  A    between atoms: C_4  and  C_23
REMARK    3  A    between atoms: C_9  and  O_14
REMARK    4  A    between atoms: C_10  and  O_16
REMARK    5  A    between atoms: C_12  and  O_18
REMARK    6  A    between atoms: C_13  and  C_20
REMARK    7  A    between atoms: C_20  and  O_21
REMARK    8  A    between atoms: C_23  and  C_25
REMARK    9  A    between atoms: C_27  and  C_30
REMARK                            x       y       z     vdW  Elec       q    Type
REMARK                         _______ _______ _______ _____ _____    ______ ____
ROOT
ATOM      1  C   UNL     1      35.793 -19.242 -21.719  0.00  0.00    +0.007 C 
ATOM      2  C   UNL     1      35.180 -20.470 -21.471  0.00  0.00    -0.006 C 
ATOM      3  C   UNL     1      36.762 -18.756 -20.841  0.00  0.00    -0.002 C 
ATOM      4  C   UNL     1      35.534 -21.212 -20.345  0.00  0.00    -0.021 C 
ATOM      5  C   UNL     1      36.503 -20.726 -19.467  0.00  0.00    -0.025 C 
ATOM      6  C   UNL     1      37.116 -19.499 -19.715  0.00  0.00    -0.005 C 
ATOM      7  C   UNL     1      36.900 -21.503 -18.255  0.00  0.00    +0.031 C 
ENDROOT
BRANCH   1  11
ATOM      8  O   UNL     1      35.113 -17.103 -22.511  0.00  0.00    -0.347 OA
ATOM      9  C   UNL     1      34.207 -19.048 -23.681  0.00  0.00    +0.171 C 
ATOM     10  C   UNL     1      33.735 -18.134 -24.816  0.00  0.00    +0.169 C 
ATOM     11  C   UNL     1      35.407 -18.435 -22.943  0.00  0.00    +0.167 C 
ATOM     12  C   UNL     1      33.571 -16.693 -24.336  0.00  0.00    +0.169 C 
ATOM     13  C   UNL     1      34.823 -16.220 -23.595  0.00  0.00    +0.174 C 
BRANCH   9  14
ATOM     14  O   UNL     1      34.602 -20.304 -24.231  0.00  0.00    -0.379 OA
ATOM     15  H   UNL     1      34.226 -20.401 -25.120  0.00  0.00    +0.211 HD
ENDBRANCH   9  14
BRANCH  10  16
ATOM     16  O   UNL     1      32.468 -18.587 -25.294  0.00  0.00    -0.379 OA
ATOM     17  H   UNL     1      31.765 -18.030 -24.926  0.00  0.00    +0.211 HD
ENDBRANCH  10  16
BRANCH  12  18
ATOM     18  O   UNL     1      33.342 -15.846 -25.460  0.00  0.00    -0.379 OA
ATOM     19  H   UNL     1      32.388 -15.771 -25.619  0.00  0.00    +0.211 HD
ENDBRANCH  12  18
BRANCH  13  20
ATOM     20  C   UNL     1      34.642 -14.823 -23.012  0.00  0.00    +0.169 C 
BRANCH  20  21
ATOM     21  O   UNL     1      33.263 -14.498 -23.039  0.00  0.00    -0.379 OA
ATOM     22  H   UNL     1      33.150 -13.551 -22.864  0.00  0.00    +0.211 HD
ENDBRANCH  20  21
ENDBRANCH  13  20
ENDBRANCH   1  11
BRANCH   4  23
ATOM     23  C   UNL     1      34.864 -22.524 -20.100  0.00  0.00    +0.059 C 
BRANCH  23  25
ATOM     24  S   UNL     1      33.819 -23.531 -17.719  0.00  0.00    -0.091 S 
ATOM     25  C   UNL     1      33.766 -22.466 -19.058  0.00  0.00    +0.012 C 
ATOM     26  C   UNL     1      32.668 -21.637 -19.017  0.00  0.00    +0.003 C 
ATOM     27  C   UNL     1      32.368 -22.885 -17.080  0.00  0.00    +0.029 C 
ATOM     28  C   UNL     1      31.857 -21.880 -17.870  0.00  0.00    +0.007 C 
BRANCH  27  30
ATOM     29  F   UNL     1      30.360 -24.969 -12.317  0.00  0.00    -0.204 F 
ATOM     30  C   UNL     1      31.848 -23.426 -15.845  0.00  0.00    +0.006 C 
ATOM     31  C   UNL     1      32.722 -23.806 -14.827  0.00  0.00    +0.003 C 
ATOM     32  C   UNL     1      30.471 -23.567 -15.671  0.00  0.00    +0.003 C 
ATOM     33  C   UNL     1      32.220 -24.327 -13.635  0.00  0.00    +0.030 C 
ATOM     34  C   UNL     1      29.969 -24.088 -14.479  0.00  0.00    +0.030 C 
ATOM     35  C   UNL     1      30.843 -24.468 -13.461  0.00  0.00    +0.140 C 
ENDBRANCH  27  30
ENDBRANCH  23  25
ENDBRANCH   4  23
TORSDOF 9
ENDMDL
MODEL 7
REMARK VINA RESULT:     -10.0      4.438      8.248
REMARK  Name = 24812758
REMARK  9 active torsions:
REMARK  status: ('A' for Active; 'I' for Inactive)
REMARK    1  A    between atoms: C_1  and  C_11
REMARK    2  A    between atoms: C_4  and  C_23
REMARK    3  A    between atoms: C_9  and  O_14
REMARK    4  A    between atoms: C_10  and  O_16
REMARK    5  A    between atoms: C_12  and  O_18
REMARK    6  A    between atoms: C_13  and  C_20
REMARK    7  A    between atoms: C_20  and  O_21
REMARK    8  A    between atoms: C_23  and  C_25
REMARK    9  A    between atoms: C_27  and  C_30
REMARK                            x       y       z     vdW  Elec       q    Type
REMARK                         _______ _______ _______ _____ _____    ______ ____
ROOT
ATOM      1  C   UNL     1      35.695 -22.469 -17.304  0.00  0.00    +0.007 C 
ATOM      2  C   UNL     1      34.890 -23.375 -16.615  0.00  0.00    -0.006 C 
ATOM      3  C   UNL     1      36.835 -21.945 -16.694  0.00  0.00    -0.002 C 
ATOM      4  C   UNL     1      35.222 -23.757 -15.316  0.00  0.00    -0.021 C 
ATOM      5  C   UNL     1      36.362 -23.233 -14.705  0.00  0.00    -0.025 C 
ATOM      6  C   UNL     1      37.168 -22.327 -15.394  0.00  0.00    -0.005 C 
ATOM      7  C   UNL     1      36.740 -23.627 -13.315  0.00  0.00    +0.031 C 
ENDROOT
BRANCH   1  11
ATOM      8  O   UNL     1      36.124 -20.908 -19.049  0.00  0.00    -0.347 OA
ATOM      9  C   UNL     1      33.835 -21.743 -18.858  0.00  0.00    +0.171 C 
ATOM     10  C   UNL     1      33.521 -21.173 -20.244  0.00  0.00    +0.169 C 
ATOM     11  C   UNL     1      35.333 -22.054 -18.716  0.00  0.00    +0.167 C 
ATOM     12  C   UNL     1      34.483 -20.045 -20.612  0.00  0.00    +0.169 C 
ATOM     13  C   UNL     1      35.935 -20.478 -20.397  0.00  0.00    +0.174 C 
BRANCH   9  14
ATOM     14  O   UNL     1      33.099 -22.952 -18.675  0.00  0.00    -0.379 OA
ATOM     15  H   UNL     1      32.908 -23.349 -19.540  0.00  0.00    +0.211 HD
ENDBRANCH   9  14
BRANCH  10  16
ATOM     16  O   UNL     1      32.195 -20.642 -20.249  0.00  0.00    -0.379 OA
ATOM     17  H   UNL     1      31.958 -20.352 -19.354  0.00  0.00    +0.211 HD
ENDBRANCH  10  16
BRANCH  12  18
ATOM     18  O   UNL     1      34.296 -19.694 -21.980  0.00  0.00    -0.379 OA
ATOM     19  H   UNL     1      33.398 -19.940 -22.257  0.00  0.00    +0.211 HD
ENDBRANCH  12  18
BRANCH  13  20
ATOM     20  C   UNL     1      36.910 -19.333 -20.653  0.00  0.00    +0.169 C 
BRANCH  20  21
ATOM     21  O   UNL     1      36.197 -18.111 -20.590  0.00  0.00    -0.379 OA
ATOM     22  H   UNL     1      35.334 -18.217 -21.018  0.00  0.00    +0.211 HD
ENDBRANCH  20  21
ENDBRANCH  13  20
ENDBRANCH   1  11
BRANCH   4  23
ATOM     23  C   UNL     1      34.345 -24.729 -14.597  0.00  0.00    +0.059 C 
BRANCH  23  25
ATOM     24  S   UNL     1      31.876 -24.068 -15.713  0.00  0.00    -0.091 S 
ATOM     25  C   UNL     1      32.933 -24.230 -14.375  0.00  0.00    +0.012 C 
ATOM     26  C   UNL     1      32.328 -23.868 -13.192  0.00  0.00    +0.003 C 
ATOM     27  C   UNL     1      30.605 -23.510 -14.710  0.00  0.00    +0.029 C 
ATOM     28  C   UNL     1      30.979 -23.450 -13.386  0.00  0.00    +0.007 C 
BRANCH  27  30
ATOM     29  F   UNL     1      25.710 -22.208 -17.035  0.00  0.00    -0.204 F 
ATOM     30  C   UNL     1      29.337 -23.173 -15.312  0.00  0.00    +0.006 C 
ATOM     31  C   UNL     1      28.405 -22.416 -14.600  0.00  0.00    +0.003 C 
ATOM     32  C   UNL     1      29.042 -23.603 -16.606  0.00  0.00    +0.003 C 
ATOM     33  C   UNL     1      27.181 -22.090 -15.182  0.00  0.00    +0.030 C 
ATOM     34  C   UNL     1      27.818 -23.277 -17.188  0.00  0.00    +0.030 C 
ATOM     35  C   UNL     1      26.886 -22.520 -16.476  0.00  0.00    +0.140 C 
ENDBRANCH  27  30
ENDBRANCH  23  25
ENDBRANCH   4  23
TORSDOF 9
ENDMDL
MODEL 8
REMARK VINA RESULT:      -9.9      1.610      2.539
REMARK  Name = 24812758
REMARK  9 active torsions:
REMARK  status: ('A' for Active; 'I' for Inactive)
REMARK    1  A    between atoms: C_1  and  C_11
REMARK    2  A    between atoms: C_4  and  C_23
REMARK    3  A    between atoms: C_9  and  O_14
REMARK    4  A    between atoms: C_10  and  O_16
REMARK    5  A    between atoms: C_12  and  O_18
REMARK    6  A    between atoms: C_13  and  C_20
REMARK    7  A    between atoms: C_20  and  O_21
REMARK    8  A    between atoms: C_23  and  C_25
REMARK    9  A    between atoms: C_27  and  C_30
REMARK                            x       y       z     vdW  Elec       q    Type
REMARK                         _______ _______ _______ _____ _____    ______ ____
ROOT
ATOM      1  C   UNL     1      34.746 -23.039 -16.222  0.00  0.00    +0.007 C 
ATOM      2  C   UNL     1      35.438 -22.875 -17.422  0.00  0.00    -0.006 C 
ATOM      3  C   UNL     1      33.357 -22.909 -16.194  0.00  0.00    -0.002 C 
ATOM      4  C   UNL     1      34.742 -22.579 -18.594  0.00  0.00    -0.021 C 
ATOM      5  C   UNL     1      33.353 -22.449 -18.566  0.00  0.00    -0.025 C 
ATOM      6  C   UNL     1      32.661 -22.614 -17.366  0.00  0.00    -0.005 C 
ATOM      7  C   UNL     1      32.585 -22.134 -19.807  0.00  0.00    +0.031 C 
ENDROOT
BRANCH   1  11
ATOM      8  O   UNL     1      36.657 -24.126 -15.310  0.00  0.00    -0.347 OA
ATOM      9  C   UNL     1      34.633 -24.125 -13.939  0.00  0.00    +0.171 C 
ATOM     10  C   UNL     1      35.460 -24.578 -12.733  0.00  0.00    +0.169 C 
ATOM     11  C   UNL     1      35.503 -23.360 -14.948  0.00  0.00    +0.167 C 
ATOM     12  C   UNL     1      36.752 -25.266 -13.172  0.00  0.00    +0.169 C 
ATOM     13  C   UNL     1      37.503 -24.411 -14.195  0.00  0.00    +0.174 C 
BRANCH   9  14
ATOM     14  O   UNL     1      33.589 -23.262 -13.489  0.00  0.00    -0.379 OA
ATOM     15  H   UNL     1      33.239 -22.758 -14.240  0.00  0.00    +0.211 HD
ENDBRANCH   9  14
BRANCH  10  16
ATOM     16  O   UNL     1      34.703 -25.511 -11.961  0.00  0.00    -0.379 OA
ATOM     17  H   UNL     1      34.651 -25.204 -11.042  0.00  0.00    +0.211 HD
ENDBRANCH  10  16
BRANCH  12  18
ATOM     18  O   UNL     1      37.584 -25.475 -12.034  0.00  0.00    -0.379 OA
ATOM     19  H   UNL     1      38.140 -26.257 -12.180  0.00  0.00    +0.211 HD
ENDBRANCH  12  18
BRANCH  13  20
ATOM     20  C   UNL     1      38.739 -25.126 -14.730  0.00  0.00    +0.169 C 
BRANCH  20  21
ATOM     21  O   UNL     1      38.414 -26.487 -14.949  0.00  0.00    -0.379 OA
ATOM     22  H   UNL     1      39.150 -27.047 -14.654  0.00  0.00    +0.211 HD
ENDBRANCH  20  21
ENDBRANCH  13  20
ENDBRANCH   1  11
BRANCH   4  23
ATOM     23  C   UNL     1      35.503 -22.408 -19.867  0.00  0.00    +0.059 C 
BRANCH  23  25
ATOM     24  S   UNL     1      34.703 -20.059 -21.140  0.00  0.00    -0.091 S 
ATOM     25  C   UNL     1      35.815 -20.965 -20.204  0.00  0.00    +0.012 C 
ATOM     26  C   UNL     1      36.919 -20.221 -19.851  0.00  0.00    +0.003 C 
ATOM     27  C   UNL     1      35.699 -18.668 -21.076  0.00  0.00    +0.029 C 
ATOM     28  C   UNL     1      36.852 -18.890 -20.356  0.00  0.00    +0.007 C 
BRANCH  27  30
ATOM     29  F   UNL     1      34.013 -14.026 -23.658  0.00  0.00    -0.204 F 
ATOM     30  C   UNL     1      35.262 -17.465 -21.745  0.00  0.00    +0.006 C 
ATOM     31  C   UNL     1      35.128 -17.448 -23.133  0.00  0.00    +0.003 C 
ATOM     32  C   UNL     1      34.974 -16.320 -21.003  0.00  0.00    +0.003 C 
ATOM     33  C   UNL     1      34.706 -16.287 -23.780  0.00  0.00    +0.030 C 
ATOM     34  C   UNL     1      34.552 -15.158 -21.649  0.00  0.00    +0.030 C 
ATOM     35  C   UNL     1      34.418 -15.142 -23.038  0.00  0.00    +0.140 C 
ENDBRANCH  27  30
ENDBRANCH  23  25
ENDBRANCH   4  23
TORSDOF 9
ENDMDL
MODEL 9
REMARK VINA RESULT:      -9.7     10.563     14.190
REMARK  Name = 24812758
REMARK  9 active torsions:
REMARK  status: ('A' for Active; 'I' for Inactive)
REMARK    1  A    between atoms: C_1  and  C_11
REMARK    2  A    between atoms: C_4  and  C_23
REMARK    3  A    between atoms: C_9  and  O_14
REMARK    4  A    between atoms: C_10  and  O_16
REMARK    5  A    between atoms: C_12  and  O_18
REMARK    6  A    between atoms: C_13  and  C_20
REMARK    7  A    between atoms: C_20  and  O_21
REMARK    8  A    between atoms: C_23  and  C_25
REMARK    9  A    between atoms: C_27  and  C_30
REMARK                            x       y       z     vdW  Elec       q    Type
REMARK                         _______ _______ _______ _____ _____    ______ ____
ROOT
ATOM      1  C   UNL     1      33.027 -12.622 -21.661  0.00  0.00    +0.007 C 
ATOM      2  C   UNL     1      32.587 -11.390 -22.143  0.00  0.00    -0.006 C 
ATOM      3  C   UNL     1      32.708 -13.017 -20.362  0.00  0.00    -0.002 C 
ATOM      4  C   UNL     1      31.827 -10.551 -21.327  0.00  0.00    -0.021 C 
ATOM      5  C   UNL     1      31.508 -10.947 -20.028  0.00  0.00    -0.025 C 
ATOM      6  C   UNL     1      31.949 -12.179 -19.545  0.00  0.00    -0.005 C 
ATOM      7  C   UNL     1      30.696 -10.067 -19.134  0.00  0.00    +0.031 C 
ENDROOT
BRANCH   1  11
ATOM      8  O   UNL     1      33.166 -13.660 -23.798  0.00  0.00    -0.347 OA
ATOM      9  C   UNL     1      34.080 -14.909 -21.907  0.00  0.00    +0.171 C 
ATOM     10  C   UNL     1      34.774 -15.862 -22.884  0.00  0.00    +0.169 C 
ATOM     11  C   UNL     1      33.853 -13.532 -22.549  0.00  0.00    +0.167 C 
ATOM     12  C   UNL     1      34.088 -15.857 -24.249  0.00  0.00    +0.169 C 
ATOM     13  C   UNL     1      33.898 -14.426 -24.756  0.00  0.00    +0.174 C 
BRANCH   9  14
ATOM     14  O   UNL     1      34.904 -14.745 -20.753  0.00  0.00    -0.379 OA
ATOM     15  H   UNL     1      35.818 -14.987 -20.972  0.00  0.00    +0.211 HD
ENDBRANCH   9  14
BRANCH  10  16
ATOM     16  O   UNL     1      34.720 -17.193 -22.368  0.00  0.00    -0.379 OA
ATOM     17  H   UNL     1      34.633 -17.163 -21.403  0.00  0.00    +0.211 HD
ENDBRANCH  10  16
BRANCH  12  18
ATOM     18  O   UNL     1      34.885 -16.583 -25.180  0.00  0.00    -0.379 OA
ATOM     19  H   UNL     1      34.557 -16.424 -26.080  0.00  0.00    +0.211 HD
ENDBRANCH  12  18
BRANCH  13  20
ATOM     20  C   UNL     1      33.117 -14.389 -26.065  0.00  0.00    +0.169 C 
BRANCH  20  21
ATOM     21  O   UNL     1      33.920 -13.766 -27.052  0.00  0.00    -0.379 OA
ATOM     22  H   UNL     1      33.692 -12.825 -27.109  0.00  0.00    +0.211 HD
ENDBRANCH  20  21
ENDBRANCH  13  20
ENDBRANCH   1  11
BRANCH   4  23
ATOM     23  C   UNL     1      31.366  -9.237 -21.865  0.00  0.00    +0.059 C 
BRANCH  23  25
ATOM     24  S   UNL     1      32.441  -8.085 -24.166  0.00  0.00    -0.091 S 
ATOM     25  C   UNL     1      32.472  -8.407 -22.485  0.00  0.00    +0.012 C 
ATOM     26  C   UNL     1      33.562  -7.835 -21.868  0.00  0.00    +0.003 C 
ATOM     27  C   UNL     1      33.890  -7.178 -24.073  0.00  0.00    +0.029 C 
ATOM     28  C   UNL     1      34.384  -7.122 -22.788  0.00  0.00    +0.007 C 
BRANCH  27  30
ATOM     29  F   UNL     1      35.961  -4.918 -28.728  0.00  0.00    -0.204 F 
ATOM     30  C   UNL     1      34.427  -6.592 -25.279  0.00  0.00    +0.006 C 
ATOM     31  C   UNL     1      35.506  -5.711 -25.207  0.00  0.00    +0.003 C 
ATOM     32  C   UNL     1      33.866  -6.907 -26.517  0.00  0.00    +0.003 C 
ATOM     33  C   UNL     1      36.025  -5.146 -26.371  0.00  0.00    +0.030 C 
ATOM     34  C   UNL     1      34.384  -6.342 -27.681  0.00  0.00    +0.030 C 
ATOM     35  C   UNL     1      35.464  -5.461 -27.609  0.00  0.00    +0.140 C 
ENDBRANCH  27  30
ENDBRANCH  23  25
ENDBRANCH   4  23
TORSDOF 9
ENDMDL
