MODEL 1
REMARK VINA RESULT:     -12.2      0.000      0.000
REMARK  Name = 11961293
REMARK  7 active torsions:
REMARK  status: ('A' for Active; 'I' for Inactive)
REMARK    1  A    between atoms: C_1  and  C_3
REMARK    2  A    between atoms: C_1  and  N_21
REMARK    3  A    between atoms: N_2  and  C_9
REMARK    4  A    between atoms: C_9  and  C_12
REMARK    5  A    between atoms: C_17  and  O_18
REMARK    6  A    between atoms: C_22  and  C_26
REMARK    7  A    between atoms: C_30  and  C_35
REMARK                            x       y       z     vdW  Elec       q    Type
REMARK                         _______ _______ _______ _____ _____    ______ ____
ROOT
ATOM      1  C   UNL     1      33.746 -15.084 -24.420  0.00  0.00    +0.089 C 
ENDROOT
BRANCH   1   3
ATOM      2  N   UNL     1      35.120 -18.143 -21.697  0.00  0.00    +0.387 N 
ATOM      3  C   UNL     1      34.697 -15.973 -23.623  0.00  0.00    +0.015 C 
ATOM      4  C   UNL     1      35.389 -18.354 -23.125  0.00  0.00    -0.077 C 
ATOM      5  C   UNL     1      35.369 -16.747 -21.312  0.00  0.00    -0.077 C 
ATOM      6  C   UNL     1      34.511 -17.449 -23.992  0.00  0.00    -0.021 C 
ATOM      7  C   UNL     1      34.490 -15.787 -22.116  0.00  0.00    -0.021 C 
ATOM      8  H   UNL     1      34.134 -18.344 -21.529  0.00  0.00    -0.080 HD
BRANCH   2   9
ATOM      9  C   UNL     1      35.929 -19.051 -20.884  0.00  0.00    -0.077 C 
BRANCH   9  12
ATOM     10  O   UNL     1      32.006 -22.583 -17.572  0.00  0.00    -0.226 OA
ATOM     11  N   UNL     1      33.802 -22.290 -19.018  0.00  0.00    -0.246 N 
ATOM     12  C   UNL     1      35.212 -20.384 -20.681  0.00  0.00    -0.017 C 
ATOM     13  C   UNL     1      33.754 -20.161 -20.253  0.00  0.00    +0.020 C 
ATOM     14  C   UNL     1      35.945 -21.243 -19.638  0.00  0.00    +0.020 C 
ATOM     15  C   UNL     1      33.049 -21.487 -19.980  0.00  0.00    +0.097 C 
ATOM     16  C   UNL     1      35.201 -22.551 -19.375  0.00  0.00    +0.097 C 
ATOM     17  C   UNL     1      33.178 -22.798 -17.875  0.00  0.00    +0.405 C 
BRANCH  17  18
ATOM     18  O   UNL     1      34.015 -23.572 -17.116  0.00  0.00    -0.430 OA
ATOM     19  C   UNL     1      33.796 -23.538 -15.700  0.00  0.00    +0.257 C 
ENDBRANCH  17  18
ENDBRANCH   9  12
ENDBRANCH   2   9
ENDBRANCH   1   3
BRANCH   1  21
ATOM     20  O   UNL     1      34.355 -12.295 -24.114  0.00  0.00    -0.270 OA
ATOM     21  N   UNL     1      33.066 -14.137 -23.550  0.00  0.00    -0.301 N 
ATOM     22  C   UNL     1      33.439 -12.810 -23.477  0.00  0.00    +0.247 C 
ATOM     23  H   UNL     1      32.315 -14.453 -22.997  0.00  0.00    +0.150 HD
BRANCH  22  26
ATOM     24  N   UNL     1      32.282  -8.444 -21.901  0.00  0.00    -0.318 N 
ATOM     25  N   UNL     1      33.440  -9.705 -23.318  0.00  0.00    -0.318 N 
ATOM     26  C   UNL     1      32.663 -11.978 -22.522  0.00  0.00    +0.068 C 
ATOM     27  C   UNL     1      32.735 -10.584 -22.537  0.00  0.00    +0.063 C 
ATOM     28  C   UNL     1      31.820 -12.555 -21.566  0.00  0.00    +0.006 C 
ATOM     29  C   UNL     1      32.019  -9.773 -21.661  0.00  0.00    +0.059 C 
ATOM     30  C   UNL     1      33.136  -8.439 -22.900  0.00  0.00    +0.144 C 
ATOM     31  C   UNL     1      31.090 -11.766 -20.673  0.00  0.00    +0.001 C 
ATOM     32  C   UNL     1      31.178 -10.369 -20.707  0.00  0.00    +0.016 C 
ATOM     33  H   UNL     1      31.910  -7.664 -21.428  0.00  0.00    +0.148 HD
ATOM     34  H   UNL     1      34.055  -9.943 -24.049  0.00  0.00    +0.148 HD
BRANCH  30  35
ATOM     35  C   UNL     1      33.676  -7.192 -23.470  0.00  0.00    +0.037 C 
ATOM     36  C   UNL     1      33.101  -5.917 -22.805  0.00  0.00    +0.003 C 
ATOM     37  C   UNL     1      35.222  -7.126 -23.443  0.00  0.00    +0.003 C 
ENDBRANCH  30  35
ENDBRANCH  22  26
ENDBRANCH   1  21
TORSDOF 7
ENDMDL
MODEL 2
REMARK VINA RESULT:     -11.5      2.797      5.293
REMARK  Name = 11961293
REMARK  7 active torsions:
REMARK  status: ('A' for Active; 'I' for Inactive)
REMARK    1  A    between atoms: C_1  and  C_3
REMARK    2  A    between atoms: C_1  and  N_21
REMARK    3  A    between atoms: N_2  and  C_9
REMARK    4  A    between atoms: C_9  and  C_12
REMARK    5  A    between atoms: C_17  and  O_18
REMARK    6  A    between atoms: C_22  and  C_26
REMARK    7  A    between atoms: C_30  and  C_35
REMARK                            x       y       z     vdW  Elec       q    Type
REMARK                         _______ _______ _______ _____ _____    ______ ____
ROOT
ATOM      1  C   UNL     1      36.540 -18.738 -21.189  0.00  0.00    +0.089 C 
ENDROOT
BRANCH   1   3
ATOM      2  N   UNL     1      34.150 -21.622 -19.038  0.00  0.00    +0.387 N 
ATOM      3  C   UNL     1      35.737 -20.002 -20.896  0.00  0.00    +0.015 C 
ATOM      4  C   UNL     1      33.500 -20.915 -20.148  0.00  0.00    -0.077 C 
ATOM      5  C   UNL     1      35.518 -22.024 -19.394  0.00  0.00    -0.077 C 
ATOM      6  C   UNL     1      34.285 -19.662 -20.541  0.00  0.00    -0.021 C 
ATOM      7  C   UNL     1      36.373 -20.808 -19.759  0.00  0.00    -0.021 C 
ATOM      8  H   UNL     1      34.207 -20.981 -18.246  0.00  0.00    -0.080 HD
BRANCH   2   9
ATOM      9  C   UNL     1      33.361 -22.789 -18.641  0.00  0.00    -0.077 C 
BRANCH   9  12
ATOM     10  O   UNL     1      32.143 -25.810 -13.329  0.00  0.00    -0.226 OA
ATOM     11  N   UNL     1      32.009 -23.960 -14.729  0.00  0.00    -0.246 N 
ATOM     12  C   UNL     1      33.042 -22.747 -17.148  0.00  0.00    -0.017 C 
ATOM     13  C   UNL     1      33.822 -23.833 -16.391  0.00  0.00    +0.020 C 
ATOM     14  C   UNL     1      31.533 -22.914 -16.909  0.00  0.00    +0.020 C 
ATOM     15  C   UNL     1      33.456 -23.845 -14.910  0.00  0.00    +0.097 C 
ATOM     16  C   UNL     1      31.207 -22.942 -15.417  0.00  0.00    +0.097 C 
ATOM     17  C   UNL     1      31.474 -24.956 -13.908  0.00  0.00    +0.405 C 
BRANCH  17  18
ATOM     18  O   UNL     1      30.110 -24.882 -13.809  0.00  0.00    -0.430 OA
ATOM     19  C   UNL     1      29.376 -25.975 -14.376  0.00  0.00    +0.257 C 
ENDBRANCH  17  18
ENDBRANCH   9  12
ENDBRANCH   2   9
ENDBRANCH   1   3
BRANCH   1  21
ATOM     20  O   UNL     1      35.093 -16.307 -20.703  0.00  0.00    -0.270 OA
ATOM     21  N   UNL     1      35.869 -17.913 -22.182  0.00  0.00    -0.301 N 
ATOM     22  C   UNL     1      35.198 -16.756 -21.841  0.00  0.00    +0.247 C 
ATOM     23  H   UNL     1      35.895 -18.189 -23.127  0.00  0.00    +0.150 HD
BRANCH  22  26
ATOM     24  N   UNL     1      32.568 -13.040 -23.313  0.00  0.00    -0.318 N 
ATOM     25  N   UNL     1      33.550 -14.127 -21.641  0.00  0.00    -0.318 N 
ATOM     26  C   UNL     1      34.543 -16.041 -22.966  0.00  0.00    +0.068 C 
ATOM     27  C   UNL     1      33.824 -14.861 -22.766  0.00  0.00    +0.063 C 
ATOM     28  C   UNL     1      34.620 -16.516 -24.280  0.00  0.00    +0.006 C 
ATOM     29  C   UNL     1      33.202 -14.161 -23.797  0.00  0.00    +0.059 C 
ATOM     30  C   UNL     1      32.797 -13.050 -22.018  0.00  0.00    +0.144 C 
ATOM     31  C   UNL     1      34.005 -15.836 -25.334  0.00  0.00    +0.001 C 
ATOM     32  C   UNL     1      33.289 -14.654 -25.109  0.00  0.00    +0.016 C 
ATOM     33  H   UNL     1      32.055 -12.374 -23.824  0.00  0.00    +0.148 HD
ATOM     34  H   UNL     1      33.843 -14.339 -20.725  0.00  0.00    +0.148 HD
BRANCH  30  35
ATOM     35  C   UNL     1      32.284 -12.001 -21.119  0.00  0.00    +0.037 C 
ATOM     36  C   UNL     1      30.921 -11.423 -21.570  0.00  0.00    +0.003 C 
ATOM     37  C   UNL     1      32.180 -12.458 -19.643  0.00  0.00    +0.003 C 
ENDBRANCH  30  35
ENDBRANCH  22  26
ENDBRANCH   1  21
TORSDOF 7
ENDMDL
MODEL 3
REMARK VINA RESULT:     -11.4      2.733     12.345
REMARK  Name = 11961293
REMARK  7 active torsions:
REMARK  status: ('A' for Active; 'I' for Inactive)
REMARK    1  A    between atoms: C_1  and  C_3
REMARK    2  A    between atoms: C_1  and  N_21
REMARK    3  A    between atoms: N_2  and  C_9
REMARK    4  A    between atoms: C_9  and  C_12
REMARK    5  A    between atoms: C_17  and  O_18
REMARK    6  A    between atoms: C_22  and  C_26
REMARK    7  A    between atoms: C_30  and  C_35
REMARK                            x       y       z     vdW  Elec       q    Type
REMARK                         _______ _______ _______ _____ _____    ______ ____
ROOT
ATOM      1  C   UNL     1      36.817 -21.570 -18.893  0.00  0.00    +0.089 C 
ENDROOT
BRANCH   1   3
ATOM      2  N   UNL     1      35.370 -18.515 -21.582  0.00  0.00    +0.387 N 
ATOM      3  C   UNL     1      36.435 -20.867 -20.192  0.00  0.00    +0.015 C 
ATOM      4  C   UNL     1      36.805 -18.824 -21.636  0.00  0.00    -0.077 C 
ATOM      5  C   UNL     1      34.568 -19.741 -21.473  0.00  0.00    -0.077 C 
ATOM      6  C   UNL     1      37.253 -19.586 -20.387  0.00  0.00    -0.021 C 
ATOM      7  C   UNL     1      34.939 -20.534 -20.218  0.00  0.00    -0.021 C 
ATOM      8  H   UNL     1      35.200 -17.954 -20.748  0.00  0.00    -0.080 HD
BRANCH   2   9
ATOM      9  C   UNL     1      34.968 -17.742 -22.757  0.00  0.00    -0.077 C 
BRANCH   9  12
ATOM     10  O   UNL     1      32.282 -12.830 -20.022  0.00  0.00    -0.226 OA
ATOM     11  N   UNL     1      33.617 -13.811 -21.651  0.00  0.00    -0.246 N 
ATOM     12  C   UNL     1      34.966 -16.247 -22.451  0.00  0.00    -0.017 C 
ATOM     13  C   UNL     1      34.561 -15.988 -20.992  0.00  0.00    +0.020 C 
ATOM     14  C   UNL     1      34.024 -15.496 -23.404  0.00  0.00    +0.020 C 
ATOM     15  C   UNL     1      34.488 -14.493 -20.695  0.00  0.00    +0.097 C 
ATOM     16  C   UNL     1      33.961 -14.008 -23.064  0.00  0.00    +0.097 C 
ATOM     17  C   UNL     1      32.573 -12.998 -21.205  0.00  0.00    +0.405 C 
BRANCH  17  18
ATOM     18  O   UNL     1      31.896 -12.396 -22.233  0.00  0.00    -0.430 OA
ATOM     19  C   UNL     1      31.083 -11.269 -21.880  0.00  0.00    +0.257 C 
ENDBRANCH  17  18
ENDBRANCH   9  12
ENDBRANCH   2   9
ENDBRANCH   1   3
BRANCH   1  21
ATOM     20  O   UNL     1      36.760 -23.021 -16.416  0.00  0.00    -0.270 OA
ATOM     21  N   UNL     1      35.633 -22.017 -18.175  0.00  0.00    -0.301 N 
ATOM     22  C   UNL     1      35.716 -22.712 -16.985  0.00  0.00    +0.247 C 
ATOM     23  H   UNL     1      34.745 -21.817 -18.549  0.00  0.00    +0.150 HD
BRANCH  22  26
ATOM     24  N   UNL     1      33.362 -24.591 -13.268  0.00  0.00    -0.318 N 
ATOM     25  N   UNL     1      35.295 -23.979 -14.176  0.00  0.00    -0.318 N 
ATOM     26  C   UNL     1      34.418 -23.120 -16.389  0.00  0.00    +0.068 C 
ATOM     27  C   UNL     1      34.340 -23.681 -15.113  0.00  0.00    +0.063 C 
ATOM     28  C   UNL     1      33.213 -22.957 -17.080  0.00  0.00    +0.006 C 
ATOM     29  C   UNL     1      33.141 -24.071 -14.523  0.00  0.00    +0.059 C 
ATOM     30  C   UNL     1      34.662 -24.520 -13.093  0.00  0.00    +0.144 C 
ATOM     31  C   UNL     1      31.994 -23.340 -16.513  0.00  0.00    +0.001 C 
ATOM     32  C   UNL     1      31.940 -23.901 -15.231  0.00  0.00    +0.016 C 
ATOM     33  H   UNL     1      32.691 -24.939 -12.637  0.00  0.00    +0.148 HD
ATOM     34  H   UNL     1      36.265 -23.829 -14.268  0.00  0.00    +0.148 HD
BRANCH  30  35
ATOM     35  C   UNL     1      35.317 -24.981 -11.855  0.00  0.00    +0.037 C 
ATOM     36  C   UNL     1      36.602 -25.804 -12.113  0.00  0.00    +0.003 C 
ATOM     37  C   UNL     1      35.639 -23.831 -10.868  0.00  0.00    +0.003 C 
ENDBRANCH  30  35
ENDBRANCH  22  26
ENDBRANCH   1  21
TORSDOF 7
ENDMDL
MODEL 4
REMARK VINA RESULT:     -11.4      1.670      2.804
REMARK  Name = 11961293
REMARK  7 active torsions:
REMARK  status: ('A' for Active; 'I' for Inactive)
REMARK    1  A    between atoms: C_1  and  C_3
REMARK    2  A    between atoms: C_1  and  N_21
REMARK    3  A    between atoms: N_2  and  C_9
REMARK    4  A    between atoms: C_9  and  C_12
REMARK    5  A    between atoms: C_17  and  O_18
REMARK    6  A    between atoms: C_22  and  C_26
REMARK    7  A    between atoms: C_30  and  C_35
REMARK                            x       y       z     vdW  Elec       q    Type
REMARK                         _______ _______ _______ _____ _____    ______ ____
ROOT
ATOM      1  C   UNL     1      33.166 -12.986 -23.977  0.00  0.00    +0.089 C 
ENDROOT
BRANCH   1   3
ATOM      2  N   UNL     1      35.088 -16.852 -23.842  0.00  0.00    +0.387 N 
ATOM      3  C   UNL     1      33.384 -14.470 -23.699  0.00  0.00    +0.015 C 
ATOM      4  C   UNL     1      34.863 -16.176 -22.558  0.00  0.00    -0.077 C 
ATOM      5  C   UNL     1      33.920 -16.719 -24.723  0.00  0.00    -0.077 C 
ATOM      6  C   UNL     1      34.577 -14.686 -22.761  0.00  0.00    -0.021 C 
ATOM      7  C   UNL     1      33.603 -15.248 -25.001  0.00  0.00    -0.021 C 
ATOM      8  H   UNL     1      35.880 -16.401 -24.301  0.00  0.00    -0.080 HD
BRANCH   2   9
ATOM      9  C   UNL     1      35.411 -18.263 -23.629  0.00  0.00    -0.077 C 
BRANCH   9  12
ATOM     10  O   UNL     1      36.801 -22.082 -18.905  0.00  0.00    -0.226 OA
ATOM     11  N   UNL     1      35.428 -20.549 -19.986  0.00  0.00    -0.246 N 
ATOM     12  C   UNL     1      35.268 -18.637 -22.156  0.00  0.00    -0.017 C 
ATOM     13  C   UNL     1      36.616 -19.089 -21.573  0.00  0.00    +0.020 C 
ATOM     14  C   UNL     1      34.214 -19.741 -21.973  0.00  0.00    +0.020 C 
ATOM     15  C   UNL     1      36.470 -19.532 -20.120  0.00  0.00    +0.097 C 
ATOM     16  C   UNL     1      34.111 -20.173 -20.512  0.00  0.00    +0.097 C 
ATOM     17  C   UNL     1      35.699 -21.763 -19.348  0.00  0.00    +0.405 C 
BRANCH  17  18
ATOM     18  O   UNL     1      34.597 -22.572 -19.263  0.00  0.00    -0.430 OA
ATOM     19  C   UNL     1      34.109 -22.837 -17.941  0.00  0.00    +0.257 C 
ENDBRANCH  17  18
ENDBRANCH   9  12
ENDBRANCH   2   9
ENDBRANCH   1   3
BRANCH   1  21
ATOM     20  O   UNL     1      32.322 -10.250 -23.771  0.00  0.00    -0.270 OA
ATOM     21  N   UNL     1      32.817 -12.274 -22.757  0.00  0.00    -0.301 N 
ATOM     22  C   UNL     1      32.421 -10.951 -22.767  0.00  0.00    +0.247 C 
ATOM     23  H   UNL     1      32.864 -12.751 -21.896  0.00  0.00    +0.150 HD
BRANCH  22  26
ATOM     24  N   UNL     1      31.959  -7.023 -20.076  0.00  0.00    -0.318 N 
ATOM     25  N   UNL     1      32.406  -7.924 -22.058  0.00  0.00    -0.318 N 
ATOM     26  C   UNL     1      32.124 -10.361 -21.437  0.00  0.00    +0.068 C 
ATOM     27  C   UNL     1      32.143  -8.981 -21.226  0.00  0.00    +0.063 C 
ATOM     28  C   UNL     1      31.807 -11.162 -20.335  0.00  0.00    +0.006 C 
ATOM     29  C   UNL     1      31.866  -8.393 -19.995  0.00  0.00    +0.059 C 
ATOM     30  C   UNL     1      32.284  -6.776 -21.326  0.00  0.00    +0.144 C 
ATOM     31  C   UNL     1      31.525 -10.601 -19.087  0.00  0.00    +0.001 C 
ATOM     32  C   UNL     1      31.551  -9.213 -18.899  0.00  0.00    +0.016 C 
ATOM     33  H   UNL     1      31.813  -6.369 -19.355  0.00  0.00    +0.148 HD
ATOM     34  H   UNL     1      32.641  -7.982 -23.013  0.00  0.00    +0.148 HD
BRANCH  30  35
ATOM     35  C   UNL     1      32.481  -5.406 -21.833  0.00  0.00    +0.037 C 
ATOM     36  C   UNL     1      32.816  -5.357 -23.344  0.00  0.00    +0.003 C 
ATOM     37  C   UNL     1      31.281  -4.470 -21.547  0.00  0.00    +0.003 C 
ENDBRANCH  30  35
ENDBRANCH  22  26
ENDBRANCH   1  21
TORSDOF 7
ENDMDL
MODEL 5
REMARK VINA RESULT:     -11.1      2.674     12.719
REMARK  Name = 11961293
REMARK  7 active torsions:
REMARK  status: ('A' for Active; 'I' for Inactive)
REMARK    1  A    between atoms: C_1  and  C_3
REMARK    2  A    between atoms: C_1  and  N_21
REMARK    3  A    between atoms: N_2  and  C_9
REMARK    4  A    between atoms: C_9  and  C_12
REMARK    5  A    between atoms: C_17  and  O_18
REMARK    6  A    between atoms: C_22  and  C_26
REMARK    7  A    between atoms: C_30  and  C_35
REMARK                            x       y       z     vdW  Elec       q    Type
REMARK                         _______ _______ _______ _____ _____    ______ ____
ROOT
ATOM      1  C   UNL     1      34.152 -22.940 -19.268  0.00  0.00    +0.089 C 
ENDROOT
BRANCH   1   3
ATOM      2  N   UNL     1      35.646 -19.373 -21.192  0.00  0.00    +0.387 N 
ATOM      3  C   UNL     1      34.601 -21.494 -19.459  0.00  0.00    +0.015 C 
ATOM      4  C   UNL     1      34.240 -19.361 -20.771  0.00  0.00    -0.077 C 
ATOM      5  C   UNL     1      36.502 -19.985 -20.167  0.00  0.00    -0.077 C 
ATOM      6  C   UNL     1      33.733 -20.780 -20.501  0.00  0.00    -0.021 C 
ATOM      7  C   UNL     1      36.073 -21.425 -19.878  0.00  0.00    -0.021 C 
ATOM      8  H   UNL     1      35.717 -19.938 -22.039  0.00  0.00    -0.080 HD
BRANCH   2   9
ATOM      9  C   UNL     1      36.102 -18.016 -21.496  0.00  0.00    -0.077 C 
BRANCH   9  12
ATOM     10  O   UNL     1      33.970 -13.312 -24.982  0.00  0.00    -0.226 OA
ATOM     11  N   UNL     1      33.883 -14.714 -23.131  0.00  0.00    -0.246 N 
ATOM     12  C   UNL     1      34.937 -17.141 -21.951  0.00  0.00    -0.017 C 
ATOM     13  C   UNL     1      35.008 -16.879 -23.464  0.00  0.00    +0.020 C 
ATOM     14  C   UNL     1      34.922 -15.809 -21.183  0.00  0.00    +0.020 C 
ATOM     15  C   UNL     1      33.888 -15.947 -23.917  0.00  0.00    +0.097 C 
ATOM     16  C   UNL     1      33.802 -14.896 -21.678  0.00  0.00    +0.097 C 
ATOM     17  C   UNL     1      33.903 -13.469 -23.765  0.00  0.00    +0.405 C 
BRANCH  17  18
ATOM     18  O   UNL     1      33.838 -12.425 -22.880  0.00  0.00    -0.430 OA
ATOM     19  C   UNL     1      32.747 -11.513 -23.058  0.00  0.00    +0.257 C 
ENDBRANCH  17  18
ENDBRANCH   9  12
ENDBRANCH   2   9
ENDBRANCH   1   3
BRANCH   1  21
ATOM     20  O   UNL     1      35.579 -23.156 -16.787  0.00  0.00    -0.270 OA
ATOM     21  N   UNL     1      33.574 -23.135 -17.948  0.00  0.00    -0.301 N 
ATOM     22  C   UNL     1      34.353 -23.226 -16.812  0.00  0.00    +0.247 C 
ATOM     23  H   UNL     1      32.595 -23.204 -17.861  0.00  0.00    +0.150 HD
BRANCH  22  26
ATOM     24  N   UNL     1      34.390 -24.892 -12.327  0.00  0.00    -0.318 N 
ATOM     25  N   UNL     1      35.479 -24.551 -14.234  0.00  0.00    -0.318 N 
ATOM     26  C   UNL     1      33.613 -23.452 -15.544  0.00  0.00    +0.068 C 
ATOM     27  C   UNL     1      34.217 -24.058 -14.440  0.00  0.00    +0.063 C 
ATOM     28  C   UNL     1      32.278 -23.064 -15.396  0.00  0.00    +0.006 C 
ATOM     29  C   UNL     1      33.556 -24.281 -13.235  0.00  0.00    +0.059 C 
ATOM     30  C   UNL     1      35.534 -25.039 -12.959  0.00  0.00    +0.144 C 
ATOM     31  C   UNL     1      31.589 -23.276 -14.199  0.00  0.00    +0.001 C 
ATOM     32  C   UNL     1      32.215 -23.886 -13.105  0.00  0.00    +0.016 C 
ATOM     33  H   UNL     1      34.177 -25.161 -11.405  0.00  0.00    +0.148 HD
ATOM     34  H   UNL     1      36.215 -24.554 -14.889  0.00  0.00    +0.148 HD
BRANCH  30  35
ATOM     35  C   UNL     1      36.710 -25.661 -12.324  0.00  0.00    +0.037 C 
ATOM     36  C   UNL     1      37.493 -26.599 -13.275  0.00  0.00    +0.003 C 
ATOM     37  C   UNL     1      37.688 -24.631 -11.706  0.00  0.00    +0.003 C 
ENDBRANCH  30  35
ENDBRANCH  22  26
ENDBRANCH   1  21
TORSDOF 7
ENDMDL
MODEL 6
REMARK VINA RESULT:     -11.1      3.984      7.884
REMARK  Name = 11961293
REMARK  7 active torsions:
REMARK  status: ('A' for Active; 'I' for Inactive)
REMARK    1  A    between atoms: C_1  and  C_3
REMARK    2  A    between atoms: C_1  and  N_21
REMARK    3  A    between atoms: N_2  and  C_9
REMARK    4  A    between atoms: C_9  and  C_12
REMARK    5  A    between atoms: C_17  and  O_18
REMARK    6  A    between atoms: C_22  and  C_26
REMARK    7  A    between atoms: C_30  and  C_35
REMARK                            x       y       z     vdW  Elec       q    Type
REMARK                         _______ _______ _______ _____ _____    ______ ____
ROOT
ATOM      1  C   UNL     1      36.820 -21.422 -19.469  0.00  0.00    +0.089 C 
ENDROOT
BRANCH   1   3
ATOM      2  N   UNL     1      34.594 -23.456 -16.377  0.00  0.00    +0.387 N 
ATOM      3  C   UNL     1      35.827 -21.655 -18.334  0.00  0.00    +0.015 C 
ATOM      4  C   UNL     1      35.551 -22.431 -15.942  0.00  0.00    -0.077 C 
ATOM      5  C   UNL     1      33.840 -23.012 -17.557  0.00  0.00    -0.077 C 
ATOM      6  C   UNL     1      36.547 -22.099 -17.056  0.00  0.00    -0.021 C 
ATOM      7  C   UNL     1      34.778 -22.700 -18.726  0.00  0.00    -0.021 C 
ATOM      8  H   UNL     1      35.121 -24.290 -16.637  0.00  0.00    -0.080 HD
BRANCH   2   9
ATOM      9  C   UNL     1      33.681 -23.800 -15.287  0.00  0.00    -0.077 C 
BRANCH   9  12
ATOM     10  O   UNL     1      38.043 -25.076 -11.023  0.00  0.00    -0.226 OA
ATOM     11  N   UNL     1      36.557 -25.686 -12.703  0.00  0.00    -0.246 N 
ATOM     12  C   UNL     1      34.330 -24.795 -14.327  0.00  0.00    -0.017 C 
ATOM     13  C   UNL     1      34.679 -24.119 -12.992  0.00  0.00    +0.020 C 
ATOM     14  C   UNL     1      35.590 -25.414 -14.953  0.00  0.00    +0.020 C 
ATOM     15  C   UNL     1      35.392 -25.087 -12.052  0.00  0.00    +0.097 C 
ATOM     16  C   UNL     1      36.287 -26.360 -13.977  0.00  0.00    +0.097 C 
ATOM     17  C   UNL     1      37.813 -25.639 -12.092  0.00  0.00    +0.405 C 
BRANCH  17  18
ATOM     18  O   UNL     1      38.775 -26.296 -12.812  0.00  0.00    -0.430 OA
ATOM     19  C   UNL     1      39.694 -25.470 -13.537  0.00  0.00    +0.257 C 
ENDBRANCH  17  18
ENDBRANCH   9  12
ENDBRANCH   2   9
ENDBRANCH   1   3
BRANCH   1  21
ATOM     20  O   UNL     1      36.800 -18.678 -20.315  0.00  0.00    -0.270 OA
ATOM     21  N   UNL     1      36.151 -20.879 -20.642  0.00  0.00    -0.301 N 
ATOM     22  C   UNL     1      36.204 -19.537 -20.961  0.00  0.00    +0.247 C 
ATOM     23  H   UNL     1      35.645 -21.488 -21.227  0.00  0.00    +0.150 HD
BRANCH  22  26
ATOM     24  N   UNL     1      34.106 -16.049 -23.475  0.00  0.00    -0.318 N 
ATOM     25  N   UNL     1      35.233 -16.667 -21.663  0.00  0.00    -0.318 N 
ATOM     26  C   UNL     1      35.448 -19.137 -22.175  0.00  0.00    +0.068 C 
ATOM     27  C   UNL     1      35.060 -17.813 -22.395  0.00  0.00    +0.063 C 
ATOM     28  C   UNL     1      35.093 -20.068 -23.157  0.00  0.00    +0.006 C 
ATOM     29  C   UNL     1      34.354 -17.402 -23.522  0.00  0.00    +0.059 C 
ATOM     30  C   UNL     1      34.646 -15.641 -22.349  0.00  0.00    +0.144 C 
ATOM     31  C   UNL     1      34.385 -19.684 -24.298  0.00  0.00    +0.001 C 
ATOM     32  C   UNL     1      34.005 -18.351 -24.497  0.00  0.00    +0.016 C 
ATOM     33  H   UNL     1      33.627 -15.504 -24.141  0.00  0.00    +0.148 HD
ATOM     34  H   UNL     1      35.698 -16.597 -20.797  0.00  0.00    +0.148 HD
BRANCH  30  35
ATOM     35  C   UNL     1      34.601 -14.232 -21.918  0.00  0.00    +0.037 C 
ATOM     36  C   UNL     1      34.207 -13.258 -23.054  0.00  0.00    +0.003 C 
ATOM     37  C   UNL     1      33.676 -13.994 -20.699  0.00  0.00    +0.003 C 
ENDBRANCH  30  35
ENDBRANCH  22  26
ENDBRANCH   1  21
TORSDOF 7
ENDMDL
MODEL 7
REMARK VINA RESULT:     -10.7      3.754      7.092
REMARK  Name = 11961293
REMARK  7 active torsions:
REMARK  status: ('A' for Active; 'I' for Inactive)
REMARK    1  A    between atoms: C_1  and  C_3
REMARK    2  A    between atoms: C_1  and  N_21
REMARK    3  A    between atoms: N_2  and  C_9
REMARK    4  A    between atoms: C_9  and  C_12
REMARK    5  A    between atoms: C_17  and  O_18
REMARK    6  A    between atoms: C_22  and  C_26
REMARK    7  A    between atoms: C_30  and  C_35
REMARK                            x       y       z     vdW  Elec       q    Type
REMARK                         _______ _______ _______ _____ _____    ______ ____
ROOT
ATOM      1  C   UNL     1      37.146 -20.187 -19.434  0.00  0.00    +0.089 C 
ENDROOT
BRANCH   1   3
ATOM      2  N   UNL     1      34.841 -22.744 -16.826  0.00  0.00    +0.387 N 
ATOM      3  C   UNL     1      36.638 -21.452 -18.749  0.00  0.00    +0.015 C 
ATOM      4  C   UNL     1      34.608 -22.883 -18.270  0.00  0.00    -0.077 C 
ATOM      5  C   UNL     1      36.274 -22.610 -16.531  0.00  0.00    -0.077 C 
ATOM      6  C   UNL     1      35.148 -21.672 -19.034  0.00  0.00    -0.021 C 
ATOM      7  C   UNL     1      36.871 -21.390 -17.236  0.00  0.00    -0.021 C 
ATOM      8  H   UNL     1      34.375 -21.893 -16.512  0.00  0.00    -0.080 HD
BRANCH   2   9
ATOM      9  C   UNL     1      34.274 -23.883 -16.104  0.00  0.00    -0.077 C 
BRANCH   9  12
ATOM     10  O   UNL     1      28.555 -25.500 -14.232  0.00  0.00    -0.226 OA
ATOM     11  N   UNL     1      30.134 -23.949 -14.941  0.00  0.00    -0.246 N 
ATOM     12  C   UNL     1      32.952 -23.504 -15.442  0.00  0.00    -0.017 C 
ATOM     13  C   UNL     1      32.462 -24.628 -14.516  0.00  0.00    +0.020 C 
ATOM     14  C   UNL     1      31.883 -23.186 -16.500  0.00  0.00    +0.020 C 
ATOM     15  C   UNL     1      31.106 -24.288 -13.903  0.00  0.00    +0.097 C 
ATOM     16  C   UNL     1      30.536 -22.872 -15.852  0.00  0.00    +0.097 C 
ATOM     17  C   UNL     1      28.897 -24.598 -14.993  0.00  0.00    +0.405 C 
BRANCH  17  18
ATOM     18  O   UNL     1      28.091 -24.118 -15.992  0.00  0.00    -0.430 OA
ATOM     19  C   UNL     1      27.361 -22.921 -15.694  0.00  0.00    +0.257 C 
ENDBRANCH  17  18
ENDBRANCH   9  12
ENDBRANCH   2   9
ENDBRANCH   1   3
BRANCH   1  21
ATOM     20  O   UNL     1      36.071 -17.684 -20.341  0.00  0.00    -0.270 OA
ATOM     21  N   UNL     1      36.433 -19.948 -20.680  0.00  0.00    -0.301 N 
ATOM     22  C   UNL     1      35.955 -18.699 -21.023  0.00  0.00    +0.247 C 
ATOM     23  H   UNL     1      36.288 -20.700 -21.298  0.00  0.00    +0.150 HD
BRANCH  22  26
ATOM     24  N   UNL     1      33.826 -15.985 -24.338  0.00  0.00    -0.318 N 
ATOM     25  N   UNL     1      34.913 -16.115 -22.404  0.00  0.00    -0.318 N 
ATOM     26  C   UNL     1      35.226 -18.625 -22.315  0.00  0.00    +0.068 C 
ATOM     27  C   UNL     1      34.802 -17.407 -22.849  0.00  0.00    +0.063 C 
ATOM     28  C   UNL     1      34.935 -19.774 -23.058  0.00  0.00    +0.006 C 
ATOM     29  C   UNL     1      34.121 -17.299 -24.059  0.00  0.00    +0.059 C 
ATOM     30  C   UNL     1      34.316 -15.303 -23.326  0.00  0.00    +0.144 C 
ATOM     31  C   UNL     1      34.252 -19.697 -24.275  0.00  0.00    +0.001 C 
ATOM     32  C   UNL     1      33.836 -18.464 -24.791  0.00  0.00    +0.016 C 
ATOM     33  H   UNL     1      33.353 -15.631 -25.125  0.00  0.00    +0.148 HD
ATOM     34  H   UNL     1      35.346 -15.825 -21.568  0.00  0.00    +0.148 HD
BRANCH  30  35
ATOM     35  C   UNL     1      34.210 -13.835 -23.241  0.00  0.00    +0.037 C 
ATOM     36  C   UNL     1      33.676 -13.184 -24.540  0.00  0.00    +0.003 C 
ATOM     37  C   UNL     1      33.357 -13.352 -22.042  0.00  0.00    +0.003 C 
ENDBRANCH  30  35
ENDBRANCH  22  26
ENDBRANCH   1  21
TORSDOF 7
ENDMDL
MODEL 8
REMARK VINA RESULT:     -10.7      2.612     11.871
REMARK  Name = 11961293
REMARK  7 active torsions:
REMARK  status: ('A' for Active; 'I' for Inactive)
REMARK    1  A    between atoms: C_1  and  C_3
REMARK    2  A    between atoms: C_1  and  N_21
REMARK    3  A    between atoms: N_2  and  C_9
REMARK    4  A    between atoms: C_9  and  C_12
REMARK    5  A    between atoms: C_17  and  O_18
REMARK    6  A    between atoms: C_22  and  C_26
REMARK    7  A    between atoms: C_30  and  C_35
REMARK                            x       y       z     vdW  Elec       q    Type
REMARK                         _______ _______ _______ _____ _____    ______ ____
ROOT
ATOM      1  C   UNL     1      34.940 -22.651 -19.561  0.00  0.00    +0.089 C 
ENDROOT
BRANCH   1   3
ATOM      2  N   UNL     1      35.955 -18.863 -21.369  0.00  0.00    +0.387 N 
ATOM      3  C   UNL     1      35.206 -21.156 -19.703  0.00  0.00    +0.015 C 
ATOM      4  C   UNL     1      34.565 -19.039 -20.931  0.00  0.00    -0.077 C 
ATOM      5  C   UNL     1      36.896 -19.401 -20.378  0.00  0.00    -0.077 C 
ATOM      6  C   UNL     1      34.240 -20.518 -20.708  0.00  0.00    -0.021 C 
ATOM      7  C   UNL     1      36.651 -20.892 -20.137  0.00  0.00    -0.021 C 
ATOM      8  H   UNL     1      36.081 -19.385 -22.237  0.00  0.00    -0.080 HD
BRANCH   2   9
ATOM      9  C   UNL     1      36.236 -17.450 -21.627  0.00  0.00    -0.077 C 
BRANCH   9  12
ATOM     10  O   UNL     1      33.501 -12.941 -24.946  0.00  0.00    -0.226 OA
ATOM     11  N   UNL     1      33.610 -14.397 -23.138  0.00  0.00    -0.246 N 
ATOM     12  C   UNL     1      34.968 -16.711 -22.044  0.00  0.00    -0.017 C 
ATOM     13  C   UNL     1      34.986 -16.397 -23.548  0.00  0.00    +0.020 C 
ATOM     14  C   UNL     1      34.801 -15.415 -21.235  0.00  0.00    +0.020 C 
ATOM     15  C   UNL     1      33.755 -15.596 -23.962  0.00  0.00    +0.097 C 
ATOM     16  C   UNL     1      33.571 -14.630 -21.690  0.00  0.00    +0.097 C 
ATOM     17  C   UNL     1      33.470 -13.140 -23.733  0.00  0.00    +0.405 C 
BRANCH  17  18
ATOM     18  O   UNL     1      33.291 -12.139 -22.816  0.00  0.00    -0.430 OA
ATOM     19  C   UNL     1      32.569 -10.988 -23.271  0.00  0.00    +0.257 C 
ENDBRANCH  17  18
ENDBRANCH   9  12
ENDBRANCH   2   9
ENDBRANCH   1   3
BRANCH   1  21
ATOM     20  O   UNL     1      32.285 -22.450 -18.485  0.00  0.00    -0.270 OA
ATOM     21  N   UNL     1      34.524 -22.980 -18.206  0.00  0.00    -0.301 N 
ATOM     22  C   UNL     1      33.216 -22.847 -17.787  0.00  0.00    +0.247 C 
ATOM     23  H   UNL     1      35.198 -23.308 -17.567  0.00  0.00    +0.150 HD
BRANCH  22  26
ATOM     24  N   UNL     1      30.027 -23.811 -14.353  0.00  0.00    -0.318 N 
ATOM     25  N   UNL     1      30.431 -23.280 -16.473  0.00  0.00    -0.318 N 
ATOM     26  C   UNL     1      32.958 -23.198 -16.367  0.00  0.00    +0.068 C 
ATOM     27  C   UNL     1      31.663 -23.372 -15.877  0.00  0.00    +0.063 C 
ATOM     28  C   UNL     1      34.005 -23.374 -15.456  0.00  0.00    +0.006 C 
ATOM     29  C   UNL     1      31.384 -23.705 -14.555  0.00  0.00    +0.059 C 
ATOM     30  C   UNL     1      29.487 -23.551 -15.522  0.00  0.00    +0.144 C 
ATOM     31  C   UNL     1      33.756 -23.708 -14.122  0.00  0.00    +0.001 C 
ATOM     32  C   UNL     1      32.448 -23.877 -13.653  0.00  0.00    +0.016 C 
ATOM     33  H   UNL     1      29.562 -24.034 -13.515  0.00  0.00    +0.148 HD
ATOM     34  H   UNL     1      30.258 -23.059 -17.417  0.00  0.00    +0.148 HD
BRANCH  30  35
ATOM     35  C   UNL     1      28.028 -23.562 -15.736  0.00  0.00    +0.037 C 
ATOM     36  C   UNL     1      27.306 -22.358 -15.086  0.00  0.00    +0.003 C 
ATOM     37  C   UNL     1      27.630 -23.648 -17.230  0.00  0.00    +0.003 C 
ENDBRANCH  30  35
ENDBRANCH  22  26
ENDBRANCH   1  21
TORSDOF 7
ENDMDL
MODEL 9
REMARK VINA RESULT:     -10.6      3.394     11.922
REMARK  Name = 11961293
REMARK  7 active torsions:
REMARK  status: ('A' for Active; 'I' for Inactive)
REMARK    1  A    between atoms: C_1  and  C_3
REMARK    2  A    between atoms: C_1  and  N_21
REMARK    3  A    between atoms: N_2  and  C_9
REMARK    4  A    between atoms: C_9  and  C_12
REMARK    5  A    between atoms: C_17  and  O_18
REMARK    6  A    between atoms: C_22  and  C_26
REMARK    7  A    between atoms: C_30  and  C_35
REMARK                            x       y       z     vdW  Elec       q    Type
REMARK                         _______ _______ _______ _____ _____    ______ ____
ROOT
ATOM      1  C   UNL     1      32.315 -12.472 -19.785  0.00  0.00    +0.089 C 
ENDROOT
BRANCH   1   3
ATOM      2  N   UNL     1      32.031  -8.304 -20.882  0.00  0.00    +0.387 N 
ATOM      3  C   UNL     1      31.712 -11.094 -20.038  0.00  0.00    +0.015 C 
ATOM      4  C   UNL     1      31.344  -9.269 -21.751  0.00  0.00    -0.077 C 
ATOM      5  C   UNL     1      31.836  -8.634 -19.464  0.00  0.00    -0.077 C 
ATOM      6  C   UNL     1      31.857 -10.691 -21.510  0.00  0.00    -0.021 C 
ATOM      7  C   UNL     1      32.366 -10.034 -19.145  0.00  0.00    -0.021 C 
ATOM      8  H   UNL     1      33.030  -8.356 -21.082  0.00  0.00    -0.080 HD
BRANCH   2   9
ATOM      9  C   UNL     1      31.568  -6.944 -21.160  0.00  0.00    -0.077 C 
BRANCH   9  12
ATOM     10  O   UNL     1      33.364  -5.161 -26.854  0.00  0.00    -0.226 OA
ATOM     11  N   UNL     1      33.780  -5.695 -24.631  0.00  0.00    -0.246 N 
ATOM     12  C   UNL     1      32.560  -6.203 -22.053  0.00  0.00    -0.017 C 
ATOM     13  C   UNL     1      31.827  -5.425 -23.156  0.00  0.00    +0.020 C 
ATOM     14  C   UNL     1      33.569  -7.181 -22.676  0.00  0.00    +0.020 C 
ATOM     15  C   UNL     1      32.813  -4.738 -24.097  0.00  0.00    +0.097 C 
ATOM     16  C   UNL     1      34.525  -6.462 -23.626  0.00  0.00    +0.097 C 
ATOM     17  C   UNL     1      33.985  -5.803 -26.009  0.00  0.00    +0.405 C 
BRANCH  17  18
ATOM     18  O   UNL     1      34.964  -6.707 -26.328  0.00  0.00    -0.430 OA
ATOM     19  C   UNL     1      35.728  -6.420 -27.506  0.00  0.00    +0.257 C 
ENDBRANCH  17  18
ENDBRANCH   9  12
ENDBRANCH   2   9
ENDBRANCH   1   3
BRANCH   1  21
ATOM     20  O   UNL     1      34.559 -14.155 -20.401  0.00  0.00    -0.270 OA
ATOM     21  N   UNL     1      32.559 -13.171 -21.038  0.00  0.00    -0.301 N 
ATOM     22  C   UNL     1      33.676 -13.960 -21.232  0.00  0.00    +0.247 C 
ATOM     23  H   UNL     1      31.907 -13.079 -21.770  0.00  0.00    +0.150 HD
BRANCH  22  26
ATOM     24  N   UNL     1      35.083 -17.697 -23.866  0.00  0.00    -0.318 N 
ATOM     25  N   UNL     1      34.904 -16.745 -21.866  0.00  0.00    -0.318 N 
ATOM     26  C   UNL     1      33.793 -14.584 -22.575  0.00  0.00    +0.068 C 
ATOM     27  C   UNL     1      34.363 -15.847 -22.749  0.00  0.00    +0.063 C 
ATOM     28  C   UNL     1      33.334 -13.936 -23.726  0.00  0.00    +0.006 C 
ATOM     29  C   UNL     1      34.486 -16.464 -23.991  0.00  0.00    +0.059 C 
ATOM     30  C   UNL     1      35.320 -17.833 -22.581  0.00  0.00    +0.144 C 
ATOM     31  C   UNL     1      33.444 -14.531 -24.985  0.00  0.00    +0.001 C 
ATOM     32  C   UNL     1      34.019 -15.798 -25.137  0.00  0.00    +0.016 C 
ATOM     33  H   UNL     1      35.288 -18.339 -24.584  0.00  0.00    +0.148 HD
ATOM     34  H   UNL     1      34.979 -16.626 -20.891  0.00  0.00    +0.148 HD
BRANCH  30  35
ATOM     35  C   UNL     1      35.960 -19.037 -22.020  0.00  0.00    +0.037 C 
ATOM     36  C   UNL     1      37.339 -18.752 -21.375  0.00  0.00    +0.003 C 
ATOM     37  C   UNL     1      35.067 -19.787 -21.002  0.00  0.00    +0.003 C 
ENDBRANCH  30  35
ENDBRANCH  22  26
ENDBRANCH   1  21
TORSDOF 7
ENDMDL
