MODEL 1
REMARK VINA RESULT:     -12.3      0.000      0.000
REMARK  Name = 93184
REMARK  8 active torsions:
REMARK  status: ('A' for Active; 'I' for Inactive)
REMARK    1  A    between atoms: C_1  and  C_2
REMARK    2  A    between atoms: C_1  and  C_10
REMARK    3  A    between atoms: C_1  and  C_27
REMARK    4  A    between atoms: N_9  and  CA_18
REMARK    5  A    between atoms: CA_17  and  C_23
REMARK    6  A    between atoms: C_23  and  O_24
REMARK    7  A    between atoms: C_27  and  O_28
REMARK    8  A    between atoms: O_28  and  C_35
REMARK                            x       y       z     vdW  Elec       q    Type
REMARK                         _______ _______ _______ _____ _____    ______ ____
ROOT
ATOM      1  C   UNL     1      32.521 -23.605 -16.598  0.00  0.00    +0.198 C 
ENDROOT
BRANCH   1   2
ATOM      2  C   UNL     1      31.101 -23.750 -16.080  0.00  0.00    -0.003 C 
ATOM      3  C   UNL     1      30.777 -24.852 -15.312  0.00  0.00    -0.003 C 
ATOM      4  C   UNL     1      30.171 -22.776 -16.392  0.00  0.00    -0.003 C 
ATOM      5  C   UNL     1      29.472 -24.985 -14.838  0.00  0.00    -0.000 C 
ATOM      6  C   UNL     1      28.867 -22.910 -15.918  0.00  0.00    -0.000 C 
ATOM      7  C   UNL     1      28.517 -24.015 -15.140  0.00  0.00    -0.000 C 
ENDBRANCH   1   2
BRANCH   1  10
ATOM      8  O   UNL     1      33.012 -22.846 -14.348  0.00  0.00    -0.274 OA
ATOM      9  N   UNL     1      34.797 -23.246 -15.773  0.00  0.00    -0.296 N 
ATOM     10  C   UNL     1      33.441 -23.186 -15.449  0.00  0.00    +0.237 C 
ATOM     11  H   UNL     1      35.053 -23.529 -16.680  0.00  0.00    +0.150 HD
BRANCH   9  18
ATOM     12  S   UNL     1      35.466 -25.604 -13.923  0.00  0.00    -0.118 S 
ATOM     13  O   UNL     1      37.924 -22.845 -16.325  0.00  0.00    -0.273 OA
ATOM     14  N   UNL     1      37.516 -24.073 -14.351  0.00  0.00    -0.260 N 
ATOM     15  C   UNL     1      36.195 -23.936 -13.731  0.00  0.00    +0.151 C 
ATOM     16  C   UNL     1      37.148 -26.395 -13.803  0.00  0.00    +0.068 C 
ATOM     17  CA  UNL     1      38.074 -25.398 -14.534  0.00  0.00    +0.184 C 
ATOM     18  CA  UNL     1      35.862 -22.907 -14.819  0.00  0.00    +0.178 C 
ATOM     19  C   UNL     1      37.286 -23.171 -15.349  0.00  0.00    +0.247 C 
ATOM     20  C   UNL     1      37.472 -26.591 -12.315  0.00  0.00    +0.013 C 
ATOM     21  C   UNL     1      37.113 -27.748 -14.516  0.00  0.00    +0.013 C 
BRANCH  17  23
ATOM     22  OXT UNL     1      39.868 -24.731 -13.064  0.00  0.00    -0.248 OA
ATOM     23  C   UNL     1      39.485 -25.356 -14.041  0.00  0.00    +0.333 C 
BRANCH  23  24
ATOM     24  O   UNL     1      40.290 -26.108 -14.830  0.00  0.00    -0.479 OA
ATOM     25  H   UNL     1      41.070 -26.488 -14.476  0.00  0.00    +0.295 HD
ENDBRANCH  23  24
ENDBRANCH  17  23
ENDBRANCH   9  18
ENDBRANCH   1  10
BRANCH   1  27
ATOM     26  O   UNL     1      31.970 -21.642 -17.938  0.00  0.00    -0.249 OA
ATOM     27  C   UNL     1      32.605 -22.681 -17.806  0.00  0.00    +0.334 C 
BRANCH  27  28
ATOM     28  O   UNL     1      33.550 -23.185 -18.701  0.00  0.00    -0.424 OA
BRANCH  28  35
ATOM     29  C   UNL     1      35.937 -18.806 -21.958  0.00  0.00    +0.009 C 
ATOM     30  C   UNL     1      34.515 -19.205 -21.537  0.00  0.00    +0.026 C 
ATOM     31  C   UNL     1      36.859 -19.140 -20.776  0.00  0.00    +0.026 C 
ATOM     32  C   UNL     1      34.798 -20.326 -20.587  0.00  0.00    -0.023 C 
ATOM     33  C   UNL     1      36.129 -20.289 -20.156  0.00  0.00    -0.026 C 
ATOM     34  C   UNL     1      33.918 -21.283 -20.109  0.00  0.00    +0.033 C 
ATOM     35  C   UNL     1      34.396 -22.221 -19.191  0.00  0.00    +0.148 C 
ATOM     36  C   UNL     1      36.607 -21.207 -19.236  0.00  0.00    -0.001 C 
ATOM     37  C   UNL     1      35.731 -22.183 -18.757  0.00  0.00    +0.037 C 
ENDBRANCH  28  35
ENDBRANCH  27  28
ENDBRANCH   1  27
TORSDOF 8
ENDMDL
MODEL 2
REMARK VINA RESULT:     -11.0      1.830      2.461
REMARK  Name = 93184
REMARK  8 active torsions:
REMARK  status: ('A' for Active; 'I' for Inactive)
REMARK    1  A    between atoms: C_1  and  C_2
REMARK    2  A    between atoms: C_1  and  C_10
REMARK    3  A    between atoms: C_1  and  C_27
REMARK    4  A    between atoms: N_9  and  CA_18
REMARK    5  A    between atoms: CA_17  and  C_23
REMARK    6  A    between atoms: C_23  and  O_24
REMARK    7  A    between atoms: C_27  and  O_28
REMARK    8  A    between atoms: O_28  and  C_35
REMARK                            x       y       z     vdW  Elec       q    Type
REMARK                         _______ _______ _______ _____ _____    ______ ____
ROOT
ATOM      1  C   UNL     1      31.804 -24.360 -15.696  0.00  0.00    +0.198 C 
ENDROOT
BRANCH   1   2
ATOM      2  C   UNL     1      30.351 -23.931 -15.600  0.00  0.00    -0.003 C 
ATOM      3  C   UNL     1      29.373 -24.757 -16.120  0.00  0.00    -0.003 C 
ATOM      4  C   UNL     1      30.046 -22.727 -14.995  0.00  0.00    -0.003 C 
ATOM      5  C   UNL     1      28.037 -24.362 -16.032  0.00  0.00    -0.000 C 
ATOM      6  C   UNL     1      28.712 -22.332 -14.907  0.00  0.00    -0.000 C 
ATOM      7  C   UNL     1      27.707 -23.150 -15.426  0.00  0.00    -0.000 C 
ENDBRANCH   1   2
BRANCH   1  10
ATOM      8  O   UNL     1      31.521 -25.006 -13.376  0.00  0.00    -0.274 OA
ATOM      9  N   UNL     1      33.658 -25.087 -14.273  0.00  0.00    -0.296 N 
ATOM     10  C   UNL     1      32.285 -24.841 -14.326  0.00  0.00    +0.237 C 
ATOM     11  H   UNL     1      34.196 -24.927 -15.081  0.00  0.00    +0.150 HD
BRANCH   9  18
ATOM     12  S   UNL     1      36.623 -25.691 -14.794  0.00  0.00    -0.118 S 
ATOM     13  O   UNL     1      34.495 -23.449 -11.654  0.00  0.00    -0.273 OA
ATOM     14  N   UNL     1      36.184 -24.944 -12.349  0.00  0.00    -0.260 N 
ATOM     15  C   UNL     1      35.784 -26.061 -13.210  0.00  0.00    +0.151 C 
ATOM     16  C   UNL     1      38.033 -24.865 -13.900  0.00  0.00    +0.068 C 
ATOM     17  CA  UNL     1      37.346 -24.157 -12.711  0.00  0.00    +0.184 C 
ATOM     18  CA  UNL     1      34.337 -25.572 -13.064  0.00  0.00    +0.178 C 
ATOM     19  C   UNL     1      34.922 -24.452 -12.180  0.00  0.00    +0.247 C 
ATOM     20  C   UNL     1      39.039 -25.953 -13.498  0.00  0.00    +0.013 C 
ATOM     21  C   UNL     1      38.696 -23.858 -14.841  0.00  0.00    +0.013 C 
BRANCH  17  23
ATOM     22  OXT UNL     1      39.079 -23.197 -11.333  0.00  0.00    -0.248 OA
ATOM     23  C   UNL     1      38.184 -24.015 -11.481  0.00  0.00    +0.333 C 
BRANCH  23  24
ATOM     24  O   UNL     1      37.818 -24.924 -10.545  0.00  0.00    -0.479 OA
ATOM     25  H   UNL     1      37.356 -24.647  -9.778  0.00  0.00    +0.295 HD
ENDBRANCH  23  24
ENDBRANCH  17  23
ENDBRANCH   9  18
ENDBRANCH   1  10
BRANCH   1  27
ATOM     26  O   UNL     1      33.567 -22.673 -15.697  0.00  0.00    -0.249 OA
ATOM     27  C   UNL     1      32.689 -23.277 -16.300  0.00  0.00    +0.334 C 
BRANCH  27  28
ATOM     28  O   UNL     1      32.367 -23.126 -17.649  0.00  0.00    -0.424 OA
BRANCH  28  35
ATOM     29  C   UNL     1      35.166 -19.728 -21.662  0.00  0.00    +0.009 C 
ATOM     30  C   UNL     1      33.786 -19.713 -20.988  0.00  0.00    +0.026 C 
ATOM     31  C   UNL     1      36.168 -20.226 -20.609  0.00  0.00    +0.026 C 
ATOM     32  C   UNL     1      33.942 -20.812 -19.985  0.00  0.00    -0.023 C 
ATOM     33  C   UNL     1      35.294 -21.103 -19.771  0.00  0.00    -0.026 C 
ATOM     34  C   UNL     1      32.948 -21.473 -19.282  0.00  0.00    +0.033 C 
ATOM     35  C   UNL     1      33.329 -22.450 -18.360  0.00  0.00    +0.148 C 
ATOM     36  C   UNL     1      35.680 -22.061 -18.848  0.00  0.00    -0.001 C 
ATOM     37  C   UNL     1      34.685 -22.741 -18.144  0.00  0.00    +0.037 C 
ENDBRANCH  28  35
ENDBRANCH  27  28
ENDBRANCH   1  27
TORSDOF 8
ENDMDL
MODEL 3
REMARK VINA RESULT:     -10.8      2.032      6.472
REMARK  Name = 93184
REMARK  8 active torsions:
REMARK  status: ('A' for Active; 'I' for Inactive)
REMARK    1  A    between atoms: C_1  and  C_2
REMARK    2  A    between atoms: C_1  and  C_10
REMARK    3  A    between atoms: C_1  and  C_27
REMARK    4  A    between atoms: N_9  and  CA_18
REMARK    5  A    between atoms: CA_17  and  C_23
REMARK    6  A    between atoms: C_23  and  O_24
REMARK    7  A    between atoms: C_27  and  O_28
REMARK    8  A    between atoms: O_28  and  C_35
REMARK                            x       y       z     vdW  Elec       q    Type
REMARK                         _______ _______ _______ _____ _____    ______ ____
ROOT
ATOM      1  C   UNL     1      36.496 -23.031 -15.275  0.00  0.00    +0.198 C 
ENDROOT
BRANCH   1   2
ATOM      2  C   UNL     1      37.608 -23.835 -14.624  0.00  0.00    -0.003 C 
ATOM      3  C   UNL     1      38.709 -24.189 -15.380  0.00  0.00    -0.003 C 
ATOM      4  C   UNL     1      37.489 -24.190 -13.294  0.00  0.00    -0.003 C 
ATOM      5  C   UNL     1      39.730 -24.929 -14.782  0.00  0.00    -0.000 C 
ATOM      6  C   UNL     1      38.510 -24.929 -12.697  0.00  0.00    -0.000 C 
ATOM      7  C   UNL     1      39.631 -25.299 -13.441  0.00  0.00    -0.000 C 
ENDBRANCH   1   2
BRANCH   1  10
ATOM      8  O   UNL     1      35.463 -25.197 -15.617  0.00  0.00    -0.274 OA
ATOM      9  N   UNL     1      34.248 -23.310 -16.201  0.00  0.00    -0.296 N 
ATOM     10  C   UNL     1      35.374 -23.974 -15.710  0.00  0.00    +0.237 C 
ATOM     11  H   UNL     1      34.262 -22.327 -16.241  0.00  0.00    +0.150 HD
BRANCH   9  18
ATOM     12  S   UNL     1      32.596 -24.394 -13.851  0.00  0.00    -0.118 S 
ATOM     13  O   UNL     1      31.575 -22.083 -17.462  0.00  0.00    -0.273 OA
ATOM     14  N   UNL     1      31.122 -23.793 -15.899  0.00  0.00    -0.260 N 
ATOM     15  C   UNL     1      32.200 -24.741 -15.604  0.00  0.00    +0.151 C 
ATOM     16  C   UNL     1      30.828 -23.916 -13.506  0.00  0.00    +0.068 C 
ATOM     17  CA  UNL     1      30.385 -23.201 -14.801  0.00  0.00    +0.184 C 
ATOM     18  CA  UNL     1      33.043 -24.013 -16.660  0.00  0.00    +0.178 C 
ATOM     19  C   UNL     1      31.816 -23.098 -16.846  0.00  0.00    +0.247 C 
ATOM     20  C   UNL     1      30.047 -25.198 -13.187  0.00  0.00    +0.013 C 
ATOM     21  C   UNL     1      30.795 -22.968 -12.306  0.00  0.00    +0.013 C 
BRANCH  17  23
ATOM     22  OXT UNL     1      28.396 -24.313 -15.598  0.00  0.00    -0.248 OA
ATOM     23  C   UNL     1      28.931 -23.319 -15.130  0.00  0.00    +0.333 C 
BRANCH  23  24
ATOM     24  O   UNL     1      28.279 -22.166 -14.841  0.00  0.00    -0.479 OA
ATOM     25  H   UNL     1      28.167 -21.903 -13.949  0.00  0.00    +0.295 HD
ENDBRANCH  23  24
ENDBRANCH  17  23
ENDBRANCH   9  18
ENDBRANCH   1  10
BRANCH   1  27
ATOM     26  O   UNL     1      37.578 -21.069 -16.241  0.00  0.00    -0.249 OA
ATOM     27  C   UNL     1      37.008 -22.141 -16.400  0.00  0.00    +0.334 C 
BRANCH  27  28
ATOM     28  O   UNL     1      36.766 -22.768 -17.623  0.00  0.00    -0.424 OA
BRANCH  28  35
ATOM     29  C   UNL     1      35.950 -18.300 -21.477  0.00  0.00    +0.009 C 
ATOM     30  C   UNL     1      37.156 -19.116 -20.987  0.00  0.00    +0.026 C 
ATOM     31  C   UNL     1      34.757 -19.267 -21.537  0.00  0.00    +0.026 C 
ATOM     32  C   UNL     1      36.481 -20.155 -20.148  0.00  0.00    -0.023 C 
ATOM     33  C   UNL     1      35.119 -20.240 -20.461  0.00  0.00    -0.026 C 
ATOM     34  C   UNL     1      37.053 -20.995 -19.207  0.00  0.00    +0.033 C 
ATOM     35  C   UNL     1      36.231 -21.924 -18.565  0.00  0.00    +0.148 C 
ATOM     36  C   UNL     1      34.301 -21.167 -19.838  0.00  0.00    -0.001 C 
ATOM     37  C   UNL     1      34.866 -22.010 -18.878  0.00  0.00    +0.037 C 
ENDBRANCH  28  35
ENDBRANCH  27  28
ENDBRANCH   1  27
TORSDOF 8
ENDMDL
