MODEL 1
REMARK VINA RESULT:     -12.1      0.000      0.000
REMARK  Name = 66571548
REMARK  8 active torsions:
REMARK  status: ('A' for Active; 'I' for Inactive)
REMARK    1  A    between atoms: C_2  and  C_10
REMARK    2  A    between atoms: C_2  and  C_22
REMARK    3  A    between atoms: N_3  and  C_15
REMARK    4  A    between atoms: C_15  and  C_18
REMARK    5  A    between atoms: C_18  and  O_19
REMARK    6  A    between atoms: C_25  and  N_28
REMARK    7  A    between atoms: C_29  and  C_31
REMARK    8  A    between atoms: C_31  and  C_34
REMARK                            x       y       z     vdW  Elec       q    Type
REMARK                         _______ _______ _______ _____ _____    ______ ____
ROOT
ATOM      1  O   UNL     1      33.813 -24.264 -19.209  0.00  0.00    -0.286 OA
ATOM      2  C   UNL     1      34.138 -23.366 -18.402  0.00  0.00    +0.199 C 
ENDROOT
BRANCH   2  10
ATOM      3  N   UNL     1      32.616 -23.664 -15.144  0.00  0.00    -0.261 N 
ATOM      4  N   UNL     1      34.369 -23.672 -13.489  0.00  0.00    -0.322 NA
ATOM      5  N   UNL     1      36.593 -23.478 -14.461  0.00  0.00    -0.170 NA
ATOM      6  N   UNL     1      36.284 -23.648 -12.147  0.00  0.00    -0.293 N 
ATOM      7  C   UNL     1      33.929 -23.614 -14.757  0.00  0.00    +0.201 C 
ATOM      8  C   UNL     1      32.537 -23.582 -16.510  0.00  0.00    +0.071 C 
ATOM      9  C   UNL     1      34.707 -23.494 -15.902  0.00  0.00    +0.069 C 
ATOM     10  C   UNL     1      33.819 -23.475 -17.007  0.00  0.00    +0.059 C 
ATOM     11  C   UNL     1      36.087 -23.425 -15.715  0.00  0.00    +0.116 C 
ATOM     12  C   UNL     1      35.714 -23.597 -13.440  0.00  0.00    +0.143 C 
ATOM     13  H   UNL     1      35.703 -23.734 -11.357  0.00  0.00    +0.155 HD
ATOM     14  H   UNL     1      37.261 -23.598 -12.037  0.00  0.00    +0.155 HD
BRANCH   3  15
ATOM     15  C   UNL     1      31.405 -23.793 -14.199  0.00  0.00    +0.091 C 
ATOM     16  C   UNL     1      31.531 -22.946 -12.910  0.00  0.00    +0.023 C 
ATOM     17  C   UNL     1      30.137 -23.304 -14.937  0.00  0.00    +0.023 C 
BRANCH  15  18
ATOM     18  C   UNL     1      31.199 -25.273 -13.787  0.00  0.00    +0.155 C 
BRANCH  18  19
ATOM     19  O   UNL     1      32.091 -25.632 -12.737  0.00  0.00    -0.380 OA
ATOM     20  H   UNL     1      32.512 -26.480 -12.946  0.00  0.00    +0.211 HD
ENDBRANCH  18  19
ENDBRANCH  15  18
ENDBRANCH   3  15
ENDBRANCH   2  10
BRANCH   2  22
ATOM     21  N   UNL     1      36.743 -20.663 -18.881  0.00  0.00    -0.241 NA
ATOM     22  C   UNL     1      34.870 -22.189 -18.987  0.00  0.00    +0.059 C 
ATOM     23  C   UNL     1      34.397 -21.542 -20.123  0.00  0.00    +0.021 C 
ATOM     24  C   UNL     1      36.036 -21.715 -18.408  0.00  0.00    +0.102 C 
ATOM     25  C   UNL     1      35.096 -20.455 -20.639  0.00  0.00    +0.070 C 
ATOM     26  C   UNL     1      36.253 -20.059 -19.987  0.00  0.00    +0.113 C 
BRANCH  25  28
ATOM     27  O   UNL     1      36.571 -18.685 -22.564  0.00  0.00    -0.274 OA
ATOM     28  N   UNL     1      34.647 -19.787 -21.775  0.00  0.00    -0.282 N 
ATOM     29  C   UNL     1      35.379 -18.965 -22.650  0.00  0.00    +0.232 C 
ATOM     30  H   UNL     1      33.695 -19.905 -21.993  0.00  0.00    +0.155 HD
BRANCH  29  31
ATOM     31  C   UNL     1      34.498 -18.432 -23.769  0.00  0.00    +0.131 C 
BRANCH  31  34
ATOM     32 CL   UNL     1      33.852 -12.518 -23.822  0.00  0.00    -0.081 Cl
ATOM     33  N   UNL     1      33.808 -16.366 -24.853  0.00  0.00    -0.247 NA
ATOM     34  C   UNL     1      34.348 -16.933 -23.751  0.00  0.00    +0.068 C 
ATOM     35  C   UNL     1      34.760 -16.222 -22.636  0.00  0.00    +0.016 C 
ATOM     36  C   UNL     1      34.608 -14.840 -22.651  0.00  0.00    +0.014 C 
ATOM     37  C   UNL     1      33.675 -15.021 -24.832  0.00  0.00    +0.110 C 
ATOM     38  C   UNL     1      34.056 -14.220 -23.767  0.00  0.00    +0.077 C 
ENDBRANCH  31  34
ENDBRANCH  29  31
ENDBRANCH  25  28
ENDBRANCH   2  22
TORSDOF 8
ENDMDL
MODEL 2
REMARK VINA RESULT:     -11.9      1.462      2.980
REMARK  Name = 66571548
REMARK  8 active torsions:
REMARK  status: ('A' for Active; 'I' for Inactive)
REMARK    1  A    between atoms: C_2  and  C_10
REMARK    2  A    between atoms: C_2  and  C_22
REMARK    3  A    between atoms: N_3  and  C_15
REMARK    4  A    between atoms: C_15  and  C_18
REMARK    5  A    between atoms: C_18  and  O_19
REMARK    6  A    between atoms: C_25  and  N_28
REMARK    7  A    between atoms: C_29  and  C_31
REMARK    8  A    between atoms: C_31  and  C_34
REMARK                            x       y       z     vdW  Elec       q    Type
REMARK                         _______ _______ _______ _____ _____    ______ ____
ROOT
ATOM      1  O   UNL     1      32.294 -22.510 -18.576  0.00  0.00    -0.286 OA
ATOM      2  C   UNL     1      33.398 -22.532 -17.989  0.00  0.00    +0.199 C 
ENDROOT
BRANCH   2  10
ATOM      3  N   UNL     1      34.492 -23.953 -14.858  0.00  0.00    -0.261 N 
ATOM      4  N   UNL     1      32.546 -24.706 -13.648  0.00  0.00    -0.322 NA
ATOM      5  N   UNL     1      30.468 -24.306 -14.852  0.00  0.00    -0.170 NA
ATOM      6  N   UNL     1      30.481 -25.323 -12.744  0.00  0.00    -0.293 N 
ATOM      7  C   UNL     1      33.143 -24.140 -14.712  0.00  0.00    +0.201 C 
ATOM      8  C   UNL     1      34.743 -23.347 -16.061  0.00  0.00    +0.071 C 
ATOM      9  C   UNL     1      32.518 -23.645 -15.849  0.00  0.00    +0.069 C 
ATOM     10  C   UNL     1      33.537 -23.144 -16.699  0.00  0.00    +0.059 C 
ATOM     11  C   UNL     1      31.128 -23.746 -15.892  0.00  0.00    +0.116 C 
ATOM     12  C   UNL     1      31.209 -24.744 -13.809  0.00  0.00    +0.143 C 
ATOM     13  H   UNL     1      30.956 -25.664 -11.952  0.00  0.00    +0.155 HD
ATOM     14  H   UNL     1      29.500 -25.384 -12.793  0.00  0.00    +0.155 HD
BRANCH   3  15
ATOM     15  C   UNL     1      35.572 -24.357 -13.835  0.00  0.00    +0.091 C 
ATOM     16  C   UNL     1      35.987 -25.846 -13.927  0.00  0.00    +0.023 C 
ATOM     17  C   UNL     1      36.846 -23.518 -14.089  0.00  0.00    +0.023 C 
BRANCH  15  18
ATOM     18  C   UNL     1      35.076 -24.082 -12.392  0.00  0.00    +0.155 C 
BRANCH  18  19
ATOM     19  O   UNL     1      34.762 -25.301 -11.727  0.00  0.00    -0.380 OA
ATOM     20  H   UNL     1      33.800 -25.373 -11.623  0.00  0.00    +0.211 HD
ENDBRANCH  18  19
ENDBRANCH  15  18
ENDBRANCH   3  15
ENDBRANCH   2  10
BRANCH   2  22
ATOM     21  N   UNL     1      36.918 -21.459 -18.868  0.00  0.00    -0.241 NA
ATOM     22  C   UNL     1      34.543 -21.883 -18.717  0.00  0.00    +0.059 C 
ATOM     23  C   UNL     1      34.328 -21.129 -19.866  0.00  0.00    +0.021 C 
ATOM     24  C   UNL     1      35.845 -22.016 -18.263  0.00  0.00    +0.102 C 
ATOM     25  C   UNL     1      35.407 -20.540 -20.516  0.00  0.00    +0.070 C 
ATOM     26  C   UNL     1      36.671 -20.734 -19.982  0.00  0.00    +0.113 C 
BRANCH  25  28
ATOM     27  O   UNL     1      35.381 -17.561 -20.894  0.00  0.00    -0.274 OA
ATOM     28  N   UNL     1      35.222 -19.779 -21.668  0.00  0.00    -0.282 N 
ATOM     29  C   UNL     1      35.219 -18.378 -21.796  0.00  0.00    +0.232 C 
ATOM     30  H   UNL     1      35.075 -20.286 -22.498  0.00  0.00    +0.155 HD
BRANCH  29  31
ATOM     31  C   UNL     1      34.981 -17.959 -23.238  0.00  0.00    +0.131 C 
BRANCH  31  34
ATOM     32 CL   UNL     1      33.408 -12.240 -23.694  0.00  0.00    -0.081 Cl
ATOM     33  N   UNL     1      34.942 -15.678 -22.392  0.00  0.00    -0.247 NA
ATOM     34  C   UNL     1      34.568 -16.518 -23.383  0.00  0.00    +0.068 C 
ATOM     35  C   UNL     1      33.841 -16.129 -24.496  0.00  0.00    +0.016 C 
ATOM     36  C   UNL     1      33.475 -14.791 -24.600  0.00  0.00    +0.014 C 
ATOM     37  C   UNL     1      34.569 -14.386 -22.527  0.00  0.00    +0.110 C 
ATOM     38  C   UNL     1      33.841 -13.897 -23.600  0.00  0.00    +0.077 C 
ENDBRANCH  31  34
ENDBRANCH  29  31
ENDBRANCH  25  28
ENDBRANCH   2  22
TORSDOF 8
ENDMDL
MODEL 3
REMARK VINA RESULT:     -11.6      2.300      3.839
REMARK  Name = 66571548
REMARK  8 active torsions:
REMARK  status: ('A' for Active; 'I' for Inactive)
REMARK    1  A    between atoms: C_2  and  C_10
REMARK    2  A    between atoms: C_2  and  C_22
REMARK    3  A    between atoms: N_3  and  C_15
REMARK    4  A    between atoms: C_15  and  C_18
REMARK    5  A    between atoms: C_18  and  O_19
REMARK    6  A    between atoms: C_25  and  N_28
REMARK    7  A    between atoms: C_29  and  C_31
REMARK    8  A    between atoms: C_31  and  C_34
REMARK                            x       y       z     vdW  Elec       q    Type
REMARK                         _______ _______ _______ _____ _____    ______ ____
ROOT
ATOM      1  O   UNL     1      37.561 -21.411 -16.688  0.00  0.00    -0.286 OA
ATOM      2  C   UNL     1      36.588 -22.195 -16.732  0.00  0.00    +0.199 C 
ENDROOT
BRANCH   2  10
ATOM      3  N   UNL     1      36.850 -24.768 -14.217  0.00  0.00    -0.261 N 
ATOM      4  N   UNL     1      34.634 -25.252 -13.397  0.00  0.00    -0.322 NA
ATOM      5  N   UNL     1      32.911 -23.909 -14.472  0.00  0.00    -0.170 NA
ATOM      6  N   UNL     1      32.379 -25.484 -12.824  0.00  0.00    -0.293 N 
ATOM      7  C   UNL     1      35.492 -24.587 -14.190  0.00  0.00    +0.201 C 
ATOM      8  C   UNL     1      37.407 -23.922 -15.140  0.00  0.00    +0.071 C 
ATOM      9  C   UNL     1      35.174 -23.604 -15.119  0.00  0.00    +0.069 C 
ATOM     10  C   UNL     1      36.391 -23.188 -15.716  0.00  0.00    +0.059 C 
ATOM     11  C   UNL     1      33.825 -23.275 -15.242  0.00  0.00    +0.116 C 
ATOM     12  C   UNL     1      33.367 -24.845 -13.609  0.00  0.00    +0.143 C 
ATOM     13  H   UNL     1      32.640 -26.177 -12.174  0.00  0.00    +0.155 HD
ATOM     14  H   UNL     1      31.432 -25.237 -12.926  0.00  0.00    +0.155 HD
BRANCH   3  15
ATOM     15  C   UNL     1      37.641 -25.766 -13.349  0.00  0.00    +0.091 C 
ATOM     16  C   UNL     1      37.233 -27.242 -13.573  0.00  0.00    +0.023 C 
ATOM     17  C   UNL     1      39.144 -25.657 -13.699  0.00  0.00    +0.023 C 
BRANCH  15  18
ATOM     18  C   UNL     1      37.457 -25.436 -11.846  0.00  0.00    +0.155 C 
BRANCH  18  19
ATOM     19  O   UNL     1      36.445 -26.256 -11.271  0.00  0.00    -0.380 OA
ATOM     20  H   UNL     1      35.765 -25.695 -10.866  0.00  0.00    +0.211 HD
ENDBRANCH  18  19
ENDBRANCH  15  18
ENDBRANCH   3  15
ENDBRANCH   2  10
BRANCH   2  22
ATOM     21  N   UNL     1      33.681 -22.745 -19.092  0.00  0.00    -0.241 NA
ATOM     22  C   UNL     1      35.659 -22.024 -17.904  0.00  0.00    +0.059 C 
ATOM     23  C   UNL     1      35.885 -21.041 -18.862  0.00  0.00    +0.021 C 
ATOM     24  C   UNL     1      34.554 -22.844 -18.064  0.00  0.00    +0.102 C 
ATOM     25  C   UNL     1      35.009 -20.909 -19.934  0.00  0.00    +0.070 C 
ATOM     26  C   UNL     1      33.932 -21.778 -20.002  0.00  0.00    +0.113 C 
BRANCH  25  28
ATOM     27  O   UNL     1      37.342 -19.078 -20.401  0.00  0.00    -0.274 OA
ATOM     28  N   UNL     1      35.210 -19.935 -20.909  0.00  0.00    -0.282 N 
ATOM     29  C   UNL     1      36.325 -19.098 -21.088  0.00  0.00    +0.232 C 
ATOM     30  H   UNL     1      34.476 -19.816 -21.554  0.00  0.00    +0.155 HD
BRANCH  29  31
ATOM     31  C   UNL     1      36.133 -18.173 -22.280  0.00  0.00    +0.131 C 
BRANCH  31  34
ATOM     32 CL   UNL     1      33.095 -13.264 -20.844  0.00  0.00    -0.081 Cl
ATOM     33  N   UNL     1      35.064 -16.722 -20.646  0.00  0.00    -0.247 NA
ATOM     34  C   UNL     1      35.363 -16.922 -21.949  0.00  0.00    +0.068 C 
ATOM     35  C   UNL     1      35.006 -16.055 -22.969  0.00  0.00    +0.016 C 
ATOM     36  C   UNL     1      34.296 -14.908 -22.630  0.00  0.00    +0.014 C 
ATOM     37  C   UNL     1      34.374 -15.597 -20.354  0.00  0.00    +0.110 C 
ATOM     38  C   UNL     1      33.969 -14.667 -21.300  0.00  0.00    +0.077 C 
ENDBRANCH  31  34
ENDBRANCH  29  31
ENDBRANCH  25  28
ENDBRANCH   2  22
TORSDOF 8
ENDMDL
MODEL 4
REMARK VINA RESULT:     -11.3      1.608      2.050
REMARK  Name = 66571548
REMARK  8 active torsions:
REMARK  status: ('A' for Active; 'I' for Inactive)
REMARK    1  A    between atoms: C_2  and  C_10
REMARK    2  A    between atoms: C_2  and  C_22
REMARK    3  A    between atoms: N_3  and  C_15
REMARK    4  A    between atoms: C_15  and  C_18
REMARK    5  A    between atoms: C_18  and  O_19
REMARK    6  A    between atoms: C_25  and  N_28
REMARK    7  A    between atoms: C_29  and  C_31
REMARK    8  A    between atoms: C_31  and  C_34
REMARK                            x       y       z     vdW  Elec       q    Type
REMARK                         _______ _______ _______ _____ _____    ______ ____
ROOT
ATOM      1  O   UNL     1      36.715 -22.411 -18.066  0.00  0.00    -0.286 OA
ATOM      2  C   UNL     1      35.504 -22.398 -17.754  0.00  0.00    +0.199 C 
ENDROOT
BRANCH   2  10
ATOM      3  N   UNL     1      33.690 -23.722 -14.930  0.00  0.00    -0.261 N 
ATOM      4  N   UNL     1      35.272 -24.207 -13.176  0.00  0.00    -0.322 NA
ATOM      5  N   UNL     1      37.567 -23.679 -13.795  0.00  0.00    -0.170 NA
ATOM      6  N   UNL     1      37.044 -24.563 -11.692  0.00  0.00    -0.293 N 
ATOM      7  C   UNL     1      34.955 -23.768 -14.406  0.00  0.00    +0.201 C 
ATOM      8  C   UNL     1      33.740 -23.221 -16.205  0.00  0.00    +0.071 C 
ATOM      9  C   UNL     1      35.833 -23.284 -15.368  0.00  0.00    +0.069 C 
ATOM     10  C   UNL     1      35.057 -22.940 -16.503  0.00  0.00    +0.059 C 
ATOM     11  C   UNL     1      37.183 -23.250 -15.020  0.00  0.00    +0.116 C 
ATOM     12  C   UNL     1      36.601 -24.125 -12.961  0.00  0.00    +0.143 C 
ATOM     13  H   UNL     1      36.394 -24.901 -11.034  0.00  0.00    +0.155 HD
ATOM     14  H   UNL     1      38.001 -24.531 -11.467  0.00  0.00    +0.155 HD
BRANCH   3  15
ATOM     15  C   UNL     1      32.401 -24.160 -14.207  0.00  0.00    +0.091 C 
ATOM     16  C   UNL     1      32.557 -25.474 -13.404  0.00  0.00    +0.023 C 
ATOM     17  C   UNL     1      31.990 -23.062 -13.199  0.00  0.00    +0.023 C 
BRANCH  15  18
ATOM     18  C   UNL     1      31.251 -24.351 -15.229  0.00  0.00    +0.155 C 
BRANCH  18  19
ATOM     19  O   UNL     1      30.298 -23.299 -15.117  0.00  0.00    -0.380 OA
ATOM     20  H   UNL     1      30.760 -22.462 -14.952  0.00  0.00    +0.211 HD
ENDBRANCH  18  19
ENDBRANCH  15  18
ENDBRANCH   3  15
ENDBRANCH   2  10
BRANCH   2  22
ATOM     21  N   UNL     1      32.316 -21.520 -19.595  0.00  0.00    -0.241 NA
ATOM     22  C   UNL     1      34.571 -21.788 -18.765  0.00  0.00    +0.059 C 
ATOM     23  C   UNL     1      35.050 -20.960 -19.775  0.00  0.00    +0.021 C 
ATOM     24  C   UNL     1      33.209 -22.035 -18.719  0.00  0.00    +0.102 C 
ATOM     25  C   UNL     1      34.162 -20.412 -20.695  0.00  0.00    +0.070 C 
ATOM     26  C   UNL     1      32.818 -20.720 -20.563  0.00  0.00    +0.113 C 
BRANCH  25  28
ATOM     27  O   UNL     1      35.533 -17.744 -20.570  0.00  0.00    -0.274 OA
ATOM     28  N   UNL     1      34.612 -19.581 -21.718  0.00  0.00    -0.282 N 
ATOM     29  C   UNL     1      35.252 -18.334 -21.610  0.00  0.00    +0.232 C 
ATOM     30  H   UNL     1      34.462 -19.908 -22.634  0.00  0.00    +0.155 HD
BRANCH  29  31
ATOM     31  C   UNL     1      35.576 -17.761 -22.981  0.00  0.00    +0.131 C 
BRANCH  31  34
ATOM     32 CL   UNL     1      33.064 -12.445 -23.887  0.00  0.00    -0.081 Cl
ATOM     33  N   UNL     1      35.040 -15.500 -22.262  0.00  0.00    -0.247 NA
ATOM     34  C   UNL     1      34.929 -16.426 -23.241  0.00  0.00    +0.068 C 
ATOM     35  C   UNL     1      34.268 -16.213 -24.440  0.00  0.00    +0.016 C 
ATOM     36  C   UNL     1      33.682 -14.969 -24.648  0.00  0.00    +0.014 C 
ATOM     37  C   UNL     1      34.458 -14.303 -22.500  0.00  0.00    +0.110 C 
ATOM     38  C   UNL     1      33.774 -13.990 -23.665  0.00  0.00    +0.077 C 
ENDBRANCH  31  34
ENDBRANCH  29  31
ENDBRANCH  25  28
ENDBRANCH   2  22
TORSDOF 8
ENDMDL
MODEL 5
REMARK VINA RESULT:     -10.7      4.058     10.761
REMARK  Name = 66571548
REMARK  8 active torsions:
REMARK  status: ('A' for Active; 'I' for Inactive)
REMARK    1  A    between atoms: C_2  and  C_10
REMARK    2  A    between atoms: C_2  and  C_22
REMARK    3  A    between atoms: N_3  and  C_15
REMARK    4  A    between atoms: C_15  and  C_18
REMARK    5  A    between atoms: C_18  and  O_19
REMARK    6  A    between atoms: C_25  and  N_28
REMARK    7  A    between atoms: C_29  and  C_31
REMARK    8  A    between atoms: C_31  and  C_34
REMARK                            x       y       z     vdW  Elec       q    Type
REMARK                         _______ _______ _______ _____ _____    ______ ____
ROOT
ATOM      1  O   UNL     1      37.036 -18.714 -22.103  0.00  0.00    -0.286 OA
ATOM      2  C   UNL     1      35.892 -18.512 -21.641  0.00  0.00    +0.199 C 
ENDROOT
BRANCH   2  10
ATOM      3  N   UNL     1      34.185 -15.336 -21.506  0.00  0.00    -0.261 N 
ATOM      4  N   UNL     1      33.628 -14.681 -23.759  0.00  0.00    -0.322 NA
ATOM      5  N   UNL     1      34.353 -16.302 -25.425  0.00  0.00    -0.170 NA
ATOM      6  N   UNL     1      33.237 -14.338 -26.038  0.00  0.00    -0.293 N 
ATOM      7  C   UNL     1      34.166 -15.526 -22.862  0.00  0.00    +0.201 C 
ATOM      8  C   UNL     1      34.814 -16.394 -20.904  0.00  0.00    +0.071 C 
ATOM      9  C   UNL     1      34.795 -16.735 -23.133  0.00  0.00    +0.069 C 
ATOM     10  C   UNL     1      35.203 -17.279 -21.889  0.00  0.00    +0.059 C 
ATOM     11  C   UNL     1      34.876 -17.110 -24.473  0.00  0.00    +0.116 C 
ATOM     12  C   UNL     1      33.770 -15.153 -25.013  0.00  0.00    +0.143 C 
ATOM     13  H   UNL     1      32.798 -13.487 -25.811  0.00  0.00    +0.155 HD
ATOM     14  H   UNL     1      33.305 -14.621 -26.978  0.00  0.00    +0.155 HD
BRANCH   3  15
ATOM     15  C   UNL     1      33.594 -14.124 -20.759  0.00  0.00    +0.091 C 
ATOM     16  C   UNL     1      32.472 -14.498 -19.761  0.00  0.00    +0.023 C 
ATOM     17  C   UNL     1      34.715 -13.441 -19.941  0.00  0.00    +0.023 C 
BRANCH  15  18
ATOM     18  C   UNL     1      33.021 -13.097 -21.769  0.00  0.00    +0.155 C 
BRANCH  18  19
ATOM     19  O   UNL     1      31.598 -13.138 -21.774  0.00  0.00    -0.380 OA
ATOM     20  H   UNL     1      31.295 -13.780 -22.436  0.00  0.00    +0.211 HD
ENDBRANCH  18  19
ENDBRANCH  15  18
ENDBRANCH   3  15
ENDBRANCH   2  10
BRANCH   2  22
ATOM     21  N   UNL     1      33.376 -20.963 -20.233  0.00  0.00    -0.241 NA
ATOM     22  C   UNL     1      35.305 -19.631 -20.824  0.00  0.00    +0.059 C 
ATOM     23  C   UNL     1      36.088 -20.354 -19.930  0.00  0.00    +0.021 C 
ATOM     24  C   UNL     1      33.967 -19.971 -20.937  0.00  0.00    +0.102 C 
ATOM     25  C   UNL     1      35.516 -21.382 -19.188  0.00  0.00    +0.070 C 
ATOM     26  C   UNL     1      34.168 -21.645 -19.375  0.00  0.00    +0.113 C 
BRANCH  25  28
ATOM     27  O   UNL     1      37.186 -20.488 -16.858  0.00  0.00    -0.274 OA
ATOM     28  N   UNL     1      36.275 -22.123 -18.285  0.00  0.00    -0.282 N 
ATOM     29  C   UNL     1      37.043 -21.657 -17.204  0.00  0.00    +0.232 C 
ATOM     30  H   UNL     1      36.272 -23.097 -18.422  0.00  0.00    +0.155 HD
BRANCH  29  31
ATOM     31  C   UNL     1      37.715 -22.808 -16.471  0.00  0.00    +0.131 C 
BRANCH  31  34
ATOM     32 CL   UNL     1      35.105 -24.315 -11.343  0.00  0.00    -0.081 Cl
ATOM     33  N   UNL     1      37.819 -23.441 -14.124  0.00  0.00    -0.247 NA
ATOM     34  C   UNL     1      37.024 -23.187 -15.188  0.00  0.00    +0.068 C 
ATOM     35  C   UNL     1      35.640 -23.256 -15.156  0.00  0.00    +0.016 C 
ATOM     36  C   UNL     1      35.034 -23.609 -13.955  0.00  0.00    +0.014 C 
ATOM     37  C   UNL     1      37.194 -23.780 -12.975  0.00  0.00    +0.110 C 
ATOM     38  C   UNL     1      35.818 -23.878 -12.839  0.00  0.00    +0.077 C 
ENDBRANCH  31  34
ENDBRANCH  29  31
ENDBRANCH  25  28
ENDBRANCH   2  22
TORSDOF 8
ENDMDL
MODEL 6
REMARK VINA RESULT:     -10.7      5.472     13.001
REMARK  Name = 66571548
REMARK  8 active torsions:
REMARK  status: ('A' for Active; 'I' for Inactive)
REMARK    1  A    between atoms: C_2  and  C_10
REMARK    2  A    between atoms: C_2  and  C_22
REMARK    3  A    between atoms: N_3  and  C_15
REMARK    4  A    between atoms: C_15  and  C_18
REMARK    5  A    between atoms: C_18  and  O_19
REMARK    6  A    between atoms: C_25  and  N_28
REMARK    7  A    between atoms: C_29  and  C_31
REMARK    8  A    between atoms: C_31  and  C_34
REMARK                            x       y       z     vdW  Elec       q    Type
REMARK                         _______ _______ _______ _____ _____    ______ ____
ROOT
ATOM      1  O   UNL     1      31.905 -13.237 -21.454  0.00  0.00    -0.286 OA
ATOM      2  C   UNL     1      32.684 -12.857 -22.355  0.00  0.00    +0.199 C 
ENDROOT
BRANCH   2  10
ATOM      3  N   UNL     1      33.964  -9.618 -23.299  0.00  0.00    -0.261 N 
ATOM      4  N   UNL     1      32.780  -7.941 -22.034  0.00  0.00    -0.322 NA
ATOM      5  N   UNL     1      31.116  -8.886 -20.529  0.00  0.00    -0.170 NA
ATOM      6  N   UNL     1      31.463  -6.575 -20.667  0.00  0.00    -0.293 N 
ATOM      7  C   UNL     1      33.032  -9.215 -22.379  0.00  0.00    +0.201 C 
ATOM      8  C   UNL     1      33.947 -10.985 -23.400  0.00  0.00    +0.071 C 
ATOM      9  C   UNL     1      32.406 -10.351 -21.879  0.00  0.00    +0.069 C 
ATOM     10  C   UNL     1      32.991 -11.467 -22.530  0.00  0.00    +0.059 C 
ATOM     11  C   UNL     1      31.416 -10.146 -20.919  0.00  0.00    +0.116 C 
ATOM     12  C   UNL     1      31.807  -7.875 -21.103  0.00  0.00    +0.143 C 
ATOM     13  H   UNL     1      31.927  -5.792 -21.043  0.00  0.00    +0.155 HD
ATOM     14  H   UNL     1      30.761  -6.453 -19.989  0.00  0.00    +0.155 HD
BRANCH   3  15
ATOM     15  C   UNL     1      34.895  -8.689 -24.102  0.00  0.00    +0.091 C 
ATOM     16  C   UNL     1      35.623  -7.637 -23.231  0.00  0.00    +0.023 C 
ATOM     17  C   UNL     1      35.988  -9.541 -24.787  0.00  0.00    +0.023 C 
BRANCH  15  18
ATOM     18  C   UNL     1      34.092  -7.939 -25.196  0.00  0.00    +0.155 C 
BRANCH  18  19
ATOM     19  O   UNL     1      33.663  -6.667 -24.722  0.00  0.00    -0.380 OA
ATOM     20  H   UNL     1      34.364  -6.013 -24.871  0.00  0.00    +0.211 HD
ENDBRANCH  18  19
ENDBRANCH  15  18
ENDBRANCH   3  15
ENDBRANCH   2  10
BRANCH   2  22
ATOM     21  N   UNL     1      33.584 -14.861 -25.437  0.00  0.00    -0.241 NA
ATOM     22  C   UNL     1      33.263 -13.941 -23.224  0.00  0.00    +0.059 C 
ATOM     23  C   UNL     1      33.984 -14.995 -22.673  0.00  0.00    +0.021 C 
ATOM     24  C   UNL     1      33.092 -13.921 -24.599  0.00  0.00    +0.102 C 
ATOM     25  C   UNL     1      34.505 -15.982 -23.502  0.00  0.00    +0.070 C 
ATOM     26  C   UNL     1      34.280 -15.870 -24.865  0.00  0.00    +0.113 C 
BRANCH  25  28
ATOM     27  O   UNL     1      35.017 -16.772 -20.651  0.00  0.00    -0.274 OA
ATOM     28  N   UNL     1      35.231 -17.049 -22.979  0.00  0.00    -0.282 N 
ATOM     29  C   UNL     1      35.443 -17.381 -21.629  0.00  0.00    +0.232 C 
ATOM     30  H   UNL     1      35.649 -17.648 -23.638  0.00  0.00    +0.155 HD
BRANCH  29  31
ATOM     31  C   UNL     1      36.298 -18.631 -21.498  0.00  0.00    +0.131 C 
BRANCH  31  34
ATOM     32 CL   UNL     1      33.812 -22.994 -18.307  0.00  0.00    -0.081 Cl
ATOM     33  N   UNL     1      36.440 -20.455 -19.894  0.00  0.00    -0.247 NA
ATOM     34  C   UNL     1      35.638 -19.728 -20.704  0.00  0.00    +0.068 C 
ATOM     35  C   UNL     1      34.275 -19.937 -20.836  0.00  0.00    +0.016 C 
ATOM     36  C   UNL     1      33.697 -20.957 -20.088  0.00  0.00    +0.014 C 
ATOM     37  C   UNL     1      35.844 -21.438 -19.183  0.00  0.00    +0.110 C 
ATOM     38  C   UNL     1      34.490 -21.727 -19.244  0.00  0.00    +0.077 C 
ENDBRANCH  31  34
ENDBRANCH  29  31
ENDBRANCH  25  28
ENDBRANCH   2  22
TORSDOF 8
ENDMDL
MODEL 7
REMARK VINA RESULT:     -10.6      1.576      2.040
REMARK  Name = 66571548
REMARK  8 active torsions:
REMARK  status: ('A' for Active; 'I' for Inactive)
REMARK    1  A    between atoms: C_2  and  C_10
REMARK    2  A    between atoms: C_2  and  C_22
REMARK    3  A    between atoms: N_3  and  C_15
REMARK    4  A    between atoms: C_15  and  C_18
REMARK    5  A    between atoms: C_18  and  O_19
REMARK    6  A    between atoms: C_25  and  N_28
REMARK    7  A    between atoms: C_29  and  C_31
REMARK    8  A    between atoms: C_31  and  C_34
REMARK                            x       y       z     vdW  Elec       q    Type
REMARK                         _______ _______ _______ _____ _____    ______ ____
ROOT
ATOM      1  O   UNL     1      32.614 -22.441 -19.871  0.00  0.00    -0.286 OA
ATOM      2  C   UNL     1      33.502 -22.175 -19.033  0.00  0.00    +0.199 C 
ENDROOT
BRANCH   2  10
ATOM      3  N   UNL     1      32.570 -23.447 -15.787  0.00  0.00    -0.261 N 
ATOM      4  N   UNL     1      34.584 -23.814 -14.513  0.00  0.00    -0.322 NA
ATOM      5  N   UNL     1      36.604 -23.235 -15.743  0.00  0.00    -0.170 NA
ATOM      6  N   UNL     1      36.702 -24.054 -13.552  0.00  0.00    -0.293 N 
ATOM      7  C   UNL     1      33.929 -23.432 -15.623  0.00  0.00    +0.201 C 
ATOM      8  C   UNL     1      32.254 -22.995 -17.042  0.00  0.00    +0.071 C 
ATOM      9  C   UNL     1      34.496 -22.957 -16.800  0.00  0.00    +0.069 C 
ATOM     10  C   UNL     1      33.430 -22.683 -17.693  0.00  0.00    +0.059 C 
ATOM     11  C   UNL     1      35.887 -22.866 -16.830  0.00  0.00    +0.116 C 
ATOM     12  C   UNL     1      35.916 -23.680 -14.667  0.00  0.00    +0.143 C 
ATOM     13  H   UNL     1      36.267 -24.388 -12.734  0.00  0.00    +0.155 HD
ATOM     14  H   UNL     1      37.682 -23.983 -13.594  0.00  0.00    +0.155 HD
BRANCH   3  15
ATOM     15  C   UNL     1      31.541 -23.899 -14.732  0.00  0.00    +0.091 C 
ATOM     16  C   UNL     1      30.128 -24.152 -15.312  0.00  0.00    +0.023 C 
ATOM     17  C   UNL     1      32.015 -25.232 -14.106  0.00  0.00    +0.023 C 
BRANCH  15  18
ATOM     18  C   UNL     1      31.421 -22.838 -13.609  0.00  0.00    +0.155 C 
BRANCH  18  19
ATOM     19  O   UNL     1      32.209 -23.206 -12.482  0.00  0.00    -0.380 OA
ATOM     20  H   UNL     1      32.827 -22.489 -12.272  0.00  0.00    +0.211 HD
ENDBRANCH  18  19
ENDBRANCH  15  18
ENDBRANCH   3  15
ENDBRANCH   2  10
BRANCH   2  22
ATOM     21  N   UNL     1      36.979 -20.746 -19.469  0.00  0.00    -0.241 NA
ATOM     22  C   UNL     1      34.627 -21.302 -19.521  0.00  0.00    +0.059 C 
ATOM     23  C   UNL     1      34.396 -20.278 -20.433  0.00  0.00    +0.021 C 
ATOM     24  C   UNL     1      35.924 -21.493 -19.073  0.00  0.00    +0.102 C 
ATOM     25  C   UNL     1      35.456 -19.487 -20.863  0.00  0.00    +0.070 C 
ATOM     26  C   UNL     1      36.717 -19.760 -20.357  0.00  0.00    +0.113 C 
BRANCH  25  28
ATOM     27  O   UNL     1      35.105 -16.539 -20.414  0.00  0.00    -0.274 OA
ATOM     28  N   UNL     1      35.256 -18.453 -21.775  0.00  0.00    -0.282 N 
ATOM     29  C   UNL     1      35.097 -17.081 -21.516  0.00  0.00    +0.232 C 
ATOM     30  H   UNL     1      35.221 -18.718 -22.722  0.00  0.00    +0.155 HD
BRANCH  29  31
ATOM     31  C   UNL     1      34.902 -16.297 -22.804  0.00  0.00    +0.131 C 
BRANCH  31  34
ATOM     32 CL   UNL     1      31.763 -11.316 -21.948  0.00  0.00    -0.081 Cl
ATOM     33  N   UNL     1      33.587 -14.814 -21.392  0.00  0.00    -0.247 NA
ATOM     34  C   UNL     1      34.113 -15.027 -22.619  0.00  0.00    +0.068 C 
ATOM     35  C   UNL     1      33.965 -14.158 -23.688  0.00  0.00    +0.016 C 
ATOM     36  C   UNL     1      33.231 -12.994 -23.484  0.00  0.00    +0.014 C 
ATOM     37  C   UNL     1      32.880 -13.673 -21.232  0.00  0.00    +0.110 C 
ATOM     38  C   UNL     1      32.674 -12.740 -22.236  0.00  0.00    +0.077 C 
ENDBRANCH  31  34
ENDBRANCH  29  31
ENDBRANCH  25  28
ENDBRANCH   2  22
TORSDOF 8
ENDMDL
MODEL 8
REMARK VINA RESULT:     -10.5      3.590     10.587
REMARK  Name = 66571548
REMARK  8 active torsions:
REMARK  status: ('A' for Active; 'I' for Inactive)
REMARK    1  A    between atoms: C_2  and  C_10
REMARK    2  A    between atoms: C_2  and  C_22
REMARK    3  A    between atoms: N_3  and  C_15
REMARK    4  A    between atoms: C_15  and  C_18
REMARK    5  A    between atoms: C_18  and  O_19
REMARK    6  A    between atoms: C_25  and  N_28
REMARK    7  A    between atoms: C_29  and  C_31
REMARK    8  A    between atoms: C_31  and  C_34
REMARK                            x       y       z     vdW  Elec       q    Type
REMARK                         _______ _______ _______ _____ _____    ______ ____
ROOT
ATOM      1  O   UNL     1      35.053 -19.269 -23.818  0.00  0.00    -0.286 OA
ATOM      2  C   UNL     1      35.101 -18.587 -22.771  0.00  0.00    +0.199 C 
ENDROOT
BRANCH   2  10
ATOM      3  N   UNL     1      33.956 -15.265 -21.948  0.00  0.00    -0.261 N 
ATOM      4  N   UNL     1      33.360 -14.142 -23.997  0.00  0.00    -0.322 NA
ATOM      5  N   UNL     1      33.689 -15.530 -25.970  0.00  0.00    -0.170 NA
ATOM      6  N   UNL     1      32.873 -13.343 -26.140  0.00  0.00    -0.293 N 
ATOM      7  C   UNL     1      33.811 -15.205 -23.309  0.00  0.00    +0.201 C 
ATOM      8  C   UNL     1      34.442 -16.497 -21.593  0.00  0.00    +0.071 C 
ATOM      9  C   UNL     1      34.212 -16.427 -23.835  0.00  0.00    +0.069 C 
ATOM     10  C   UNL     1      34.609 -17.239 -22.743  0.00  0.00    +0.059 C 
ATOM     11  C   UNL     1      34.136 -16.565 -25.221  0.00  0.00    +0.116 C 
ATOM     12  C   UNL     1      33.334 -14.399 -25.320  0.00  0.00    +0.143 C 
ATOM     13  H   UNL     1      32.597 -12.490 -25.733  0.00  0.00    +0.155 HD
ATOM     14  H   UNL     1      32.828 -13.461 -27.116  0.00  0.00    +0.155 HD
BRANCH   3  15
ATOM     15  C   UNL     1      33.627 -14.131 -20.957  0.00  0.00    +0.091 C 
ATOM     16  C   UNL     1      32.607 -14.538 -19.866  0.00  0.00    +0.023 C 
ATOM     17  C   UNL     1      34.923 -13.709 -20.227  0.00  0.00    +0.023 C 
BRANCH  15  18
ATOM     18  C   UNL     1      33.061 -12.903 -21.715  0.00  0.00    +0.155 C 
BRANCH  18  19
ATOM     19  O   UNL     1      31.639 -12.955 -21.766  0.00  0.00    -0.380 OA
ATOM     20  H   UNL     1      31.363 -13.610 -22.426  0.00  0.00    +0.211 HD
ENDBRANCH  18  19
ENDBRANCH  15  18
ENDBRANCH   3  15
ENDBRANCH   2  10
BRANCH   2  22
ATOM     21  N   UNL     1      37.527 -19.443 -19.996  0.00  0.00    -0.241 NA
ATOM     22  C   UNL     1      35.701 -19.267 -21.570  0.00  0.00    +0.059 C 
ATOM     23  C   UNL     1      35.038 -20.309 -20.930  0.00  0.00    +0.021 C 
ATOM     24  C   UNL     1      36.932 -18.875 -21.069  0.00  0.00    +0.102 C 
ATOM     25  C   UNL     1      35.619 -20.919 -19.823  0.00  0.00    +0.070 C 
ATOM     26  C   UNL     1      36.853 -20.453 -19.399  0.00  0.00    +0.113 C 
BRANCH  25  28
ATOM     27  O   UNL     1      32.743 -21.244 -19.025  0.00  0.00    -0.274 OA
ATOM     28  N   UNL     1      34.980 -21.965 -19.163  0.00  0.00    -0.282 N 
ATOM     29  C   UNL     1      33.623 -22.073 -18.809  0.00  0.00    +0.232 C 
ATOM     30  H   UNL     1      35.551 -22.725 -18.911  0.00  0.00    +0.155 HD
BRANCH  29  31
ATOM     31  C   UNL     1      33.344 -23.387 -18.096  0.00  0.00    +0.131 C 
BRANCH  31  34
ATOM     32 CL   UNL     1      35.790 -23.632 -12.678  0.00  0.00    -0.081 Cl
ATOM     33  N   UNL     1      35.274 -23.320 -16.616  0.00  0.00    -0.247 NA
ATOM     34  C   UNL     1      33.932 -23.453 -16.711  0.00  0.00    +0.068 C 
ATOM     35  C   UNL     1      33.093 -23.644 -15.625  0.00  0.00    +0.016 C 
ATOM     36  C   UNL     1      33.669 -23.700 -14.360  0.00  0.00    +0.014 C 
ATOM     37  C   UNL     1      35.798 -23.380 -15.371  0.00  0.00    +0.110 C 
ATOM     38  C   UNL     1      35.046 -23.568 -14.222  0.00  0.00    +0.077 C 
ENDBRANCH  31  34
ENDBRANCH  29  31
ENDBRANCH  25  28
ENDBRANCH   2  22
TORSDOF 8
ENDMDL
MODEL 9
REMARK VINA RESULT:     -10.4      9.079     15.636
REMARK  Name = 66571548
REMARK  8 active torsions:
REMARK  status: ('A' for Active; 'I' for Inactive)
REMARK    1  A    between atoms: C_2  and  C_10
REMARK    2  A    between atoms: C_2  and  C_22
REMARK    3  A    between atoms: N_3  and  C_15
REMARK    4  A    between atoms: C_15  and  C_18
REMARK    5  A    between atoms: C_18  and  O_19
REMARK    6  A    between atoms: C_25  and  N_28
REMARK    7  A    between atoms: C_29  and  C_31
REMARK    8  A    between atoms: C_31  and  C_34
REMARK                            x       y       z     vdW  Elec       q    Type
REMARK                         _______ _______ _______ _____ _____    ______ ____
ROOT
ATOM      1  O   UNL     1      33.058  -7.044 -19.508  0.00  0.00    -0.286 OA
ATOM      2  C   UNL     1      32.800  -7.600 -20.597  0.00  0.00    +0.199 C 
ENDROOT
BRANCH   2  10
ATOM      3  N   UNL     1      33.699  -6.396 -23.879  0.00  0.00    -0.261 N 
ATOM      4  N   UNL     1      32.443  -4.385 -24.315  0.00  0.00    -0.322 NA
ATOM      5  N   UNL     1      30.977  -3.762 -22.473  0.00  0.00    -0.170 NA
ATOM      6  N   UNL     1      31.092  -2.480 -24.428  0.00  0.00    -0.293 N 
ATOM      7  C   UNL     1      32.794  -5.426 -23.540  0.00  0.00    +0.201 C 
ATOM      8  C   UNL     1      33.807  -7.299 -22.853  0.00  0.00    +0.071 C 
ATOM      9  C   UNL     1      32.314  -5.714 -22.268  0.00  0.00    +0.069 C 
ATOM     10  C   UNL     1      32.959  -6.901 -21.840  0.00  0.00    +0.059 C 
ATOM     11  C   UNL     1      31.372  -4.830 -21.742  0.00  0.00    +0.116 C 
ATOM     12  C   UNL     1      31.530  -3.608 -23.698  0.00  0.00    +0.143 C 
ATOM     13  H   UNL     1      31.452  -2.306 -25.328  0.00  0.00    +0.155 HD
ATOM     14  H   UNL     1      30.426  -1.869 -24.038  0.00  0.00    +0.155 HD
BRANCH   3  15
ATOM     15  C   UNL     1      34.482  -6.473 -25.204  0.00  0.00    +0.091 C 
ATOM     16  C   UNL     1      35.426  -5.269 -25.437  0.00  0.00    +0.023 C 
ATOM     17  C   UNL     1      35.366  -7.742 -25.193  0.00  0.00    +0.023 C 
BRANCH  15  18
ATOM     18  C   UNL     1      33.504  -6.560 -26.403  0.00  0.00    +0.155 C 
BRANCH  18  19
ATOM     19  O   UNL     1      34.200  -6.903 -27.597  0.00  0.00    -0.380 OA
ATOM     20  H   UNL     1      34.491  -6.093 -28.044  0.00  0.00    +0.211 HD
ENDBRANCH  18  19
ENDBRANCH  15  18
ENDBRANCH   3  15
ENDBRANCH   2  10
BRANCH   2  22
ATOM     21  N   UNL     1      31.228 -10.761 -19.235  0.00  0.00    -0.241 NA
ATOM     22  C   UNL     1      32.321  -9.024 -20.513  0.00  0.00    +0.059 C 
ATOM     23  C   UNL     1      32.507  -9.908 -21.570  0.00  0.00    +0.021 C 
ATOM     24  C   UNL     1      31.682  -9.495 -19.377  0.00  0.00    +0.102 C 
ATOM     25  C   UNL     1      32.055 -11.219 -21.461  0.00  0.00    +0.070 C 
ATOM     26  C   UNL     1      31.426 -11.592 -20.283  0.00  0.00    +0.113 C 
BRANCH  25  28
ATOM     27  O   UNL     1      34.239 -11.434 -23.509  0.00  0.00    -0.274 OA
ATOM     28  N   UNL     1      32.228 -12.127 -22.502  0.00  0.00    -0.282 N 
ATOM     29  C   UNL     1      33.274 -12.188 -23.440  0.00  0.00    +0.232 C 
ATOM     30  H   UNL     1      31.529 -12.813 -22.593  0.00  0.00    +0.155 HD
BRANCH  29  31
ATOM     31  C   UNL     1      33.074 -13.342 -24.411  0.00  0.00    +0.131 C 
BRANCH  31  34
ATOM     32 CL   UNL     1      35.705 -18.337 -22.535  0.00  0.00    -0.081 Cl
ATOM     33  N   UNL     1      34.214 -14.646 -22.703  0.00  0.00    -0.247 NA
ATOM     34  C   UNL     1      33.734 -14.621 -23.966  0.00  0.00    +0.068 C 
ATOM     35  C   UNL     1      33.819 -15.685 -24.850  0.00  0.00    +0.016 C 
ATOM     36  C   UNL     1      34.434 -16.850 -24.408  0.00  0.00    +0.014 C 
ATOM     37  C   UNL     1      34.806 -15.796 -22.308  0.00  0.00    +0.110 C 
ATOM     38  C   UNL     1      34.940 -16.915 -23.114  0.00  0.00    +0.077 C 
ENDBRANCH  31  34
ENDBRANCH  29  31
ENDBRANCH  25  28
ENDBRANCH   2  22
TORSDOF 8
ENDMDL
