MODEL 1
REMARK VINA RESULT:     -11.5      0.000      0.000
REMARK  Name = 9823820
REMARK  6 active torsions:
REMARK  status: ('A' for Active; 'I' for Inactive)
REMARK    1  A    between atoms: O_1  and  C_4
REMARK    2  A    between atoms: O_1  and  C_23
REMARK    3  A    between atoms: C_7  and  C_14
REMARK    4  A    between atoms: C_8  and  O_17
REMARK    5  A    between atoms: C_20  and  N_28
REMARK    6  A    between atoms: N_27  and  C_32
REMARK                            x       y       z     vdW  Elec       q    Type
REMARK                         _______ _______ _______ _____ _____    ______ ____
ROOT
ATOM      1  O   UNL     1      33.856 -23.825 -17.942  0.00  0.00    -0.454 OA
ENDROOT
BRANCH   1   4
ATOM      2  N   UNL     1      32.326 -23.403 -14.111  0.00  0.00    -0.248 NA
ATOM      3  C   UNL     1      34.196 -23.884 -15.552  0.00  0.00    +0.031 C 
ATOM      4  C   UNL     1      33.375 -23.692 -16.671  0.00  0.00    +0.144 C 
ATOM      5  C   UNL     1      33.622 -23.727 -14.274  0.00  0.00    +0.066 C 
ATOM      6  C   UNL     1      35.553 -24.223 -15.684  0.00  0.00    +0.064 C 
ATOM      7  C   UNL     1      36.347 -24.407 -14.556  0.00  0.00    +0.065 C 
ATOM      8  C   UNL     1      35.788 -24.255 -13.293  0.00  0.00    +0.123 C 
ATOM      9  C   UNL     1      34.439 -23.918 -13.162  0.00  0.00    +0.109 C 
ATOM     10  C   UNL     1      32.039 -23.358 -16.508  0.00  0.00    +0.058 C 
ATOM     11  C   UNL     1      31.567 -23.227 -15.218  0.00  0.00    +0.102 C 
BRANCH   7  14
ATOM     12  O   UNL     1      38.613 -23.887 -14.930  0.00  0.00    -0.271 OA
ATOM     13  N   UNL     1      38.099 -26.099 -14.610  0.00  0.00    -0.325 N 
ATOM     14  C   UNL     1      37.750 -24.757 -14.718  0.00  0.00    +0.242 C 
ATOM     15  H   UNL     1      39.039 -26.374 -14.713  0.00  0.00    +0.145 HD
ATOM     16  H   UNL     1      37.406 -26.775 -14.429  0.00  0.00    +0.145 HD
ENDBRANCH   7  14
BRANCH   8  17
ATOM     17  O   UNL     1      36.539 -24.428 -12.169  0.00  0.00    -0.475 OA
ATOM     18  C   UNL     1      36.889 -23.254 -11.436  0.00  0.00    +0.252 C 
ENDBRANCH   8  17
ENDBRANCH   1   4
BRANCH   1  23
ATOM     19 CL   UNL     1      37.150 -20.487 -19.877  0.00  0.00    -0.081 Cl
ATOM     20  C   UNL     1      34.437 -20.357 -20.147  0.00  0.00    +0.062 C 
ATOM     21  C   UNL     1      35.534 -21.044 -19.626  0.00  0.00    +0.074 C 
ATOM     22  C   UNL     1      33.146 -20.836 -19.927  0.00  0.00    +0.019 C 
ATOM     23  C   UNL     1      34.050 -22.670 -18.678  0.00  0.00    +0.146 C 
ATOM     24  C   UNL     1      35.338 -22.210 -18.886  0.00  0.00    +0.050 C 
ATOM     25  C   UNL     1      32.950 -22.002 -19.187  0.00  0.00    +0.039 C 
BRANCH  20  28
ATOM     26  O   UNL     1      34.656 -19.956 -23.116  0.00  0.00    -0.252 OA
ATOM     27  N   UNL     1      34.850 -17.703 -22.648  0.00  0.00    -0.290 N 
ATOM     28  N   UNL     1      34.597 -19.186 -20.894  0.00  0.00    -0.268 N 
ATOM     29  C   UNL     1      34.696 -19.046 -22.290  0.00  0.00    +0.304 C 
ATOM     30  H   UNL     1      34.873 -17.024 -21.935  0.00  0.00    +0.151 HD
ATOM     31  H   UNL     1      34.648 -18.350 -20.375  0.00  0.00    +0.156 HD
BRANCH  27  32
ATOM     32  C   UNL     1      34.975 -17.272 -24.010  0.00  0.00    +0.073 C 
ATOM     33  C   UNL     1      34.728 -15.847 -24.389  0.00  0.00    +0.021 C 
ATOM     34  C   UNL     1      33.767 -16.917 -24.814  0.00  0.00    +0.021 C 
ENDBRANCH  27  32
ENDBRANCH  20  28
ENDBRANCH   1  23
TORSDOF 6
ENDMDL
MODEL 2
REMARK VINA RESULT:     -11.0      2.204      3.851
REMARK  Name = 9823820
REMARK  6 active torsions:
REMARK  status: ('A' for Active; 'I' for Inactive)
REMARK    1  A    between atoms: O_1  and  C_4
REMARK    2  A    between atoms: O_1  and  C_23
REMARK    3  A    between atoms: C_7  and  C_14
REMARK    4  A    between atoms: C_8  and  O_17
REMARK    5  A    between atoms: C_20  and  N_28
REMARK    6  A    between atoms: N_27  and  C_32
REMARK                            x       y       z     vdW  Elec       q    Type
REMARK                         _______ _______ _______ _____ _____    ______ ____
ROOT
ATOM      1  O   UNL     1      34.390 -23.198 -18.521  0.00  0.00    -0.454 OA
ENDROOT
BRANCH   1   4
ATOM      2  N   UNL     1      35.203 -23.062 -14.457  0.00  0.00    -0.248 NA
ATOM      3  C   UNL     1      33.597 -23.266 -16.241  0.00  0.00    +0.031 C 
ATOM      4  C   UNL     1      34.633 -23.156 -17.178  0.00  0.00    +0.144 C 
ATOM      5  C   UNL     1      33.932 -23.213 -14.873  0.00  0.00    +0.066 C 
ATOM      6  C   UNL     1      32.259 -23.425 -16.639  0.00  0.00    +0.064 C 
ATOM      7  C   UNL     1      31.249 -23.531 -15.688  0.00  0.00    +0.065 C 
ATOM      8  C   UNL     1      31.571 -23.481 -14.337  0.00  0.00    +0.123 C 
ATOM      9  C   UNL     1      32.902 -23.323 -13.942  0.00  0.00    +0.109 C 
ATOM     10  C   UNL     1      35.944 -23.000 -16.754  0.00  0.00    +0.058 C 
ATOM     11  C   UNL     1      36.174 -22.960 -15.394  0.00  0.00    +0.102 C 
BRANCH   7  14
ATOM     12  O   UNL     1      29.296 -22.822 -16.797  0.00  0.00    -0.271 OA
ATOM     13  N   UNL     1      29.219 -24.875 -15.780  0.00  0.00    -0.325 N 
ATOM     14  C   UNL     1      29.870 -23.696 -16.125  0.00  0.00    +0.242 C 
ATOM     15  H   UNL     1      28.286 -25.023 -16.058  0.00  0.00    +0.145 HD
ATOM     16  H   UNL     1      29.691 -25.564 -15.258  0.00  0.00    +0.145 HD
ENDBRANCH   7  14
BRANCH   8  17
ATOM     17  O   UNL     1      30.605 -23.584 -13.382  0.00  0.00    -0.475 OA
ATOM     18  C   UNL     1      30.594 -24.775 -12.597  0.00  0.00    +0.252 C 
ENDBRANCH   8  17
ENDBRANCH   1   4
BRANCH   1  23
ATOM     19 CL   UNL     1      37.462 -19.645 -20.437  0.00  0.00    -0.081 Cl
ATOM     20  C   UNL     1      34.742 -19.651 -20.648  0.00  0.00    +0.062 C 
ATOM     21  C   UNL     1      35.884 -20.292 -20.168  0.00  0.00    +0.074 C 
ATOM     22  C   UNL     1      33.482 -20.203 -20.414  0.00  0.00    +0.019 C 
ATOM     23  C   UNL     1      34.508 -22.017 -19.231  0.00  0.00    +0.146 C 
ATOM     24  C   UNL     1      35.765 -21.484 -19.453  0.00  0.00    +0.050 C 
ATOM     25  C   UNL     1      33.364 -21.395 -19.700  0.00  0.00    +0.039 C 
BRANCH  20  28
ATOM     26  O   UNL     1      34.483 -19.132 -23.595  0.00  0.00    -0.252 OA
ATOM     27  N   UNL     1      34.844 -16.908 -23.084  0.00  0.00    -0.290 N 
ATOM     28  N   UNL     1      34.824 -18.456 -21.368  0.00  0.00    -0.268 N 
ATOM     29  C   UNL     1      34.697 -18.260 -22.755  0.00  0.00    +0.304 C 
ATOM     30  H   UNL     1      35.013 -16.262 -22.361  0.00  0.00    +0.151 HD
ATOM     31  H   UNL     1      34.994 -17.645 -20.835  0.00  0.00    +0.156 HD
BRANCH  27  32
ATOM     32  C   UNL     1      34.761 -16.424 -24.432  0.00  0.00    +0.073 C 
ATOM     33  C   UNL     1      34.124 -15.106 -24.734  0.00  0.00    +0.021 C 
ATOM     34  C   UNL     1      33.450 -16.380 -25.149  0.00  0.00    +0.021 C 
ENDBRANCH  27  32
ENDBRANCH  20  28
ENDBRANCH   1  23
TORSDOF 6
ENDMDL
MODEL 3
REMARK VINA RESULT:     -10.9      1.085      1.398
REMARK  Name = 9823820
REMARK  6 active torsions:
REMARK  status: ('A' for Active; 'I' for Inactive)
REMARK    1  A    between atoms: O_1  and  C_4
REMARK    2  A    between atoms: O_1  and  C_23
REMARK    3  A    between atoms: C_7  and  C_14
REMARK    4  A    between atoms: C_8  and  O_17
REMARK    5  A    between atoms: C_20  and  N_28
REMARK    6  A    between atoms: N_27  and  C_32
REMARK                            x       y       z     vdW  Elec       q    Type
REMARK                         _______ _______ _______ _____ _____    ______ ____
ROOT
ATOM      1  O   UNL     1      34.410 -23.854 -17.722  0.00  0.00    -0.454 OA
ENDROOT
BRANCH   1   4
ATOM      2  N   UNL     1      32.305 -23.534 -14.163  0.00  0.00    -0.248 NA
ATOM      3  C   UNL     1      34.344 -24.092 -15.319  0.00  0.00    +0.031 C 
ATOM      4  C   UNL     1      33.737 -23.757 -16.538  0.00  0.00    +0.144 C 
ATOM      5  C   UNL     1      33.581 -23.964 -14.141  0.00  0.00    +0.066 C 
ATOM      6  C   UNL     1      35.673 -24.544 -15.259  0.00  0.00    +0.064 C 
ATOM      7  C   UNL     1      36.251 -24.870 -14.036  0.00  0.00    +0.065 C 
ATOM      8  C   UNL     1      35.506 -24.746 -12.870  0.00  0.00    +0.123 C 
ATOM      9  C   UNL     1      34.184 -24.297 -12.931  0.00  0.00    +0.109 C 
ATOM     10  C   UNL     1      32.424 -23.314 -16.564  0.00  0.00    +0.058 C 
ATOM     11  C   UNL     1      31.757 -23.221 -15.360  0.00  0.00    +0.102 C 
BRANCH   7  14
ATOM     12  O   UNL     1      38.571 -24.598 -14.341  0.00  0.00    -0.271 OA
ATOM     13  N   UNL     1      37.864 -26.630 -13.549  0.00  0.00    -0.325 N 
ATOM     14  C   UNL     1      37.630 -25.336 -13.999  0.00  0.00    +0.242 C 
ATOM     15  H   UNL     1      38.783 -26.980 -13.509  0.00  0.00    +0.145 HD
ATOM     16  H   UNL     1      37.109 -27.198 -13.269  0.00  0.00    +0.145 HD
ENDBRANCH   7  14
BRANCH   8  17
ATOM     17  O   UNL     1      36.044 -25.057 -11.657  0.00  0.00    -0.475 OA
ATOM     18  C   UNL     1      36.447 -23.967 -10.829  0.00  0.00    +0.252 C 
ENDBRANCH   8  17
ENDBRANCH   1   4
BRANCH   1  23
ATOM     19 CL   UNL     1      32.098 -20.261 -20.457  0.00  0.00    -0.081 Cl
ATOM     20  C   UNL     1      34.786 -20.411 -20.009  0.00  0.00    +0.062 C 
ATOM     21  C   UNL     1      33.526 -20.970 -19.793  0.00  0.00    +0.074 C 
ATOM     22  C   UNL     1      35.918 -21.008 -19.456  0.00  0.00    +0.019 C 
ATOM     23  C   UNL     1      34.535 -22.706 -18.483  0.00  0.00    +0.146 C 
ATOM     24  C   UNL     1      33.400 -22.127 -19.024  0.00  0.00    +0.050 C 
ATOM     25  C   UNL     1      35.792 -22.165 -18.687  0.00  0.00    +0.039 C 
BRANCH  20  28
ATOM     26  O   UNL     1      34.665 -20.009 -22.983  0.00  0.00    -0.252 OA
ATOM     27  N   UNL     1      35.102 -17.782 -22.551  0.00  0.00    -0.290 N 
ATOM     28  N   UNL     1      34.948 -19.252 -20.774  0.00  0.00    -0.268 N 
ATOM     29  C   UNL     1      34.884 -19.111 -22.172  0.00  0.00    +0.304 C 
ATOM     30  H   UNL     1      35.271 -17.113 -21.848  0.00  0.00    +0.151 HD
ATOM     31  H   UNL     1      35.132 -18.427 -20.268  0.00  0.00    +0.156 HD
BRANCH  27  32
ATOM     32  C   UNL     1      35.093 -17.354 -23.920  0.00  0.00    +0.073 C 
ATOM     33  C   UNL     1      34.585 -15.999 -24.294  0.00  0.00    +0.021 C 
ATOM     34  C   UNL     1      33.808 -17.226 -24.671  0.00  0.00    +0.021 C 
ENDBRANCH  27  32
ENDBRANCH  20  28
ENDBRANCH   1  23
TORSDOF 6
ENDMDL
MODEL 4
REMARK VINA RESULT:     -10.8      1.965      3.158
REMARK  Name = 9823820
REMARK  6 active torsions:
REMARK  status: ('A' for Active; 'I' for Inactive)
REMARK    1  A    between atoms: O_1  and  C_4
REMARK    2  A    between atoms: O_1  and  C_23
REMARK    3  A    between atoms: C_7  and  C_14
REMARK    4  A    between atoms: C_8  and  O_17
REMARK    5  A    between atoms: C_20  and  N_28
REMARK    6  A    between atoms: N_27  and  C_32
REMARK                            x       y       z     vdW  Elec       q    Type
REMARK                         _______ _______ _______ _____ _____    ______ ____
ROOT
ATOM      1  O   UNL     1      34.564 -22.864 -17.961  0.00  0.00    -0.454 OA
ENDROOT
BRANCH   1   4
ATOM      2  N   UNL     1      37.449 -22.711 -14.986  0.00  0.00    -0.248 NA
ATOM      3  C   UNL     1      35.189 -23.213 -15.655  0.00  0.00    +0.031 C 
ATOM      4  C   UNL     1      35.497 -22.822 -16.965  0.00  0.00    +0.144 C 
ATOM      5  C   UNL     1      36.210 -23.140 -14.684  0.00  0.00    +0.066 C 
ATOM      6  C   UNL     1      33.907 -23.666 -15.304  0.00  0.00    +0.064 C 
ATOM      7  C   UNL     1      33.628 -24.049 -13.995  0.00  0.00    +0.065 C 
ATOM      8  C   UNL     1      34.628 -23.980 -13.033  0.00  0.00    +0.123 C 
ATOM      9  C   UNL     1      35.903 -23.529 -13.382  0.00  0.00    +0.109 C 
ATOM     10  C   UNL     1      36.773 -22.379 -17.280  0.00  0.00    +0.058 C 
ATOM     11  C   UNL     1      37.705 -22.343 -16.263  0.00  0.00    +0.102 C 
BRANCH   7  14
ATOM     12  O   UNL     1      31.289 -23.807 -13.856  0.00  0.00    -0.271 OA
ATOM     13  N   UNL     1      32.169 -25.791 -13.117  0.00  0.00    -0.325 N 
ATOM     14  C   UNL     1      32.291 -24.515 -13.656  0.00  0.00    +0.242 C 
ATOM     15  H   UNL     1      31.281 -26.142 -12.876  0.00  0.00    +0.145 HD
ATOM     16  H   UNL     1      32.971 -26.345 -12.978  0.00  0.00    +0.145 HD
ENDBRANCH   7  14
BRANCH   8  17
ATOM     17  O   UNL     1      34.386 -24.349 -11.743  0.00  0.00    -0.475 OA
ATOM     18  C   UNL     1      35.522 -24.619 -10.924  0.00  0.00    +0.252 C 
ENDBRANCH   8  17
ENDBRANCH   1   4
BRANCH   1  23
ATOM     19 CL   UNL     1      37.400 -19.650 -20.675  0.00  0.00    -0.081 Cl
ATOM     20  C   UNL     1      34.684 -19.868 -20.832  0.00  0.00    +0.062 C 
ATOM     21  C   UNL     1      35.866 -20.315 -20.241  0.00  0.00    +0.074 C 
ATOM     22  C   UNL     1      33.463 -20.429 -20.459  0.00  0.00    +0.019 C 
ATOM     23  C   UNL     1      34.605 -21.866 -18.918  0.00  0.00    +0.146 C 
ATOM     24  C   UNL     1      35.826 -21.322 -19.276  0.00  0.00    +0.050 C 
ATOM     25  C   UNL     1      33.422 -21.436 -19.494  0.00  0.00    +0.039 C 
BRANCH  20  28
ATOM     26  O   UNL     1      35.102 -16.906 -20.561  0.00  0.00    -0.252 OA
ATOM     27  N   UNL     1      34.817 -16.807 -22.851  0.00  0.00    -0.290 N 
ATOM     28  N   UNL     1      34.689 -18.862 -21.802  0.00  0.00    -0.268 N 
ATOM     29  C   UNL     1      34.889 -17.480 -21.627  0.00  0.00    +0.304 C 
ATOM     30  H   UNL     1      34.644 -17.329 -23.667  0.00  0.00    +0.151 HD
ATOM     31  H   UNL     1      34.530 -19.158 -22.727  0.00  0.00    +0.156 HD
BRANCH  27  32
ATOM     32  C   UNL     1      34.984 -15.386 -22.966  0.00  0.00    +0.073 C 
ATOM     33  C   UNL     1      34.086 -14.447 -22.229  0.00  0.00    +0.021 C 
ATOM     34  C   UNL     1      33.996 -14.560 -23.722  0.00  0.00    +0.021 C 
ENDBRANCH  27  32
ENDBRANCH  20  28
ENDBRANCH   1  23
TORSDOF 6
ENDMDL
MODEL 5
REMARK VINA RESULT:      -9.6      7.647     13.824
REMARK  Name = 9823820
REMARK  6 active torsions:
REMARK  status: ('A' for Active; 'I' for Inactive)
REMARK    1  A    between atoms: O_1  and  C_4
REMARK    2  A    between atoms: O_1  and  C_23
REMARK    3  A    between atoms: C_7  and  C_14
REMARK    4  A    between atoms: C_8  and  O_17
REMARK    5  A    between atoms: C_20  and  N_28
REMARK    6  A    between atoms: N_27  and  C_32
REMARK                            x       y       z     vdW  Elec       q    Type
REMARK                         _______ _______ _______ _____ _____    ______ ____
ROOT
ATOM      1  O   UNL     1      31.052 -11.723 -21.301  0.00  0.00    -0.454 OA
ENDROOT
BRANCH   1   4
ATOM      2  N   UNL     1      32.322  -8.687 -18.779  0.00  0.00    -0.248 NA
ATOM      3  C   UNL     1      31.815  -9.451 -21.007  0.00  0.00    +0.031 C 
ATOM      4  C   UNL     1      31.473 -10.708 -20.491  0.00  0.00    +0.144 C 
ATOM      5  C   UNL     1      32.241  -8.456 -20.102  0.00  0.00    +0.066 C 
ATOM      6  C   UNL     1      31.743  -9.175 -22.382  0.00  0.00    +0.064 C 
ATOM      7  C   UNL     1      32.089  -7.918 -22.869  0.00  0.00    +0.065 C 
ATOM      8  C   UNL     1      32.508  -6.933 -21.984  0.00  0.00    +0.123 C 
ATOM      9  C   UNL     1      32.581  -7.207 -20.616  0.00  0.00    +0.109 C 
ATOM     10  C   UNL     1      31.555 -10.949 -19.128  0.00  0.00    +0.058 C 
ATOM     11  C   UNL     1      31.982  -9.914 -18.321  0.00  0.00    +0.102 C 
BRANCH   7  14
ATOM     12  O   UNL     1      30.923  -7.733 -24.907  0.00  0.00    -0.271 OA
ATOM     13  N   UNL     1      33.173  -7.297 -24.960  0.00  0.00    -0.325 N 
ATOM     14  C   UNL     1      32.004  -7.656 -24.298  0.00  0.00    +0.242 C 
ATOM     15  H   UNL     1      33.155  -7.111 -25.927  0.00  0.00    +0.145 HD
ATOM     16  H   UNL     1      34.020  -7.227 -24.461  0.00  0.00    +0.145 HD
ENDBRANCH   7  14
BRANCH   8  17
ATOM     17  O   UNL     1      32.853  -5.691 -22.428  0.00  0.00    -0.475 OA
ATOM     18  C   UNL     1      31.966  -4.620 -22.111  0.00  0.00    +0.252 C 
ENDBRANCH   8  17
ENDBRANCH   1   4
BRANCH   1  23
ATOM     19 CL   UNL     1      33.411 -14.268 -25.002  0.00  0.00    -0.081 Cl
ATOM     20  C   UNL     1      33.822 -14.638 -22.330  0.00  0.00    +0.062 C 
ATOM     21  C   UNL     1      33.136 -13.945 -23.327  0.00  0.00    +0.074 C 
ATOM     22  C   UNL     1      33.577 -14.351 -20.987  0.00  0.00    +0.019 C 
ATOM     23  C   UNL     1      31.975 -12.694 -21.644  0.00  0.00    +0.146 C 
ATOM     24  C   UNL     1      32.206 -12.965 -22.982  0.00  0.00    +0.050 C 
ATOM     25  C   UNL     1      32.646 -13.371 -20.641  0.00  0.00    +0.039 C 
BRANCH  20  28
ATOM     26  O   UNL     1      34.465 -17.221 -20.937  0.00  0.00    -0.252 OA
ATOM     27  N   UNL     1      36.048 -17.545 -22.588  0.00  0.00    -0.290 N 
ATOM     28  N   UNL     1      34.761 -15.626 -22.641  0.00  0.00    -0.268 N 
ATOM     29  C   UNL     1      35.029 -16.824 -21.955  0.00  0.00    +0.304 C 
ATOM     30  H   UNL     1      36.456 -17.169 -23.402  0.00  0.00    +0.151 HD
ATOM     31  H   UNL     1      35.307 -15.460 -23.444  0.00  0.00    +0.156 HD
BRANCH  27  32
ATOM     32  C   UNL     1      36.524 -18.807 -22.101  0.00  0.00    +0.073 C 
ATOM     33  C   UNL     1      36.709 -19.043 -20.637  0.00  0.00    +0.021 C 
ATOM     34  C   UNL     1      37.902 -18.940 -21.541  0.00  0.00    +0.021 C 
ENDBRANCH  27  32
ENDBRANCH  20  28
ENDBRANCH   1  23
TORSDOF 6
ENDMDL
MODEL 6
REMARK VINA RESULT:      -9.5      6.456     13.034
REMARK  Name = 9823820
REMARK  6 active torsions:
REMARK  status: ('A' for Active; 'I' for Inactive)
REMARK    1  A    between atoms: O_1  and  C_4
REMARK    2  A    between atoms: O_1  and  C_23
REMARK    3  A    between atoms: C_7  and  C_14
REMARK    4  A    between atoms: C_8  and  O_17
REMARK    5  A    between atoms: C_20  and  N_28
REMARK    6  A    between atoms: N_27  and  C_32
REMARK                            x       y       z     vdW  Elec       q    Type
REMARK                         _______ _______ _______ _____ _____    ______ ____
ROOT
ATOM      1  O   UNL     1      33.005 -12.884 -23.082  0.00  0.00    -0.454 OA
ENDROOT
BRANCH   1   4
ATOM      2  N   UNL     1      31.123 -10.422 -20.326  0.00  0.00    -0.248 NA
ATOM      3  C   UNL     1      32.618 -10.669 -22.200  0.00  0.00    +0.031 C 
ATOM      4  C   UNL     1      32.397 -12.054 -22.185  0.00  0.00    +0.144 C 
ATOM      5  C   UNL     1      31.951  -9.881 -21.239  0.00  0.00    +0.066 C 
ATOM      6  C   UNL     1      33.475 -10.071 -23.138  0.00  0.00    +0.064 C 
ATOM      7  C   UNL     1      33.677  -8.694 -23.130  0.00  0.00    +0.065 C 
ATOM      8  C   UNL     1      33.024  -7.911 -22.187  0.00  0.00    +0.123 C 
ATOM      9  C   UNL     1      32.171  -8.506 -21.254  0.00  0.00    +0.109 C 
ATOM     10  C   UNL     1      31.544 -12.614 -21.246  0.00  0.00    +0.058 C 
ATOM     11  C   UNL     1      30.937 -11.762 -20.346  0.00  0.00    +0.102 C 
BRANCH   7  14
ATOM     12  O   UNL     1      35.716  -8.540 -24.299  0.00  0.00    -0.271 OA
ATOM     13  N   UNL     1      34.089  -7.023 -24.854  0.00  0.00    -0.325 N 
ATOM     14  C   UNL     1      34.570  -8.097 -24.113  0.00  0.00    +0.242 C 
ATOM     15  H   UNL     1      34.664  -6.593 -25.529  0.00  0.00    +0.145 HD
ATOM     16  H   UNL     1      33.174  -6.692 -24.705  0.00  0.00    +0.145 HD
ENDBRANCH   7  14
BRANCH   8  17
ATOM     17  O   UNL     1      33.199  -6.559 -22.155  0.00  0.00    -0.475 OA
ATOM     18  C   UNL     1      32.328  -5.813 -21.307  0.00  0.00    +0.252 C 
ENDBRANCH   8  17
ENDBRANCH   1   4
BRANCH   1  23
ATOM     19 CL   UNL     1      35.043 -17.425 -24.058  0.00  0.00    -0.081 Cl
ATOM     20  C   UNL     1      34.901 -16.262 -21.593  0.00  0.00    +0.062 C 
ATOM     21  C   UNL     1      34.619 -16.165 -22.956  0.00  0.00    +0.074 C 
ATOM     22  C   UNL     1      34.546 -15.224 -20.732  0.00  0.00    +0.019 C 
ATOM     23  C   UNL     1      33.637 -14.009 -22.587  0.00  0.00    +0.146 C 
ATOM     24  C   UNL     1      33.983 -15.029 -23.456  0.00  0.00    +0.050 C 
ATOM     25  C   UNL     1      33.909 -14.089 -21.232  0.00  0.00    +0.039 C 
BRANCH  20  28
ATOM     26  O   UNL     1      34.048 -19.142 -21.535  0.00  0.00    -0.252 OA
ATOM     27  N   UNL     1      36.027 -19.551 -20.417  0.00  0.00    -0.290 N 
ATOM     28  N   UNL     1      35.539 -17.385 -21.058  0.00  0.00    -0.268 N 
ATOM     29  C   UNL     1      35.098 -18.721 -21.054  0.00  0.00    +0.304 C 
ATOM     30  H   UNL     1      36.849 -19.148 -20.055  0.00  0.00    +0.151 HD
ATOM     31  H   UNL     1      36.409 -17.220 -20.628  0.00  0.00    +0.156 HD
BRANCH  27  32
ATOM     32  C   UNL     1      35.832 -20.965 -20.270  0.00  0.00    +0.073 C 
ATOM     33  C   UNL     1      34.726 -21.501 -19.419  0.00  0.00    +0.021 C 
ATOM     34  C   UNL     1      36.153 -21.650 -18.982  0.00  0.00    +0.021 C 
ENDBRANCH  27  32
ENDBRANCH  20  28
ENDBRANCH   1  23
TORSDOF 6
ENDMDL
MODEL 7
REMARK VINA RESULT:      -9.4      7.781     12.605
REMARK  Name = 9823820
REMARK  6 active torsions:
REMARK  status: ('A' for Active; 'I' for Inactive)
REMARK    1  A    between atoms: O_1  and  C_4
REMARK    2  A    between atoms: O_1  and  C_23
REMARK    3  A    between atoms: C_7  and  C_14
REMARK    4  A    between atoms: C_8  and  O_17
REMARK    5  A    between atoms: C_20  and  N_28
REMARK    6  A    between atoms: N_27  and  C_32
REMARK                            x       y       z     vdW  Elec       q    Type
REMARK                         _______ _______ _______ _____ _____    ______ ____
ROOT
ATOM      1  O   UNL     1      33.978 -12.597 -22.689  0.00  0.00    -0.454 OA
ENDROOT
BRANCH   1   4
ATOM      2  N   UNL     1      33.491 -15.105 -25.955  0.00  0.00    -0.248 NA
ATOM      3  C   UNL     1      34.123 -14.808 -23.649  0.00  0.00    +0.031 C 
ATOM      4  C   UNL     1      33.826 -13.442 -23.750  0.00  0.00    +0.144 C 
ATOM      5  C   UNL     1      33.939 -15.613 -24.792  0.00  0.00    +0.066 C 
ATOM      6  C   UNL     1      34.593 -15.372 -22.451  0.00  0.00    +0.064 C 
ATOM      7  C   UNL     1      34.881 -16.732 -22.378  0.00  0.00    +0.065 C 
ATOM      8  C   UNL     1      34.701 -17.532 -23.499  0.00  0.00    +0.123 C 
ATOM      9  C   UNL     1      34.234 -16.971 -24.690  0.00  0.00    +0.109 C 
ATOM     10  C   UNL     1      33.364 -12.915 -24.947  0.00  0.00    +0.058 C 
ATOM     11  C   UNL     1      33.214 -13.782 -26.010  0.00  0.00    +0.102 C 
BRANCH   7  14
ATOM     12  O   UNL     1      35.029 -16.813 -20.029  0.00  0.00    -0.271 OA
ATOM     13  N   UNL     1      36.204 -18.400 -21.194  0.00  0.00    -0.325 N 
ATOM     14  C   UNL     1      35.366 -17.293 -21.125  0.00  0.00    +0.242 C 
ATOM     15  H   UNL     1      36.552 -18.808 -20.368  0.00  0.00    +0.145 HD
ATOM     16  H   UNL     1      36.451 -18.777 -22.070  0.00  0.00    +0.145 HD
ENDBRANCH   7  14
BRANCH   8  17
ATOM     17  O   UNL     1      34.973 -18.867 -23.459  0.00  0.00    -0.475 OA
ATOM     18  C   UNL     1      34.230 -19.706 -24.341  0.00  0.00    +0.252 C 
ENDBRANCH   8  17
ENDBRANCH   1   4
BRANCH   1  23
ATOM     19 CL   UNL     1      34.721  -7.746 -23.975  0.00  0.00    -0.081 Cl
ATOM     20  C   UNL     1      32.381  -8.780 -23.024  0.00  0.00    +0.062 C 
ATOM     21  C   UNL     1      33.708  -9.015 -23.384  0.00  0.00    +0.074 C 
ATOM     22  C   UNL     1      31.591  -9.828 -22.553  0.00  0.00    +0.019 C 
ATOM     23  C   UNL     1      33.446 -11.325 -22.802  0.00  0.00    +0.146 C 
ATOM     24  C   UNL     1      34.245 -10.298 -23.272  0.00  0.00    +0.050 C 
ATOM     25  C   UNL     1      32.127 -11.111 -22.441  0.00  0.00    +0.039 C 
BRANCH  20  28
ATOM     26  O   UNL     1      32.127  -6.594 -20.980  0.00  0.00    -0.252 OA
ATOM     27  N   UNL     1      31.072  -5.374 -22.633  0.00  0.00    -0.290 N 
ATOM     28  N   UNL     1      31.812  -7.508 -23.125  0.00  0.00    -0.268 N 
ATOM     29  C   UNL     1      31.715  -6.513 -22.135  0.00  0.00    +0.304 C 
ATOM     30  H   UNL     1      30.767  -5.376 -23.570  0.00  0.00    +0.151 HD
ATOM     31  H   UNL     1      31.428  -7.278 -24.002  0.00  0.00    +0.156 HD
BRANCH  27  32
ATOM     32  C   UNL     1      30.838  -4.204 -21.837  0.00  0.00    +0.073 C 
ATOM     33  C   UNL     1      30.938  -2.838 -22.435  0.00  0.00    +0.021 C 
ATOM     34  C   UNL     1      31.966  -3.306 -21.448  0.00  0.00    +0.021 C 
ENDBRANCH  27  32
ENDBRANCH  20  28
ENDBRANCH   1  23
TORSDOF 6
ENDMDL
MODEL 8
REMARK VINA RESULT:      -9.4      8.397     14.835
REMARK  Name = 9823820
REMARK  6 active torsions:
REMARK  status: ('A' for Active; 'I' for Inactive)
REMARK    1  A    between atoms: O_1  and  C_4
REMARK    2  A    between atoms: O_1  and  C_23
REMARK    3  A    between atoms: C_7  and  C_14
REMARK    4  A    between atoms: C_8  and  O_17
REMARK    5  A    between atoms: C_20  and  N_28
REMARK    6  A    between atoms: N_27  and  C_32
REMARK                            x       y       z     vdW  Elec       q    Type
REMARK                         _______ _______ _______ _____ _____    ______ ____
ROOT
ATOM      1  O   UNL     1      31.719 -10.441 -22.505  0.00  0.00    -0.454 OA
ENDROOT
BRANCH   1   4
ATOM      2  N   UNL     1      31.953  -7.738 -19.369  0.00  0.00    -0.248 NA
ATOM      3  C   UNL     1      31.951  -8.162 -21.741  0.00  0.00    +0.031 C 
ATOM      4  C   UNL     1      31.799  -9.532 -21.489  0.00  0.00    +0.144 C 
ATOM      5  C   UNL     1      32.025  -7.289 -20.636  0.00  0.00    +0.066 C 
ATOM      6  C   UNL     1      32.029  -7.658 -23.050  0.00  0.00    +0.064 C 
ATOM      7  C   UNL     1      32.180  -6.293 -23.272  0.00  0.00    +0.065 C 
ATOM      8  C   UNL     1      32.253  -5.426 -22.189  0.00  0.00    +0.123 C 
ATOM      9  C   UNL     1      32.176  -5.927 -20.887  0.00  0.00    +0.109 C 
ATOM     10  C   UNL     1      31.724  -9.998 -20.185  0.00  0.00    +0.058 C 
ATOM     11  C   UNL     1      31.806  -9.068 -19.169  0.00  0.00    +0.102 C 
BRANCH   7  14
ATOM     12  O   UNL     1      32.955  -6.365 -25.495  0.00  0.00    -0.271 OA
ATOM     13  N   UNL     1      31.511  -4.667 -24.959  0.00  0.00    -0.325 N 
ATOM     14  C   UNL     1      32.258  -5.795 -24.638  0.00  0.00    +0.242 C 
ATOM     15  H   UNL     1      31.537  -4.302 -25.873  0.00  0.00    +0.145 HD
ATOM     16  H   UNL     1      30.953  -4.234 -24.272  0.00  0.00    +0.145 HD
ENDBRANCH   7  14
BRANCH   8  17
ATOM     17  O   UNL     1      32.400  -4.084 -22.373  0.00  0.00    -0.475 OA
ATOM     18  C   UNL     1      31.621  -3.226 -21.541  0.00  0.00    +0.252 C 
ENDBRANCH   8  17
ENDBRANCH   1   4
BRANCH   1  23
ATOM     19 CL   UNL     1      32.389 -14.701 -19.833  0.00  0.00    -0.081 Cl
ATOM     20  C   UNL     1      33.802 -14.004 -22.061  0.00  0.00    +0.062 C 
ATOM     21  C   UNL     1      32.798 -13.666 -21.153  0.00  0.00    +0.074 C 
ATOM     22  C   UNL     1      34.105 -13.145 -23.117  0.00  0.00    +0.019 C 
ATOM     23  C   UNL     1      32.412 -11.629 -22.357  0.00  0.00    +0.146 C 
ATOM     24  C   UNL     1      32.097 -12.468 -21.303  0.00  0.00    +0.050 C 
ATOM     25  C   UNL     1      33.405 -11.948 -23.267  0.00  0.00    +0.039 C 
BRANCH  20  28
ATOM     26  O   UNL     1      33.961 -16.376 -23.897  0.00  0.00    -0.252 OA
ATOM     27  N   UNL     1      35.408 -17.291 -22.347  0.00  0.00    -0.290 N 
ATOM     28  N   UNL     1      34.522 -15.196 -21.941  0.00  0.00    -0.268 N 
ATOM     29  C   UNL     1      34.565 -16.284 -22.830  0.00  0.00    +0.304 C 
ATOM     30  H   UNL     1      35.863 -17.152 -21.485  0.00  0.00    +0.151 HD
ATOM     31  H   UNL     1      35.070 -15.285 -21.127  0.00  0.00    +0.156 HD
BRANCH  27  32
ATOM     32  C   UNL     1      35.638 -18.518 -23.055  0.00  0.00    +0.073 C 
ATOM     33  C   UNL     1      34.495 -19.322 -23.583  0.00  0.00    +0.021 C 
ATOM     34  C   UNL     1      35.306 -19.834 -22.430  0.00  0.00    +0.021 C 
ENDBRANCH  27  32
ENDBRANCH  20  28
ENDBRANCH   1  23
TORSDOF 6
ENDMDL
MODEL 9
REMARK VINA RESULT:      -9.1      6.927     11.535
REMARK  Name = 9823820
REMARK  6 active torsions:
REMARK  status: ('A' for Active; 'I' for Inactive)
REMARK    1  A    between atoms: O_1  and  C_4
REMARK    2  A    between atoms: O_1  and  C_23
REMARK    3  A    between atoms: C_7  and  C_14
REMARK    4  A    between atoms: C_8  and  O_17
REMARK    5  A    between atoms: C_20  and  N_28
REMARK    6  A    between atoms: N_27  and  C_32
REMARK                            x       y       z     vdW  Elec       q    Type
REMARK                         _______ _______ _______ _____ _____    ______ ____
ROOT
ATOM      1  O   UNL     1      34.233 -13.818 -22.449  0.00  0.00    -0.454 OA
ENDROOT
BRANCH   1   4
ATOM      2  N   UNL     1      33.518 -16.241 -25.737  0.00  0.00    -0.248 NA
ATOM      3  C   UNL     1      34.265 -16.012 -23.458  0.00  0.00    +0.031 C 
ATOM      4  C   UNL     1      34.006 -14.636 -23.518  0.00  0.00    +0.144 C 
ATOM      5  C   UNL     1      34.004 -16.787 -24.606  0.00  0.00    +0.066 C 
ATOM      6  C   UNL     1      34.772 -16.615 -22.294  0.00  0.00    +0.064 C 
ATOM      7  C   UNL     1      35.020 -17.984 -22.261  0.00  0.00    +0.065 C 
ATOM      8  C   UNL     1      34.765 -18.754 -23.388  0.00  0.00    +0.123 C 
ATOM      9  C   UNL     1      34.261 -18.154 -24.545  0.00  0.00    +0.109 C 
ATOM     10  C   UNL     1      33.506 -14.070 -24.682  0.00  0.00    +0.058 C 
ATOM     11  C   UNL     1      33.282 -14.909 -25.754  0.00  0.00    +0.102 C 
BRANCH   7  14
ATOM     12  O   UNL     1      36.591 -18.171 -20.516  0.00  0.00    -0.271 OA
ATOM     13  N   UNL     1      34.823 -19.631 -20.477  0.00  0.00    -0.325 N 
ATOM     14  C   UNL     1      35.544 -18.586 -21.044  0.00  0.00    +0.242 C 
ATOM     15  H   UNL     1      35.146 -20.063 -19.653  0.00  0.00    +0.145 HD
ATOM     16  H   UNL     1      33.989 -19.940 -20.900  0.00  0.00    +0.145 HD
ENDBRANCH   7  14
BRANCH   8  17
ATOM     17  O   UNL     1      34.997 -20.097 -23.387  0.00  0.00    -0.475 OA
ATOM     18  C   UNL     1      34.981 -20.759 -24.651  0.00  0.00    +0.252 C 
ENDBRANCH   8  17
ENDBRANCH   1   4
BRANCH   1  23
ATOM     19 CL   UNL     1      30.493 -11.014 -20.479  0.00  0.00    -0.081 Cl
ATOM     20  C   UNL     1      32.264 -10.165 -22.374  0.00  0.00    +0.062 C 
ATOM     21  C   UNL     1      31.836 -11.204 -21.548  0.00  0.00    +0.074 C 
ATOM     22  C   UNL     1      33.353 -10.353 -23.224  0.00  0.00    +0.019 C 
ATOM     23  C   UNL     1      33.577 -12.601 -22.423  0.00  0.00    +0.146 C 
ATOM     24  C   UNL     1      32.499 -12.432 -21.573  0.00  0.00    +0.050 C 
ATOM     25  C   UNL     1      34.016 -11.580 -23.249  0.00  0.00    +0.039 C 
BRANCH  20  28
ATOM     26  O   UNL     1      32.804  -7.697 -20.750  0.00  0.00    -0.252 OA
ATOM     27  N   UNL     1      31.037  -6.740 -21.889  0.00  0.00    -0.290 N 
ATOM     28  N   UNL     1      31.623  -8.923 -22.374  0.00  0.00    -0.268 N 
ATOM     29  C   UNL     1      31.912  -7.790 -21.591  0.00  0.00    +0.304 C 
ATOM     30  H   UNL     1      30.346  -6.883 -22.575  0.00  0.00    +0.151 HD
ATOM     31  H   UNL     1      30.872  -8.828 -23.003  0.00  0.00    +0.156 HD
BRANCH  27  32
ATOM     32  C   UNL     1      31.105  -5.464 -21.237  0.00  0.00    +0.073 C 
ATOM     33  C   UNL     1      30.933  -4.198 -22.013  0.00  0.00    +0.021 C 
ATOM     34  C   UNL     1      32.275  -4.559 -21.448  0.00  0.00    +0.021 C 
ENDBRANCH  27  32
ENDBRANCH  20  28
ENDBRANCH   1  23
TORSDOF 6
ENDMDL
