MODEL 1
REMARK VINA RESULT:     -11.4      0.000      0.000
REMARK  Name = 11697697
REMARK  7 active torsions:
REMARK  status: ('A' for Active; 'I' for Inactive)
REMARK    1  A    between atoms: N_2  and  C_14
REMARK    2  A    between atoms: C_8  and  C_32
REMARK    3  A    between atoms: C_13  and  O_19
REMARK    4  A    between atoms: O_19  and  C_20
REMARK    5  A    between atoms: C_20  and  C_21
REMARK    6  A    between atoms: C_21  and  C_22
REMARK    7  A    between atoms: C_22  and  N_23
REMARK                            x       y       z     vdW  Elec       q    Type
REMARK                         _______ _______ _______ _____ _____    ______ ____
ROOT
ATOM      1  O   UNL     1      34.770 -16.551 -20.538  0.00  0.00    -0.273 OA
ATOM      2  N   UNL     1      34.941 -18.200 -22.211  0.00  0.00    -0.215 N 
ATOM      3  N   UNL     1      34.458 -17.603 -24.464  0.00  0.00    -0.394 NA
ATOM      4  C   UNL     1      34.246 -15.912 -22.713  0.00  0.00    +0.156 C 
ATOM      5  C   UNL     1      34.656 -16.913 -21.706  0.00  0.00    +0.245 C 
ATOM      6  C   UNL     1      34.793 -18.484 -23.572  0.00  0.00    +0.170 C 
ATOM      7  C   UNL     1      34.187 -16.294 -24.052  0.00  0.00    +0.123 C 
ATOM      8  C   UNL     1      33.945 -14.598 -22.330  0.00  0.00    +0.064 C 
ATOM      9  C   UNL     1      33.824 -15.343 -25.014  0.00  0.00    +0.028 C 
ATOM     10  C   UNL     1      33.584 -13.661 -23.297  0.00  0.00    +0.001 C 
ATOM     11  C   UNL     1      34.967 -19.901 -24.077  0.00  0.00    +0.084 C 
ATOM     12  C   UNL     1      33.524 -14.033 -24.638  0.00  0.00    +0.002 C 
ENDROOT
BRANCH   2  14
ATOM     13  C   UNL     1      36.370 -21.061 -19.466  0.00  0.00    +0.139 C 
ATOM     14  C   UNL     1      35.429 -19.176 -21.277  0.00  0.00    +0.060 C 
ATOM     15  C   UNL     1      37.240 -20.108 -19.997  0.00  0.00    +0.038 C 
ATOM     16  C   UNL     1      35.027 -21.067 -19.845  0.00  0.00    +0.038 C 
ATOM     17  C   UNL     1      36.767 -19.162 -20.906  0.00  0.00    +0.018 C 
ATOM     18  C   UNL     1      34.555 -20.121 -20.754  0.00  0.00    +0.018 C 
BRANCH  13  19
ATOM     19  O   UNL     1      36.832 -21.985 -18.580  0.00  0.00    -0.476 OA
BRANCH  19  20
ATOM     20  C   UNL     1      36.184 -22.048 -17.311  0.00  0.00    +0.203 C 
BRANCH  20  21
ATOM     21  C   UNL     1      37.212 -22.423 -16.251  0.00  0.00    +0.025 C 
BRANCH  21  22
ATOM     22  C   UNL     1      36.586 -23.250 -15.133  0.00  0.00    -0.074 C 
BRANCH  22  23
ATOM     23  N   UNL     1      37.082 -24.618 -15.177  0.00  0.00    +0.387 N 
ATOM     24  C   UNL     1      38.242 -24.820 -14.311  0.00  0.00    -0.077 C 
ATOM     25  C   UNL     1      36.088 -25.586 -14.713  0.00  0.00    -0.077 C 
ATOM     26  C   UNL     1      38.334 -26.335 -14.210  0.00  0.00    -0.025 C 
ATOM     27  C   UNL     1      36.918 -26.840 -14.478  0.00  0.00    -0.025 C 
ATOM     28  H   UNL     1      37.316 -24.764 -16.159  0.00  0.00    -0.080 HD
ENDBRANCH  22  23
ENDBRANCH  21  22
ENDBRANCH  20  21
ENDBRANCH  19  20
ENDBRANCH  13  19
ENDBRANCH   2  14
BRANCH   8  32
ATOM     29  F   UNL     1      33.263 -14.886 -20.056  0.00  0.00    -0.166 F 
ATOM     30  F   UNL     1      35.247 -14.076 -20.393  0.00  0.00    -0.166 F 
ATOM     31  F   UNL     1      33.492 -12.850 -20.783  0.00  0.00    -0.166 F 
ATOM     32  C   UNL     1      33.987 -14.114 -20.917  0.00  0.00    +0.416 C 
ENDBRANCH   8  32
TORSDOF 7
ENDMDL
MODEL 2
REMARK VINA RESULT:     -10.7      4.766      7.948
REMARK  Name = 11697697
REMARK  7 active torsions:
REMARK  status: ('A' for Active; 'I' for Inactive)
REMARK    1  A    between atoms: N_2  and  C_14
REMARK    2  A    between atoms: C_8  and  C_32
REMARK    3  A    between atoms: C_13  and  O_19
REMARK    4  A    between atoms: O_19  and  C_20
REMARK    5  A    between atoms: C_20  and  C_21
REMARK    6  A    between atoms: C_21  and  C_22
REMARK    7  A    between atoms: C_22  and  N_23
REMARK                            x       y       z     vdW  Elec       q    Type
REMARK                         _______ _______ _______ _____ _____    ______ ____
ROOT
ATOM      1  O   UNL     1      34.694 -10.020 -23.685  0.00  0.00    -0.273 OA
ATOM      2  N   UNL     1      32.754 -10.948 -22.723  0.00  0.00    -0.215 N 
ATOM      3  N   UNL     1      30.988  -9.493 -22.070  0.00  0.00    -0.394 NA
ATOM      4  C   UNL     1      33.022  -8.539 -23.032  0.00  0.00    +0.156 C 
ATOM      5  C   UNL     1      33.589  -9.898 -23.164  0.00  0.00    +0.245 C 
ATOM      6  C   UNL     1      31.501 -10.681 -22.164  0.00  0.00    +0.170 C 
ATOM      7  C   UNL     1      31.736  -8.397 -22.513  0.00  0.00    +0.123 C 
ATOM      8  C   UNL     1      33.755  -7.419 -23.445  0.00  0.00    +0.064 C 
ATOM      9  C   UNL     1      31.185  -7.114 -22.409  0.00  0.00    +0.028 C 
ATOM     10  C   UNL     1      33.194  -6.147 -23.336  0.00  0.00    +0.001 C 
ATOM     11  C   UNL     1      30.678 -11.804 -21.569  0.00  0.00    +0.084 C 
ATOM     12  C   UNL     1      31.910  -5.994 -22.819  0.00  0.00    +0.002 C 
ENDROOT
BRANCH   2  14
ATOM     13  C   UNL     1      34.163 -14.879 -23.293  0.00  0.00    +0.139 C 
ATOM     14  C   UNL     1      33.234 -12.288 -22.917  0.00  0.00    +0.060 C 
ATOM     15  C   UNL     1      33.565 -14.192 -24.349  0.00  0.00    +0.038 C 
ATOM     16  C   UNL     1      34.294 -14.264 -22.046  0.00  0.00    +0.038 C 
ATOM     17  C   UNL     1      33.099 -12.892 -24.161  0.00  0.00    +0.018 C 
ATOM     18  C   UNL     1      33.827 -12.964 -21.859  0.00  0.00    +0.018 C 
BRANCH  13  19
ATOM     19  O   UNL     1      34.618 -16.149 -23.476  0.00  0.00    -0.476 OA
BRANCH  19  20
ATOM     20  C   UNL     1      35.241 -16.783 -22.360  0.00  0.00    +0.203 C 
BRANCH  20  21
ATOM     21  C   UNL     1      35.128 -18.293 -22.527  0.00  0.00    +0.025 C 
BRANCH  21  22
ATOM     22  C   UNL     1      35.995 -19.033 -21.514  0.00  0.00    -0.074 C 
BRANCH  22  23
ATOM     23  N   UNL     1      35.161 -19.670 -20.505  0.00  0.00    +0.387 N 
ATOM     24  C   UNL     1      33.822 -19.983 -21.003  0.00  0.00    -0.077 C 
ATOM     25  C   UNL     1      35.708 -20.951 -20.056  0.00  0.00    -0.077 C 
ATOM     26  C   UNL     1      33.290 -20.958 -19.963  0.00  0.00    -0.025 C 
ATOM     27  C   UNL     1      34.530 -21.591 -19.338  0.00  0.00    -0.025 C 
ATOM     28  H   UNL     1      35.129 -18.991 -19.745  0.00  0.00    -0.080 HD
ENDBRANCH  22  23
ENDBRANCH  21  22
ENDBRANCH  20  21
ENDBRANCH  19  20
ENDBRANCH  13  19
ENDBRANCH   2  14
BRANCH   8  32
ATOM     29  F   UNL     1      36.004  -8.206 -23.240  0.00  0.00    -0.166 F 
ATOM     30  F   UNL     1      35.186  -8.075 -25.245  0.00  0.00    -0.166 F 
ATOM     31  F   UNL     1      35.704  -6.261 -24.162  0.00  0.00    -0.166 F 
ATOM     32  C   UNL     1      35.135  -7.491 -24.012  0.00  0.00    +0.416 C 
ENDBRANCH   8  32
TORSDOF 7
ENDMDL
MODEL 3
REMARK VINA RESULT:     -10.5      4.620     10.619
REMARK  Name = 11697697
REMARK  7 active torsions:
REMARK  status: ('A' for Active; 'I' for Inactive)
REMARK    1  A    between atoms: N_2  and  C_14
REMARK    2  A    between atoms: C_8  and  C_32
REMARK    3  A    between atoms: C_13  and  O_19
REMARK    4  A    between atoms: O_19  and  C_20
REMARK    5  A    between atoms: C_20  and  C_21
REMARK    6  A    between atoms: C_21  and  C_22
REMARK    7  A    between atoms: C_22  and  N_23
REMARK                            x       y       z     vdW  Elec       q    Type
REMARK                         _______ _______ _______ _____ _____    ______ ____
ROOT
ATOM      1  O   UNL     1      31.145 -22.728 -17.257  0.00  0.00    -0.273 OA
ATOM      2  N   UNL     1      33.443 -22.940 -16.784  0.00  0.00    -0.215 N 
ATOM      3  N   UNL     1      34.110 -24.183 -14.868  0.00  0.00    -0.394 NA
ATOM      4  C   UNL     1      31.728 -23.922 -15.347  0.00  0.00    +0.156 C 
ATOM      5  C   UNL     1      32.064 -23.122 -16.544  0.00  0.00    +0.245 C 
ATOM      6  C   UNL     1      34.398 -23.459 -15.905  0.00  0.00    +0.170 C 
ATOM      7  C   UNL     1      32.766 -24.438 -14.573  0.00  0.00    +0.123 C 
ATOM      8  C   UNL     1      30.392 -24.175 -15.011  0.00  0.00    +0.064 C 
ATOM      9  C   UNL     1      32.455 -25.218 -13.453  0.00  0.00    +0.028 C 
ATOM     10  C   UNL     1      30.095 -24.953 -13.893  0.00  0.00    +0.001 C 
ATOM     11  C   UNL     1      35.865 -23.138 -16.099  0.00  0.00    +0.084 C 
ATOM     12  C   UNL     1      31.126 -25.475 -13.114  0.00  0.00    +0.002 C 
ENDROOT
BRANCH   2  14
ATOM     13  C   UNL     1      34.521 -20.895 -20.308  0.00  0.00    +0.139 C 
ATOM     14  C   UNL     1      33.810 -22.244 -17.986  0.00  0.00    +0.060 C 
ATOM     15  C   UNL     1      33.185 -20.945 -19.911  0.00  0.00    +0.038 C 
ATOM     16  C   UNL     1      35.501 -21.524 -19.538  0.00  0.00    +0.038 C 
ATOM     17  C   UNL     1      32.828 -21.622 -18.746  0.00  0.00    +0.018 C 
ATOM     18  C   UNL     1      35.144 -22.201 -18.373  0.00  0.00    +0.018 C 
BRANCH  13  19
ATOM     19  O   UNL     1      34.870 -20.235 -21.446  0.00  0.00    -0.476 OA
BRANCH  19  20
ATOM     20  C   UNL     1      35.962 -19.321 -21.358  0.00  0.00    +0.203 C 
BRANCH  20  21
ATOM     21  C   UNL     1      35.473 -17.932 -21.748  0.00  0.00    +0.025 C 
BRANCH  21  22
ATOM     22  C   UNL     1      35.114 -17.861 -23.229  0.00  0.00    -0.074 C 
BRANCH  22  23
ATOM     23  N   UNL     1      34.987 -16.474 -23.652  0.00  0.00    +0.387 N 
ATOM     24  C   UNL     1      33.918 -16.284 -24.631  0.00  0.00    -0.077 C 
ATOM     25  C   UNL     1      34.649 -15.581 -22.543  0.00  0.00    -0.077 C 
ATOM     26  C   UNL     1      33.711 -14.777 -24.624  0.00  0.00    -0.025 C 
ATOM     27  C   UNL     1      34.195 -14.314 -23.252  0.00  0.00    -0.025 C 
ATOM     28  H   UNL     1      35.901 -16.251 -24.046  0.00  0.00    -0.080 HD
ENDBRANCH  22  23
ENDBRANCH  21  22
ENDBRANCH  20  21
ENDBRANCH  19  20
ENDBRANCH  13  19
ENDBRANCH   2  14
BRANCH   8  32
ATOM     29  F   UNL     1      29.251 -22.307 -15.974  0.00  0.00    -0.166 F 
ATOM     30  F   UNL     1      29.134 -24.189 -17.045  0.00  0.00    -0.166 F 
ATOM     31  F   UNL     1      28.034 -23.927 -15.187  0.00  0.00    -0.166 F 
ATOM     32  C   UNL     1      29.227 -23.659 -15.791  0.00  0.00    +0.416 C 
ENDBRANCH   8  32
TORSDOF 7
ENDMDL
MODEL 4
REMARK VINA RESULT:     -10.3      4.708      8.077
REMARK  Name = 11697697
REMARK  7 active torsions:
REMARK  status: ('A' for Active; 'I' for Inactive)
REMARK    1  A    between atoms: N_2  and  C_14
REMARK    2  A    between atoms: C_8  and  C_32
REMARK    3  A    between atoms: C_13  and  O_19
REMARK    4  A    between atoms: O_19  and  C_20
REMARK    5  A    between atoms: C_20  and  C_21
REMARK    6  A    between atoms: C_21  and  C_22
REMARK    7  A    between atoms: C_22  and  N_23
REMARK                            x       y       z     vdW  Elec       q    Type
REMARK                         _______ _______ _______ _____ _____    ______ ____
ROOT
ATOM      1  O   UNL     1      34.683 -10.368 -23.928  0.00  0.00    -0.273 OA
ATOM      2  N   UNL     1      33.065 -11.535 -22.676  0.00  0.00    -0.215 N 
ATOM      3  N   UNL     1      31.592 -10.303 -21.271  0.00  0.00    -0.394 NA
ATOM      4  C   UNL     1      33.301  -9.107 -22.544  0.00  0.00    +0.156 C 
ATOM      5  C   UNL     1      33.771 -10.391 -23.105  0.00  0.00    +0.245 C 
ATOM      6  C   UNL     1      32.025 -11.429 -21.747  0.00  0.00    +0.170 C 
ATOM      7  C   UNL     1      32.216  -9.115 -21.669  0.00  0.00    +0.123 C 
ATOM      8  C   UNL     1      33.920  -7.903 -22.904  0.00  0.00    +0.064 C 
ATOM      9  C   UNL     1      31.750  -7.900 -21.153  0.00  0.00    +0.028 C 
ATOM     10  C   UNL     1      33.447  -6.699 -22.383  0.00  0.00    +0.001 C 
ATOM     11  C   UNL     1      31.371 -12.676 -21.191  0.00  0.00    +0.084 C 
ATOM     12  C   UNL     1      32.362  -6.697 -21.509  0.00  0.00    +0.002 C 
ENDROOT
BRANCH   2  14
ATOM     13  C   UNL     1      34.151 -15.218 -24.413  0.00  0.00    +0.139 C 
ATOM     14  C   UNL     1      33.434 -12.791 -23.267  0.00  0.00    +0.060 C 
ATOM     15  C   UNL     1      33.330 -14.332 -25.112  0.00  0.00    +0.038 C 
ATOM     16  C   UNL     1      34.611 -14.885 -23.139  0.00  0.00    +0.038 C 
ATOM     17  C   UNL     1      32.970 -13.114 -24.537  0.00  0.00    +0.018 C 
ATOM     18  C   UNL     1      34.251 -13.666 -22.565  0.00  0.00    +0.018 C 
BRANCH  13  19
ATOM     19  O   UNL     1      34.501 -16.408 -24.974  0.00  0.00    -0.476 OA
BRANCH  19  20
ATOM     20  C   UNL     1      33.635 -17.517 -24.739  0.00  0.00    +0.203 C 
BRANCH  20  21
ATOM     21  C   UNL     1      34.479 -18.734 -24.385  0.00  0.00    +0.025 C 
BRANCH  21  22
ATOM     22  C   UNL     1      34.104 -19.297 -23.018  0.00  0.00    -0.074 C 
BRANCH  22  23
ATOM     23  N   UNL     1      35.302 -19.656 -22.274  0.00  0.00    +0.387 N 
ATOM     24  C   UNL     1      36.187 -18.514 -22.055  0.00  0.00    -0.077 C 
ATOM     25  C   UNL     1      34.995 -20.161 -20.935  0.00  0.00    -0.077 C 
ATOM     26  C   UNL     1      37.125 -19.012 -20.965  0.00  0.00    -0.025 C 
ATOM     27  C   UNL     1      36.343 -20.097 -20.230  0.00  0.00    -0.025 C 
ATOM     28  H   UNL     1      35.746 -20.371 -22.850  0.00  0.00    -0.080 HD
ENDBRANCH  22  23
ENDBRANCH  21  22
ENDBRANCH  20  21
ENDBRANCH  19  20
ENDBRANCH  13  19
ENDBRANCH   2  14
BRANCH   8  32
ATOM     29  F   UNL     1      34.750  -8.008 -25.144  0.00  0.00    -0.166 F 
ATOM     30  F   UNL     1      35.714  -6.602 -23.804  0.00  0.00    -0.166 F 
ATOM     31  F   UNL     1      36.047  -8.738 -23.560  0.00  0.00    -0.166 F 
ATOM     32  C   UNL     1      35.084  -7.813 -23.836  0.00  0.00    +0.416 C 
ENDBRANCH   8  32
TORSDOF 7
ENDMDL
MODEL 5
REMARK VINA RESULT:     -10.1      2.101      2.543
REMARK  Name = 11697697
REMARK  7 active torsions:
REMARK  status: ('A' for Active; 'I' for Inactive)
REMARK    1  A    between atoms: N_2  and  C_14
REMARK    2  A    between atoms: C_8  and  C_32
REMARK    3  A    between atoms: C_13  and  O_19
REMARK    4  A    between atoms: O_19  and  C_20
REMARK    5  A    between atoms: C_20  and  C_21
REMARK    6  A    between atoms: C_21  and  C_22
REMARK    7  A    between atoms: C_22  and  N_23
REMARK                            x       y       z     vdW  Elec       q    Type
REMARK                         _______ _______ _______ _____ _____    ______ ____
ROOT
ATOM      1  O   UNL     1      34.541 -16.007 -21.167  0.00  0.00    -0.273 OA
ATOM      2  N   UNL     1      34.685 -17.709 -22.789  0.00  0.00    -0.215 N 
ATOM      3  N   UNL     1      34.237 -17.169 -25.063  0.00  0.00    -0.394 NA
ATOM      4  C   UNL     1      34.052 -15.421 -23.365  0.00  0.00    +0.156 C 
ATOM      5  C   UNL     1      34.428 -16.401 -22.325  0.00  0.00    +0.245 C 
ATOM      6  C   UNL     1      34.542 -18.031 -24.141  0.00  0.00    +0.170 C 
ATOM      7  C   UNL     1      33.995 -15.842 -24.693  0.00  0.00    +0.123 C 
ATOM      8  C   UNL     1      33.781 -14.089 -23.025  0.00  0.00    +0.064 C 
ATOM      9  C   UNL     1      33.664 -14.912 -25.686  0.00  0.00    +0.028 C 
ATOM     10  C   UNL     1      33.451 -13.174 -24.023  0.00  0.00    +0.001 C 
ATOM     11  C   UNL     1      34.685 -19.466 -24.602  0.00  0.00    +0.084 C 
ATOM     12  C   UNL     1      33.394 -13.584 -25.353  0.00  0.00    +0.002 C 
ENDROOT
BRANCH   2  14
ATOM     13  C   UNL     1      36.019 -20.520 -19.946  0.00  0.00    +0.139 C 
ATOM     14  C   UNL     1      35.140 -18.668 -21.821  0.00  0.00    +0.060 C 
ATOM     15  C   UNL     1      36.917 -19.605 -20.496  0.00  0.00    +0.038 C 
ATOM     16  C   UNL     1      34.680 -20.505 -20.337  0.00  0.00    +0.038 C 
ATOM     17  C   UNL     1      36.476 -18.675 -21.437  0.00  0.00    +0.018 C 
ATOM     18  C   UNL     1      34.240 -19.576 -21.278  0.00  0.00    +0.018 C 
BRANCH  13  19
ATOM     19  O   UNL     1      36.450 -21.428 -19.028  0.00  0.00    -0.476 OA
BRANCH  19  20
ATOM     20  C   UNL     1      35.676 -22.617 -18.878  0.00  0.00    +0.203 C 
BRANCH  20  21
ATOM     21  C   UNL     1      34.936 -22.557 -17.547  0.00  0.00    +0.025 C 
BRANCH  21  22
ATOM     22  C   UNL     1      33.473 -22.956 -17.703  0.00  0.00    -0.074 C 
BRANCH  22  23
ATOM     23  N   UNL     1      33.005 -23.640 -16.506  0.00  0.00    +0.387 N 
ATOM     24  C   UNL     1      33.822 -23.334 -15.333  0.00  0.00    -0.077 C 
ATOM     25  C   UNL     1      31.645 -23.247 -16.135  0.00  0.00    -0.077 C 
ATOM     26  C   UNL     1      32.954 -23.809 -14.178  0.00  0.00    -0.025 C 
ATOM     27  C   UNL     1      31.523 -23.756 -14.705  0.00  0.00    -0.025 C 
ATOM     28  H   UNL     1      33.055 -24.629 -16.750  0.00  0.00    -0.080 HD
ENDBRANCH  22  23
ENDBRANCH  21  22
ENDBRANCH  20  21
ENDBRANCH  19  20
ENDBRANCH  13  19
ENDBRANCH   2  14
BRANCH   8  32
ATOM     29  F   UNL     1      33.431 -12.261 -21.524  0.00  0.00    -0.166 F 
ATOM     30  F   UNL     1      33.017 -14.250 -20.764  0.00  0.00    -0.166 F 
ATOM     31  F   UNL     1      35.073 -13.616 -21.085  0.00  0.00    -0.166 F 
ATOM     32  C   UNL     1      33.822 -13.564 -21.627  0.00  0.00    +0.416 C 
ENDBRANCH   8  32
TORSDOF 7
ENDMDL
MODEL 6
REMARK VINA RESULT:     -10.0      4.722     11.377
REMARK  Name = 11697697
REMARK  7 active torsions:
REMARK  status: ('A' for Active; 'I' for Inactive)
REMARK    1  A    between atoms: N_2  and  C_14
REMARK    2  A    between atoms: C_8  and  C_32
REMARK    3  A    between atoms: C_13  and  O_19
REMARK    4  A    between atoms: O_19  and  C_20
REMARK    5  A    between atoms: C_20  and  C_21
REMARK    6  A    between atoms: C_21  and  C_22
REMARK    7  A    between atoms: C_22  and  N_23
REMARK                            x       y       z     vdW  Elec       q    Type
REMARK                         _______ _______ _______ _____ _____    ______ ____
ROOT
ATOM      1  O   UNL     1      37.398 -24.301 -15.637  0.00  0.00    -0.273 OA
ATOM      2  N   UNL     1      35.174 -23.566 -15.386  0.00  0.00    -0.215 N 
ATOM      3  N   UNL     1      34.082 -23.901 -13.299  0.00  0.00    -0.394 NA
ATOM      4  C   UNL     1      36.375 -24.696 -13.584  0.00  0.00    +0.156 C 
ATOM      5  C   UNL     1      36.370 -24.192 -14.973  0.00  0.00    +0.245 C 
ATOM      6  C   UNL     1      34.074 -23.484 -14.527  0.00  0.00    +0.170 C 
ATOM      7  C   UNL     1      35.239 -24.508 -12.798  0.00  0.00    +0.123 C 
ATOM      8  C   UNL     1      37.510 -25.329 -13.060  0.00  0.00    +0.064 C 
ATOM      9  C   UNL     1      35.248 -24.961 -11.474  0.00  0.00    +0.028 C 
ATOM     10  C   UNL     1      37.505 -25.776 -11.740  0.00  0.00    +0.001 C 
ATOM     11  C   UNL     1      32.755 -22.935 -15.030  0.00  0.00    +0.084 C 
ATOM     12  C   UNL     1      36.375 -25.591 -10.946  0.00  0.00    +0.002 C 
ENDROOT
BRANCH   2  14
ATOM     13  C   UNL     1      35.138 -21.863 -19.241  0.00  0.00    +0.139 C 
ATOM     14  C   UNL     1      35.161 -22.984 -16.700  0.00  0.00    +0.060 C 
ATOM     15  C   UNL     1      36.233 -21.663 -18.401  0.00  0.00    +0.038 C 
ATOM     16  C   UNL     1      34.053 -22.626 -18.805  0.00  0.00    +0.038 C 
ATOM     17  C   UNL     1      36.245 -22.225 -17.125  0.00  0.00    +0.018 C 
ATOM     18  C   UNL     1      34.066 -23.188 -17.530  0.00  0.00    +0.018 C 
BRANCH  13  19
ATOM     19  O   UNL     1      35.125 -21.312 -20.486  0.00  0.00    -0.476 OA
BRANCH  19  20
ATOM     20  C   UNL     1      34.260 -20.197 -20.695  0.00  0.00    +0.203 C 
BRANCH  20  21
ATOM     21  C   UNL     1      34.664 -19.496 -21.986  0.00  0.00    +0.025 C 
BRANCH  21  22
ATOM     22  C   UNL     1      35.774 -18.479 -21.746  0.00  0.00    -0.074 C 
BRANCH  22  23
ATOM     23  N   UNL     1      35.656 -17.372 -22.685  0.00  0.00    +0.387 N 
ATOM     24  C   UNL     1      34.847 -17.714 -23.852  0.00  0.00    -0.077 C 
ATOM     25  C   UNL     1      34.998 -16.207 -22.093  0.00  0.00    -0.077 C 
ATOM     26  C   UNL     1      34.539 -16.356 -24.465  0.00  0.00    -0.025 C 
ATOM     27  C   UNL     1      34.642 -15.364 -23.310  0.00  0.00    -0.025 C 
ATOM     28  H   UNL     1      36.621 -17.165 -22.944  0.00  0.00    -0.080 HD
ENDBRANCH  22  23
ENDBRANCH  21  22
ENDBRANCH  20  21
ENDBRANCH  19  20
ENDBRANCH  13  19
ENDBRANCH   2  14
BRANCH   8  32
ATOM     29  F   UNL     1      38.598 -26.418 -14.890  0.00  0.00    -0.166 F 
ATOM     30  F   UNL     1      39.290 -24.427 -14.378  0.00  0.00    -0.166 F 
ATOM     31  F   UNL     1      39.757 -26.107 -13.077  0.00  0.00    -0.166 F 
ATOM     32  C   UNL     1      38.763 -25.565 -13.838  0.00  0.00    +0.416 C 
ENDBRANCH   8  32
TORSDOF 7
ENDMDL
MODEL 7
REMARK VINA RESULT:      -9.4      6.200     10.179
REMARK  Name = 11697697
REMARK  7 active torsions:
REMARK  status: ('A' for Active; 'I' for Inactive)
REMARK    1  A    between atoms: N_2  and  C_14
REMARK    2  A    between atoms: C_8  and  C_32
REMARK    3  A    between atoms: C_13  and  O_19
REMARK    4  A    between atoms: O_19  and  C_20
REMARK    5  A    between atoms: C_20  and  C_21
REMARK    6  A    between atoms: C_21  and  C_22
REMARK    7  A    between atoms: C_22  and  N_23
REMARK                            x       y       z     vdW  Elec       q    Type
REMARK                         _______ _______ _______ _____ _____    ______ ____
ROOT
ATOM      1  O   UNL     1      32.978  -8.324 -24.277  0.00  0.00    -0.273 OA
ATOM      2  N   UNL     1      32.423  -8.927 -22.068  0.00  0.00    -0.215 N 
ATOM      3  N   UNL     1      31.760  -7.224 -20.545  0.00  0.00    -0.394 NA
ATOM      4  C   UNL     1      32.377  -6.605 -22.827  0.00  0.00    +0.156 C 
ATOM      5  C   UNL     1      32.644  -8.027 -23.133  0.00  0.00    +0.245 C 
ATOM      6  C   UNL     1      32.021  -8.467 -20.812  0.00  0.00    +0.170 C 
ATOM      7  C   UNL     1      31.923  -6.268 -21.553  0.00  0.00    +0.123 C 
ATOM      8  C   UNL     1      32.553  -5.621 -23.808  0.00  0.00    +0.064 C 
ATOM      9  C   UNL     1      31.644  -4.926 -21.266  0.00  0.00    +0.028 C 
ATOM     10  C   UNL     1      32.272  -4.288 -23.508  0.00  0.00    +0.001 C 
ATOM     11  C   UNL     1      31.924  -9.426 -19.644  0.00  0.00    +0.084 C 
ATOM     12  C   UNL     1      31.817  -3.941 -22.239  0.00  0.00    +0.002 C 
ENDROOT
BRANCH   2  14
ATOM     13  C   UNL     1      32.900 -13.031 -22.903  0.00  0.00    +0.139 C 
ATOM     14  C   UNL     1      32.587 -10.326 -22.352  0.00  0.00    +0.060 C 
ATOM     15  C   UNL     1      31.830 -12.598 -22.120  0.00  0.00    +0.038 C 
ATOM     16  C   UNL     1      33.814 -12.105 -23.409  0.00  0.00    +0.038 C 
ATOM     17  C   UNL     1      31.673 -11.240 -21.843  0.00  0.00    +0.018 C 
ATOM     18  C   UNL     1      33.655 -10.748 -23.132  0.00  0.00    +0.018 C 
BRANCH  13  19
ATOM     19  O   UNL     1      33.054 -14.356 -23.173  0.00  0.00    -0.476 OA
BRANCH  19  20
ATOM     20  C   UNL     1      33.401 -14.711 -24.510  0.00  0.00    +0.203 C 
BRANCH  20  21
ATOM     21  C   UNL     1      34.404 -15.857 -24.471  0.00  0.00    +0.025 C 
BRANCH  21  22
ATOM     22  C   UNL     1      35.021 -16.013 -23.085  0.00  0.00    -0.074 C 
BRANCH  22  23
ATOM     23  N   UNL     1      35.422 -17.394 -22.863  0.00  0.00    +0.387 N 
ATOM     24  C   UNL     1      35.385 -17.766 -21.450  0.00  0.00    -0.077 C 
ATOM     25  C   UNL     1      34.534 -18.347 -23.530  0.00  0.00    -0.077 C 
ATOM     26  C   UNL     1      35.445 -19.285 -21.495  0.00  0.00    -0.025 C 
ATOM     27  C   UNL     1      34.889 -19.668 -22.863  0.00  0.00    -0.025 C 
ATOM     28  H   UNL     1      36.369 -17.440 -23.239  0.00  0.00    -0.080 HD
ENDBRANCH  22  23
ENDBRANCH  21  22
ENDBRANCH  20  21
ENDBRANCH  19  20
ENDBRANCH  13  19
ENDBRANCH   2  14
BRANCH   8  32
ATOM     29  F   UNL     1      32.355  -6.918 -25.807  0.00  0.00    -0.166 F 
ATOM     30  F   UNL     1      32.922  -4.837 -26.037  0.00  0.00    -0.166 F 
ATOM     31  F   UNL     1      34.347  -6.267 -25.228  0.00  0.00    -0.166 F 
ATOM     32  C   UNL     1      33.033  -5.904 -25.194  0.00  0.00    +0.416 C 
ENDBRANCH   8  32
TORSDOF 7
ENDMDL
MODEL 8
REMARK VINA RESULT:      -9.4      7.638     11.967
REMARK  Name = 11697697
REMARK  7 active torsions:
REMARK  status: ('A' for Active; 'I' for Inactive)
REMARK    1  A    between atoms: N_2  and  C_14
REMARK    2  A    between atoms: C_8  and  C_32
REMARK    3  A    between atoms: C_13  and  O_19
REMARK    4  A    between atoms: O_19  and  C_20
REMARK    5  A    between atoms: C_20  and  C_21
REMARK    6  A    between atoms: C_21  and  C_22
REMARK    7  A    between atoms: C_22  and  N_23
REMARK                            x       y       z     vdW  Elec       q    Type
REMARK                         _______ _______ _______ _____ _____    ______ ____
ROOT
ATOM      1  O   UNL     1      33.909  -7.345 -23.964  0.00  0.00    -0.273 OA
ATOM      2  N   UNL     1      32.062  -6.697 -22.654  0.00  0.00    -0.215 N 
ATOM      3  N   UNL     1      31.139  -4.525 -22.964  0.00  0.00    -0.394 NA
ATOM      4  C   UNL     1      33.081  -5.195 -24.289  0.00  0.00    +0.156 C 
ATOM      5  C   UNL     1      33.080  -6.509 -23.613  0.00  0.00    +0.245 C 
ATOM      6  C   UNL     1      31.160  -5.672 -22.357  0.00  0.00    +0.170 C 
ATOM      7  C   UNL     1      32.096  -4.268 -23.953  0.00  0.00    +0.123 C 
ATOM      8  C   UNL     1      34.039  -4.897 -25.267  0.00  0.00    +0.064 C 
ATOM      9  C   UNL     1      32.076  -3.030 -24.607  0.00  0.00    +0.028 C 
ATOM     10  C   UNL     1      34.009  -3.661 -25.911  0.00  0.00    +0.001 C 
ATOM     11  C   UNL     1      30.163  -5.838 -21.228  0.00  0.00    +0.084 C 
ATOM     12  C   UNL     1      33.028  -2.728 -25.583  0.00  0.00    +0.002 C 
ENDROOT
BRANCH   2  14
ATOM     13  C   UNL     1      31.806 -10.500 -20.855  0.00  0.00    +0.139 C 
ATOM     14  C   UNL     1      31.974  -7.993 -22.040  0.00  0.00    +0.060 C 
ATOM     15  C   UNL     1      31.324 -10.306 -22.149  0.00  0.00    +0.038 C 
ATOM     16  C   UNL     1      32.373  -9.433 -20.155  0.00  0.00    +0.038 C 
ATOM     17  C   UNL     1      31.407  -9.048 -22.744  0.00  0.00    +0.018 C 
ATOM     18  C   UNL     1      32.457  -8.175 -20.751  0.00  0.00    +0.018 C 
BRANCH  13  19
ATOM     19  O   UNL     1      31.723 -11.727 -20.273  0.00  0.00    -0.476 OA
BRANCH  19  20
ATOM     20  C   UNL     1      31.780 -12.861 -21.138  0.00  0.00    +0.203 C 
BRANCH  20  21
ATOM     21  C   UNL     1      32.930 -13.758 -20.699  0.00  0.00    +0.025 C 
BRANCH  21  22
ATOM     22  C   UNL     1      34.033 -13.809 -21.751  0.00  0.00    -0.074 C 
BRANCH  22  23
ATOM     23  N   UNL     1      33.758 -14.858 -22.721  0.00  0.00    +0.387 N 
ATOM     24  C   UNL     1      33.473 -14.327 -24.053  0.00  0.00    -0.077 C 
ATOM     25  C   UNL     1      34.896 -15.758 -22.907  0.00  0.00    -0.077 C 
ATOM     26  C   UNL     1      33.610 -15.550 -24.946  0.00  0.00    -0.025 C 
ATOM     27  C   UNL     1      34.543 -16.494 -24.191  0.00  0.00    -0.025 C 
ATOM     28  H   UNL     1      32.953 -15.349 -22.333  0.00  0.00    -0.080 HD
ENDBRANCH  22  23
ENDBRANCH  21  22
ENDBRANCH  20  21
ENDBRANCH  19  20
ENDBRANCH  13  19
ENDBRANCH   2  14
BRANCH   8  32
ATOM     29  F   UNL     1      35.994  -5.299 -26.585  0.00  0.00    -0.166 F 
ATOM     30  F   UNL     1      35.900  -6.264 -24.644  0.00  0.00    -0.166 F 
ATOM     31  F   UNL     1      34.637  -6.969 -26.269  0.00  0.00    -0.166 F 
ATOM     32  C   UNL     1      35.123  -5.838 -25.682  0.00  0.00    +0.416 C 
ENDBRANCH   8  32
TORSDOF 7
ENDMDL
MODEL 9
REMARK VINA RESULT:      -9.2      7.338      9.147
REMARK  Name = 11697697
REMARK  7 active torsions:
REMARK  status: ('A' for Active; 'I' for Inactive)
REMARK    1  A    between atoms: N_2  and  C_14
REMARK    2  A    between atoms: C_8  and  C_32
REMARK    3  A    between atoms: C_13  and  O_19
REMARK    4  A    between atoms: O_19  and  C_20
REMARK    5  A    between atoms: C_20  and  C_21
REMARK    6  A    between atoms: C_21  and  C_22
REMARK    7  A    between atoms: C_22  and  N_23
REMARK                            x       y       z     vdW  Elec       q    Type
REMARK                         _______ _______ _______ _____ _____    ______ ____
ROOT
ATOM      1  O   UNL     1      33.092 -24.467 -13.924  0.00  0.00    -0.273 OA
ATOM      2  N   UNL     1      33.662 -23.557 -16.021  0.00  0.00    -0.215 N 
ATOM      3  N   UNL     1      31.923 -22.768 -17.441  0.00  0.00    -0.394 NA
ATOM      4  C   UNL     1      31.342 -23.751 -15.281  0.00  0.00    +0.156 C 
ATOM      5  C   UNL     1      32.776 -23.983 -15.008  0.00  0.00    +0.245 C 
ATOM      6  C   UNL     1      33.178 -22.998 -17.207  0.00  0.00    +0.170 C 
ATOM      7  C   UNL     1      30.978 -23.132 -16.476  0.00  0.00    +0.123 C 
ATOM      8  C   UNL     1      30.369 -24.125 -14.345  0.00  0.00    +0.064 C 
ATOM      9  C   UNL     1      29.623 -22.887 -16.728  0.00  0.00    +0.028 C 
ATOM     10  C   UNL     1      29.023 -23.876 -14.608  0.00  0.00    +0.001 C 
ATOM     11  C   UNL     1      34.130 -22.675 -18.340  0.00  0.00    +0.084 C 
ATOM     12  C   UNL     1      28.650 -23.256 -15.799  0.00  0.00    +0.002 C 
ENDROOT
BRANCH   2  14
ATOM     13  C   UNL     1      37.787 -23.930 -15.244  0.00  0.00    +0.139 C 
ATOM     14  C   UNL     1      35.068 -23.683 -15.755  0.00  0.00    +0.060 C 
ATOM     15  C   UNL     1      36.949 -25.036 -15.109  0.00  0.00    +0.038 C 
ATOM     16  C   UNL     1      37.259 -22.698 -15.636  0.00  0.00    +0.038 C 
ATOM     17  C   UNL     1      35.584 -24.913 -15.365  0.00  0.00    +0.018 C 
ATOM     18  C   UNL     1      35.894 -22.576 -15.892  0.00  0.00    +0.018 C 
BRANCH  13  19
ATOM     19  O   UNL     1      39.120 -24.050 -14.993  0.00  0.00    -0.476 OA
BRANCH  19  20
ATOM     20  C   UNL     1      39.591 -25.334 -14.587  0.00  0.00    +0.203 C 
BRANCH  20  21
ATOM     21  C   UNL     1      39.638 -25.381 -13.065  0.00  0.00    +0.025 C 
BRANCH  21  22
ATOM     22  C   UNL     1      38.466 -26.171 -12.493  0.00  0.00    -0.074 C 
BRANCH  22  23
ATOM     23  N   UNL     1      37.716 -25.352 -11.552  0.00  0.00    +0.387 N 
ATOM     24  C   UNL     1      38.029 -23.930 -11.676  0.00  0.00    -0.077 C 
ATOM     25  C   UNL     1      36.271 -25.443 -11.764  0.00  0.00    -0.077 C 
ATOM     26  C   UNL     1      36.891 -23.262 -10.918  0.00  0.00    -0.025 C 
ATOM     27  C   UNL     1      35.736 -24.258 -10.972  0.00  0.00    -0.025 C 
ATOM     28  H   UNL     1      37.983 -25.717 -10.639  0.00  0.00    -0.080 HD
ENDBRANCH  22  23
ENDBRANCH  21  22
ENDBRANCH  20  21
ENDBRANCH  19  20
ENDBRANCH  13  19
ENDBRANCH   2  14
BRANCH   8  32
ATOM     29  F   UNL     1      29.599 -25.393 -12.468  0.00  0.00    -0.166 F 
ATOM     30  F   UNL     1      31.625 -25.769 -13.146  0.00  0.00    -0.166 F 
ATOM     31  F   UNL     1      31.154 -23.916 -12.109  0.00  0.00    -0.166 F 
ATOM     32  C   UNL     1      30.680 -24.790 -13.043  0.00  0.00    +0.416 C 
ENDBRANCH   8  32
TORSDOF 7
ENDMDL
