MODEL 1
REMARK VINA RESULT:     -12.2      0.000      0.000
REMARK  Name = 11691242
REMARK  5 active torsions:
REMARK  status: ('A' for Active; 'I' for Inactive)
REMARK    1  A    between atoms: N_1  and  C_25
REMARK    2  A    between atoms: C_5  and  N_11
REMARK    3  A    between atoms: N_12  and  C_17
REMARK    4  A    between atoms: C_18  and  O_23
REMARK    5  A    between atoms: C_25  and  C_28
REMARK                            x       y       z     vdW  Elec       q    Type
REMARK                         _______ _______ _______ _____ _____    ______ ____
ROOT
ATOM      1  N   UNL     1      35.233 -16.886 -22.108  0.00  0.00    -0.282 N 
ATOM      2  C   UNL     1      34.590 -16.150 -23.077  0.00  0.00    +0.053 C 
ATOM      3  C   UNL     1      33.966 -15.078 -22.433  0.00  0.00    +0.028 C 
ATOM      4  C   UNL     1      35.038 -16.320 -20.877  0.00  0.00    +0.066 C 
ATOM      5  C   UNL     1      33.229 -14.158 -23.204  0.00  0.00    +0.053 C 
ATOM      6  C   UNL     1      34.258 -15.199 -21.044  0.00  0.00    +0.019 C 
ATOM      7  C   UNL     1      34.512 -16.347 -24.460  0.00  0.00    +0.015 C 
ATOM      8  C   UNL     1      33.143 -14.343 -24.589  0.00  0.00    +0.015 C 
ATOM      9  C   UNL     1      33.775 -15.421 -25.205  0.00  0.00    +0.003 C 
ENDROOT
BRANCH   5  11
ATOM     10  O   UNL     1      33.851 -11.240 -23.346  0.00  0.00    -0.252 OA
ATOM     11  N   UNL     1      32.586 -13.071 -22.611  0.00  0.00    -0.268 N 
ATOM     12  N   UNL     1      32.002 -10.938 -21.947  0.00  0.00    -0.266 N 
ATOM     13  C   UNL     1      32.911 -11.696 -22.702  0.00  0.00    +0.308 C 
ATOM     14  H   UNL     1      31.803 -13.288 -22.055  0.00  0.00    +0.156 HD
ATOM     15  H   UNL     1      31.298 -11.445 -21.482  0.00  0.00    +0.157 HD
BRANCH  12  17
ATOM     16 BR   UNL     1      31.505  -6.226 -24.232  0.00  0.00    -0.049 Br
ATOM     17  C   UNL     1      31.973  -9.533 -21.773  0.00  0.00    +0.086 C 
ATOM     18  C   UNL     1      32.130  -8.989 -20.507  0.00  0.00    +0.152 C 
ATOM     19  C   UNL     1      31.784  -8.728 -22.884  0.00  0.00    +0.024 C 
ATOM     20  C   UNL     1      32.099  -7.604 -20.351  0.00  0.00    +0.039 C 
ATOM     21  C   UNL     1      31.754  -7.342 -22.728  0.00  0.00    +0.036 C 
ATOM     22  C   UNL     1      31.910  -6.780 -21.461  0.00  0.00    +0.010 C 
BRANCH  18  23
ATOM     23  O   UNL     1      32.317  -9.777 -19.411  0.00  0.00    -0.470 OA
ATOM     24  C   UNL     1      31.174 -10.036 -18.597  0.00  0.00    +0.253 C 
ENDBRANCH  18  23
ENDBRANCH  12  17
ENDBRANCH   5  11
BRANCH   1  25
ATOM     25  C   UNL     1      36.003 -18.089 -22.340  0.00  0.00    +0.122 C 
BRANCH  25  28
ATOM     26  N   UNL     1      35.052 -21.136 -19.479  0.00  0.00    -0.230 NA
ATOM     27  N   UNL     1      32.756 -20.976 -20.095  0.00  0.00    -0.343 N 
ATOM     28  C   UNL     1      35.669 -19.158 -21.335  0.00  0.00    +0.002 C 
ATOM     29  C   UNL     1      34.356 -19.569 -21.184  0.00  0.00    +0.031 C 
ATOM     30  C   UNL     1      36.678 -19.719 -20.574  0.00  0.00    +0.018 C 
ATOM     31  C   UNL     1      34.101 -20.557 -20.247  0.00  0.00    +0.125 C 
ATOM     32  C   UNL     1      36.319 -20.701 -19.664  0.00  0.00    +0.100 C 
ATOM     33  H   UNL     1      32.530 -21.676 -19.441  0.00  0.00    +0.144 HD
ATOM     34  H   UNL     1      32.048 -20.568 -20.645  0.00  0.00    +0.144 HD
ENDBRANCH  25  28
ENDBRANCH   1  25
TORSDOF 5
ENDMDL
MODEL 2
REMARK VINA RESULT:     -11.5      0.789      1.348
REMARK  Name = 11691242
REMARK  5 active torsions:
REMARK  status: ('A' for Active; 'I' for Inactive)
REMARK    1  A    between atoms: N_1  and  C_25
REMARK    2  A    between atoms: C_5  and  N_11
REMARK    3  A    between atoms: N_12  and  C_17
REMARK    4  A    between atoms: C_18  and  O_23
REMARK    5  A    between atoms: C_25  and  C_28
REMARK                            x       y       z     vdW  Elec       q    Type
REMARK                         _______ _______ _______ _____ _____    ______ ____
ROOT
ATOM      1  N   UNL     1      35.358 -17.140 -21.863  0.00  0.00    -0.282 N 
ATOM      2  C   UNL     1      34.768 -16.509 -22.934  0.00  0.00    +0.053 C 
ATOM      3  C   UNL     1      34.122 -15.374 -22.438  0.00  0.00    +0.028 C 
ATOM      4  C   UNL     1      35.108 -16.446 -20.710  0.00  0.00    +0.066 C 
ATOM      5  C   UNL     1      33.429 -14.540 -23.338  0.00  0.00    +0.053 C 
ATOM      6  C   UNL     1      34.344 -15.348 -21.033  0.00  0.00    +0.019 C 
ATOM      7  C   UNL     1      34.756 -16.852 -24.291  0.00  0.00    +0.015 C 
ATOM      8  C   UNL     1      33.409 -14.870 -24.698  0.00  0.00    +0.015 C 
ATOM      9  C   UNL     1      34.063 -16.008 -25.165  0.00  0.00    +0.003 C 
ENDROOT
BRANCH   5  11
ATOM     10  O   UNL     1      34.168 -11.659 -23.612  0.00  0.00    -0.252 OA
ATOM     11  N   UNL     1      32.767 -13.394 -22.895  0.00  0.00    -0.268 N 
ATOM     12  N   UNL     1      32.192 -11.203 -22.448  0.00  0.00    -0.266 N 
ATOM     13  C   UNL     1      33.149 -12.039 -23.044  0.00  0.00    +0.308 C 
ATOM     14  H   UNL     1      31.920 -13.548 -22.415  0.00  0.00    +0.156 HD
ATOM     15  H   UNL     1      31.424 -11.654 -22.029  0.00  0.00    +0.157 HD
BRANCH  12  17
ATOM     16 BR   UNL     1      33.039  -6.665 -24.970  0.00  0.00    -0.049 Br
ATOM     17  C   UNL     1      32.195  -9.789 -22.375  0.00  0.00    +0.086 C 
ATOM     18  C   UNL     1      31.850  -9.156 -21.191  0.00  0.00    +0.152 C 
ATOM     19  C   UNL     1      32.547  -9.065 -23.503  0.00  0.00    +0.024 C 
ATOM     20  C   UNL     1      31.857  -7.763 -21.135  0.00  0.00    +0.039 C 
ATOM     21  C   UNL     1      32.555  -7.671 -23.446  0.00  0.00    +0.036 C 
ATOM     22  C   UNL     1      32.209  -7.020 -22.262  0.00  0.00    +0.010 C 
BRANCH  18  23
ATOM     23  O   UNL     1      31.504  -9.864 -20.079  0.00  0.00    -0.470 OA
ATOM     24  C   UNL     1      31.643  -9.205 -18.822  0.00  0.00    +0.253 C 
ENDBRANCH  18  23
ENDBRANCH  12  17
ENDBRANCH   5  11
BRANCH   1  25
ATOM     25  C   UNL     1      36.130 -18.363 -21.928  0.00  0.00    +0.122 C 
BRANCH  25  28
ATOM     26  N   UNL     1      34.393 -21.439 -19.501  0.00  0.00    -0.230 NA
ATOM     27  N   UNL     1      36.535 -21.885 -18.559  0.00  0.00    -0.343 N 
ATOM     28  C   UNL     1      35.521 -19.443 -21.076  0.00  0.00    +0.002 C 
ATOM     29  C   UNL     1      36.322 -20.165 -20.210  0.00  0.00    +0.031 C 
ATOM     30  C   UNL     1      34.166 -19.703 -21.169  0.00  0.00    +0.018 C 
ATOM     31  C   UNL     1      35.712 -21.148 -19.447  0.00  0.00    +0.125 C 
ATOM     32  C   UNL     1      33.652 -20.706 -20.363  0.00  0.00    +0.100 C 
ATOM     33  H   UNL     1      36.144 -22.592 -17.998  0.00  0.00    +0.144 HD
ATOM     34  H   UNL     1      37.499 -21.688 -18.503  0.00  0.00    +0.144 HD
ENDBRANCH  25  28
ENDBRANCH   1  25
TORSDOF 5
ENDMDL
MODEL 3
REMARK VINA RESULT:     -10.9      6.953     12.454
REMARK  Name = 11691242
REMARK  5 active torsions:
REMARK  status: ('A' for Active; 'I' for Inactive)
REMARK    1  A    between atoms: N_1  and  C_25
REMARK    2  A    between atoms: C_5  and  N_11
REMARK    3  A    between atoms: N_12  and  C_17
REMARK    4  A    between atoms: C_18  and  O_23
REMARK    5  A    between atoms: C_25  and  C_28
REMARK                            x       y       z     vdW  Elec       q    Type
REMARK                         _______ _______ _______ _____ _____    ______ ____
ROOT
ATOM      1  N   UNL     1      35.893 -19.211 -21.377  0.00  0.00    -0.282 N 
ATOM      2  C   UNL     1      35.178 -20.104 -20.612  0.00  0.00    +0.053 C 
ATOM      3  C   UNL     1      36.057 -20.629 -19.663  0.00  0.00    +0.028 C 
ATOM      4  C   UNL     1      37.191 -19.153 -20.945  0.00  0.00    +0.066 C 
ATOM      5  C   UNL     1      35.574 -21.581 -18.743  0.00  0.00    +0.053 C 
ATOM      6  C   UNL     1      37.324 -20.020 -19.886  0.00  0.00    +0.019 C 
ATOM      7  C   UNL     1      33.833 -20.484 -20.687  0.00  0.00    +0.015 C 
ATOM      8  C   UNL     1      34.231 -21.971 -18.806  0.00  0.00    +0.015 C 
ATOM      9  C   UNL     1      33.376 -21.430 -19.763  0.00  0.00    +0.003 C 
ENDROOT
BRANCH   5  11
ATOM     10  O   UNL     1      34.905 -22.929 -16.163  0.00  0.00    -0.252 OA
ATOM     11  N   UNL     1      36.410 -22.137 -17.774  0.00  0.00    -0.268 N 
ATOM     12  N   UNL     1      37.211 -23.186 -15.879  0.00  0.00    -0.266 N 
ATOM     13  C   UNL     1      36.055 -22.771 -16.559  0.00  0.00    +0.308 C 
ATOM     14  H   UNL     1      37.376 -22.082 -17.960  0.00  0.00    +0.156 HD
ATOM     15  H   UNL     1      38.068 -22.989 -16.323  0.00  0.00    +0.157 HD
BRANCH  12  17
ATOM     16 BR   UNL     1      34.886 -24.254 -11.283  0.00  0.00    -0.049 Br
ATOM     17  C   UNL     1      37.297 -23.856 -14.635  0.00  0.00    +0.086 C 
ATOM     18  C   UNL     1      38.423 -24.604 -14.328  0.00  0.00    +0.152 C 
ATOM     19  C   UNL     1      36.241 -23.745 -13.745  0.00  0.00    +0.024 C 
ATOM     20  C   UNL     1      38.493 -25.258 -13.099  0.00  0.00    +0.039 C 
ATOM     21  C   UNL     1      36.312 -24.399 -12.515  0.00  0.00    +0.036 C 
ATOM     22  C   UNL     1      37.438 -25.156 -12.192  0.00  0.00    +0.010 C 
BRANCH  18  23
ATOM     23  O   UNL     1      39.464 -24.716 -15.200  0.00  0.00    -0.470 OA
ATOM     24  C   UNL     1      40.424 -25.738 -14.936  0.00  0.00    +0.253 C 
ENDBRANCH  18  23
ENDBRANCH  12  17
ENDBRANCH   5  11
BRANCH   1  25
ATOM     25  C   UNL     1      35.366 -18.440 -22.482  0.00  0.00    +0.122 C 
BRANCH  25  28
ATOM     26  N   UNL     1      34.369 -14.451 -21.274  0.00  0.00    -0.230 NA
ATOM     27  N   UNL     1      34.291 -13.792 -23.562  0.00  0.00    -0.343 N 
ATOM     28  C   UNL     1      35.017 -17.039 -22.059  0.00  0.00    +0.002 C 
ATOM     29  C   UNL     1      34.817 -16.063 -23.018  0.00  0.00    +0.031 C 
ATOM     30  C   UNL     1      34.899 -16.742 -20.713  0.00  0.00    +0.018 C 
ATOM     31  C   UNL     1      34.496 -14.789 -22.576  0.00  0.00    +0.125 C 
ATOM     32  C   UNL     1      34.574 -15.438 -20.374  0.00  0.00    +0.100 C 
ATOM     33  H   UNL     1      34.061 -12.874 -23.292  0.00  0.00    +0.144 HD
ATOM     34  H   UNL     1      34.377 -14.019 -24.516  0.00  0.00    +0.144 HD
ENDBRANCH  25  28
ENDBRANCH   1  25
TORSDOF 5
ENDMDL
MODEL 4
REMARK VINA RESULT:     -10.4      6.800     11.912
REMARK  Name = 11691242
REMARK  5 active torsions:
REMARK  status: ('A' for Active; 'I' for Inactive)
REMARK    1  A    between atoms: N_1  and  C_25
REMARK    2  A    between atoms: C_5  and  N_11
REMARK    3  A    between atoms: N_12  and  C_17
REMARK    4  A    between atoms: C_18  and  O_23
REMARK    5  A    between atoms: C_25  and  C_28
REMARK                            x       y       z     vdW  Elec       q    Type
REMARK                         _______ _______ _______ _____ _____    ______ ____
ROOT
ATOM      1  N   UNL     1      35.801 -18.967 -22.226  0.00  0.00    -0.282 N 
ATOM      2  C   UNL     1      35.055 -19.727 -21.355  0.00  0.00    +0.053 C 
ATOM      3  C   UNL     1      35.902 -20.104 -20.309  0.00  0.00    +0.028 C 
ATOM      4  C   UNL     1      37.087 -18.850 -21.770  0.00  0.00    +0.066 C 
ATOM      5  C   UNL     1      35.384 -20.898 -19.268  0.00  0.00    +0.053 C 
ATOM      6  C   UNL     1      37.181 -19.544 -20.586  0.00  0.00    +0.019 C 
ATOM      7  C   UNL     1      33.710 -20.107 -21.409  0.00  0.00    +0.015 C 
ATOM      8  C   UNL     1      34.039 -21.286 -19.310  0.00  0.00    +0.015 C 
ATOM      9  C   UNL     1      33.217 -20.895 -20.365  0.00  0.00    +0.003 C 
ENDROOT
BRANCH   5  11
ATOM     10  O   UNL     1      35.084 -23.209 -17.398  0.00  0.00    -0.252 OA
ATOM     11  N   UNL     1      36.186 -21.303 -18.200  0.00  0.00    -0.268 N 
ATOM     12  N   UNL     1      37.053 -22.448 -16.392  0.00  0.00    -0.266 N 
ATOM     13  C   UNL     1      36.012 -22.408 -17.333  0.00  0.00    +0.308 C 
ATOM     14  H   UNL     1      36.979 -20.745 -18.026  0.00  0.00    +0.156 HD
ATOM     15  H   UNL     1      37.728 -21.736 -16.464  0.00  0.00    +0.157 HD
BRANCH  12  17
ATOM     16 BR   UNL     1      40.263 -26.015 -14.236  0.00  0.00    -0.049 Br
ATOM     17  C   UNL     1      37.253 -23.388 -15.353  0.00  0.00    +0.086 C 
ATOM     18  C   UNL     1      36.268 -23.583 -14.397  0.00  0.00    +0.152 C 
ATOM     19  C   UNL     1      38.441 -24.099 -15.317  0.00  0.00    +0.024 C 
ATOM     20  C   UNL     1      36.479 -24.512 -13.379  0.00  0.00    +0.039 C 
ATOM     21  C   UNL     1      38.652 -25.030 -14.299  0.00  0.00    +0.036 C 
ATOM     22  C   UNL     1      37.670 -25.235 -13.330  0.00  0.00    +0.010 C 
BRANCH  18  23
ATOM     23  O   UNL     1      35.097 -22.887 -14.429  0.00  0.00    -0.470 OA
ATOM     24  C   UNL     1      33.890 -23.648 -14.426  0.00  0.00    +0.253 C 
ENDBRANCH  18  23
ENDBRANCH  12  17
ENDBRANCH   5  11
BRANCH   1  25
ATOM     25  C   UNL     1      35.314 -18.374 -23.453  0.00  0.00    +0.122 C 
BRANCH  25  28
ATOM     26  N   UNL     1      33.938 -14.365 -22.818  0.00  0.00    -0.230 NA
ATOM     27  N   UNL     1      34.593 -14.518 -20.532  0.00  0.00    -0.343 N 
ATOM     28  C   UNL     1      34.831 -16.967 -23.229  0.00  0.00    +0.002 C 
ATOM     29  C   UNL     1      34.938 -16.397 -21.973  0.00  0.00    +0.031 C 
ATOM     30  C   UNL     1      34.284 -16.257 -24.283  0.00  0.00    +0.018 C 
ATOM     31  C   UNL     1      34.480 -15.099 -21.820  0.00  0.00    +0.125 C 
ATOM     32  C   UNL     1      33.854 -14.965 -24.026  0.00  0.00    +0.100 C 
ATOM     33  H   UNL     1      34.280 -13.598 -20.379  0.00  0.00    +0.144 HD
ATOM     34  H   UNL     1      34.986 -15.035 -19.792  0.00  0.00    +0.144 HD
ENDBRANCH  25  28
ENDBRANCH   1  25
TORSDOF 5
ENDMDL
MODEL 5
REMARK VINA RESULT:     -10.0      6.906     11.726
REMARK  Name = 11691242
REMARK  5 active torsions:
REMARK  status: ('A' for Active; 'I' for Inactive)
REMARK    1  A    between atoms: N_1  and  C_25
REMARK    2  A    between atoms: C_5  and  N_11
REMARK    3  A    between atoms: N_12  and  C_17
REMARK    4  A    between atoms: C_18  and  O_23
REMARK    5  A    between atoms: C_25  and  C_28
REMARK                            x       y       z     vdW  Elec       q    Type
REMARK                         _______ _______ _______ _____ _____    ______ ____
ROOT
ATOM      1  N   UNL     1      34.859 -19.511 -21.669  0.00  0.00    -0.282 N 
ATOM      2  C   UNL     1      35.157 -20.356 -20.625  0.00  0.00    +0.053 C 
ATOM      3  C   UNL     1      33.945 -20.850 -20.137  0.00  0.00    +0.028 C 
ATOM      4  C   UNL     1      33.505 -19.452 -21.858  0.00  0.00    +0.066 C 
ATOM      5  C   UNL     1      33.965 -21.749 -19.052  0.00  0.00    +0.053 C 
ATOM      6  C   UNL     1      32.911 -20.269 -20.924  0.00  0.00    +0.019 C 
ATOM      7  C   UNL     1      36.394 -20.719 -20.080  0.00  0.00    +0.015 C 
ATOM      8  C   UNL     1      35.196 -22.121 -18.497  0.00  0.00    +0.015 C 
ATOM      9  C   UNL     1      36.390 -21.613 -19.004  0.00  0.00    +0.003 C 
ENDROOT
BRANCH   5  11
ATOM     10  O   UNL     1      33.460 -23.134 -16.455  0.00  0.00    -0.252 OA
ATOM     11  N   UNL     1      32.784 -22.272 -18.526  0.00  0.00    -0.268 N 
ATOM     12  N   UNL     1      31.233 -23.292 -17.152  0.00  0.00    -0.266 N 
ATOM     13  C   UNL     1      32.581 -22.924 -17.286  0.00  0.00    +0.308 C 
ATOM     14  H   UNL     1      31.984 -22.174 -19.092  0.00  0.00    +0.156 HD
ATOM     15  H   UNL     1      30.644 -23.056 -17.904  0.00  0.00    +0.157 HD
BRANCH  12  17
ATOM     16 BR   UNL     1      31.857 -25.562 -12.448  0.00  0.00    -0.049 Br
ATOM     17  C   UNL     1      30.616 -23.961 -16.068  0.00  0.00    +0.086 C 
ATOM     18  C   UNL     1      29.253 -24.212 -16.095  0.00  0.00    +0.152 C 
ATOM     19  C   UNL     1      31.400 -24.353 -14.994  0.00  0.00    +0.024 C 
ATOM     20  C   UNL     1      28.659 -24.872 -15.020  0.00  0.00    +0.039 C 
ATOM     21  C   UNL     1      30.805 -25.013 -13.919  0.00  0.00    +0.036 C 
ATOM     22  C   UNL     1      29.435 -25.272 -13.931  0.00  0.00    +0.010 C 
BRANCH  18  23
ATOM     23  O   UNL     1      28.479 -23.830 -17.149  0.00  0.00    -0.470 OA
ATOM     24  C   UNL     1      27.439 -22.891 -16.883  0.00  0.00    +0.253 C 
ENDBRANCH  18  23
ENDBRANCH  12  17
ENDBRANCH   5  11
BRANCH   1  25
ATOM     25  C   UNL     1      35.825 -18.778 -22.460  0.00  0.00    +0.122 C 
BRANCH  25  28
ATOM     26  N   UNL     1      34.188 -15.097 -23.921  0.00  0.00    -0.230 NA
ATOM     27  N   UNL     1      34.528 -14.113 -21.778  0.00  0.00    -0.343 N 
ATOM     28  C   UNL     1      35.250 -17.486 -22.972  0.00  0.00    +0.002 C 
ATOM     29  C   UNL     1      35.157 -16.395 -22.126  0.00  0.00    +0.031 C 
ATOM     30  C   UNL     1      34.821 -17.402 -24.284  0.00  0.00    +0.018 C 
ATOM     31  C   UNL     1      34.621 -15.228 -22.647  0.00  0.00    +0.125 C 
ATOM     32  C   UNL     1      34.300 -16.190 -24.708  0.00  0.00    +0.100 C 
ATOM     33  H   UNL     1      34.154 -13.264 -22.106  0.00  0.00    +0.144 HD
ATOM     34  H   UNL     1      34.838 -14.187 -20.846  0.00  0.00    +0.144 HD
ENDBRANCH  25  28
ENDBRANCH   1  25
TORSDOF 5
ENDMDL
MODEL 6
REMARK VINA RESULT:      -9.8      3.094      5.888
REMARK  Name = 11691242
REMARK  5 active torsions:
REMARK  status: ('A' for Active; 'I' for Inactive)
REMARK    1  A    between atoms: N_1  and  C_25
REMARK    2  A    between atoms: C_5  and  N_11
REMARK    3  A    between atoms: N_12  and  C_17
REMARK    4  A    between atoms: C_18  and  O_23
REMARK    5  A    between atoms: C_25  and  C_28
REMARK                            x       y       z     vdW  Elec       q    Type
REMARK                         _______ _______ _______ _____ _____    ______ ____
ROOT
ATOM      1  N   UNL     1      34.356 -21.762 -19.500  0.00  0.00    -0.282 N 
ATOM      2  C   UNL     1      35.305 -20.866 -19.935  0.00  0.00    +0.053 C 
ATOM      3  C   UNL     1      34.631 -19.852 -20.620  0.00  0.00    +0.028 C 
ATOM      4  C   UNL     1      33.108 -21.352 -19.885  0.00  0.00    +0.066 C 
ATOM      5  C   UNL     1      35.378 -18.795 -21.176  0.00  0.00    +0.053 C 
ATOM      6  C   UNL     1      33.244 -20.173 -20.581  0.00  0.00    +0.019 C 
ATOM      7  C   UNL     1      36.695 -20.873 -19.777  0.00  0.00    +0.015 C 
ATOM      8  C   UNL     1      36.770 -18.790 -21.026  0.00  0.00    +0.015 C 
ATOM      9  C   UNL     1      37.416 -19.813 -20.336  0.00  0.00    +0.003 C 
ENDROOT
BRANCH   5  11
ATOM     10  O   UNL     1      34.931 -15.947 -20.393  0.00  0.00    -0.252 OA
ATOM     11  N   UNL     1      34.754 -17.758 -21.870  0.00  0.00    -0.268 N 
ATOM     12  N   UNL     1      33.884 -15.704 -22.470  0.00  0.00    -0.266 N 
ATOM     13  C   UNL     1      34.560 -16.415 -21.466  0.00  0.00    +0.308 C 
ATOM     14  H   UNL     1      34.402 -17.990 -22.760  0.00  0.00    +0.156 HD
ATOM     15  H   UNL     1      33.650 -16.216 -23.278  0.00  0.00    +0.157 HD
BRANCH  12  17
ATOM     16 BR   UNL     1      31.845 -11.717 -19.711  0.00  0.00    -0.049 Br
ATOM     17  C   UNL     1      33.497 -14.343 -22.465  0.00  0.00    +0.086 C 
ATOM     18  C   UNL     1      33.654 -13.574 -23.607  0.00  0.00    +0.152 C 
ATOM     19  C   UNL     1      32.965 -13.807 -21.303  0.00  0.00    +0.024 C 
ATOM     20  C   UNL     1      33.269 -12.234 -23.587  0.00  0.00    +0.039 C 
ATOM     21  C   UNL     1      32.579 -12.466 -21.283  0.00  0.00    +0.036 C 
ATOM     22  C   UNL     1      32.732 -11.680 -22.425  0.00  0.00    +0.010 C 
BRANCH  18  23
ATOM     23  O   UNL     1      34.176 -14.097 -24.752  0.00  0.00    -0.470 OA
ATOM     24  C   UNL     1      33.326 -14.125 -25.898  0.00  0.00    +0.253 C 
ENDBRANCH  18  23
ENDBRANCH  12  17
ENDBRANCH   5  11
BRANCH   1  25
ATOM     25  C   UNL     1      34.621 -22.969 -18.747  0.00  0.00    +0.122 C 
BRANCH  25  28
ATOM     26  N   UNL     1      32.255 -23.145 -15.178  0.00  0.00    -0.230 NA
ATOM     27  N   UNL     1      30.282 -22.903 -16.491  0.00  0.00    -0.343 N 
ATOM     28  C   UNL     1      33.790 -23.030 -17.494  0.00  0.00    +0.002 C 
ATOM     29  C   UNL     1      32.413 -22.936 -17.581  0.00  0.00    +0.031 C 
ATOM     30  C   UNL     1      34.413 -23.180 -16.268  0.00  0.00    +0.018 C 
ATOM     31  C   UNL     1      31.693 -22.999 -16.399  0.00  0.00    +0.125 C 
ATOM     32  C   UNL     1      33.604 -23.232 -15.144  0.00  0.00    +0.100 C 
ATOM     33  H   UNL     1      29.732 -22.944 -15.676  0.00  0.00    +0.144 HD
ATOM     34  H   UNL     1      29.853 -22.798 -17.371  0.00  0.00    +0.144 HD
ENDBRANCH  25  28
ENDBRANCH   1  25
TORSDOF 5
ENDMDL
MODEL 7
REMARK VINA RESULT:      -9.7      2.054      2.932
REMARK  Name = 11691242
REMARK  5 active torsions:
REMARK  status: ('A' for Active; 'I' for Inactive)
REMARK    1  A    between atoms: N_1  and  C_25
REMARK    2  A    between atoms: C_5  and  N_11
REMARK    3  A    between atoms: N_12  and  C_17
REMARK    4  A    between atoms: C_18  and  O_23
REMARK    5  A    between atoms: C_25  and  C_28
REMARK                            x       y       z     vdW  Elec       q    Type
REMARK                         _______ _______ _______ _____ _____    ______ ____
ROOT
ATOM      1  N   UNL     1      35.379 -18.123 -21.868  0.00  0.00    -0.282 N 
ATOM      2  C   UNL     1      34.783 -17.598 -22.992  0.00  0.00    +0.053 C 
ATOM      3  C   UNL     1      34.617 -16.229 -22.769  0.00  0.00    +0.028 C 
ATOM      4  C   UNL     1      35.595 -17.136 -20.944  0.00  0.00    +0.066 C 
ATOM      5  C   UNL     1      34.021 -15.444 -23.775  0.00  0.00    +0.053 C 
ATOM      6  C   UNL     1      35.133 -15.953 -21.471  0.00  0.00    +0.019 C 
ATOM      7  C   UNL     1      34.383 -18.223 -24.178  0.00  0.00    +0.015 C 
ATOM      8  C   UNL     1      33.615 -16.056 -24.967  0.00  0.00    +0.015 C 
ATOM      9  C   UNL     1      33.794 -17.424 -25.164  0.00  0.00    +0.003 C 
ENDROOT
BRANCH   5  11
ATOM     10  O   UNL     1      32.437 -13.960 -21.724  0.00  0.00    -0.252 OA
ATOM     11  N   UNL     1      33.831 -14.073 -23.604  0.00  0.00    -0.268 N 
ATOM     12  N   UNL     1      33.149 -12.015 -22.809  0.00  0.00    -0.266 N 
ATOM     13  C   UNL     1      33.070 -13.403 -22.615  0.00  0.00    +0.308 C 
ATOM     14  H   UNL     1      34.287 -13.493 -24.256  0.00  0.00    +0.156 HD
ATOM     15  H   UNL     1      33.697 -11.715 -23.569  0.00  0.00    +0.157 HD
BRANCH  12  17
ATOM     16 BR   UNL     1      31.484 -10.459 -18.067  0.00  0.00    -0.049 Br
ATOM     17  C   UNL     1      32.537 -10.993 -22.044  0.00  0.00    +0.086 C 
ATOM     18  C   UNL     1      32.135  -9.816 -22.657  0.00  0.00    +0.152 C 
ATOM     19  C   UNL     1      32.353 -11.196 -20.686  0.00  0.00    +0.024 C 
ATOM     20  C   UNL     1      31.534  -8.818 -21.891  0.00  0.00    +0.039 C 
ATOM     21  C   UNL     1      31.751 -10.198 -19.920  0.00  0.00    +0.036 C 
ATOM     22  C   UNL     1      31.342  -9.009 -20.522  0.00  0.00    +0.010 C 
BRANCH  18  23
ATOM     23  O   UNL     1      32.313  -9.611 -23.992  0.00  0.00    -0.470 OA
ATOM     24  C   UNL     1      31.923  -8.341 -24.511  0.00  0.00    +0.253 C 
ENDBRANCH  18  23
ENDBRANCH  12  17
ENDBRANCH   5  11
BRANCH   1  25
ATOM     25  C   UNL     1      35.730 -19.513 -21.674  0.00  0.00    +0.122 C 
BRANCH  25  28
ATOM     26  N   UNL     1      32.906 -21.497 -19.133  0.00  0.00    -0.230 NA
ATOM     27  N   UNL     1      34.697 -22.650 -18.067  0.00  0.00    -0.343 N 
ATOM     28  C   UNL     1      34.739 -20.211 -20.782  0.00  0.00    +0.002 C 
ATOM     29  C   UNL     1      35.187 -21.113 -19.834  0.00  0.00    +0.031 C 
ATOM     30  C   UNL     1      33.389 -19.940 -20.919  0.00  0.00    +0.018 C 
ATOM     31  C   UNL     1      34.235 -21.727 -19.037  0.00  0.00    +0.125 C 
ATOM     32  C   UNL     1      32.517 -20.607 -20.073  0.00  0.00    +0.100 C 
ATOM     33  H   UNL     1      34.055 -23.109 -17.479  0.00  0.00    +0.144 HD
ATOM     34  H   UNL     1      35.661 -22.832 -17.980  0.00  0.00    +0.144 HD
ENDBRANCH  25  28
ENDBRANCH   1  25
TORSDOF 5
ENDMDL
MODEL 8
REMARK VINA RESULT:      -9.7      2.575      4.711
REMARK  Name = 11691242
REMARK  5 active torsions:
REMARK  status: ('A' for Active; 'I' for Inactive)
REMARK    1  A    between atoms: N_1  and  C_25
REMARK    2  A    between atoms: C_5  and  N_11
REMARK    3  A    between atoms: N_12  and  C_17
REMARK    4  A    between atoms: C_18  and  O_23
REMARK    5  A    between atoms: C_25  and  C_28
REMARK                            x       y       z     vdW  Elec       q    Type
REMARK                         _______ _______ _______ _____ _____    ______ ____
ROOT
ATOM      1  N   UNL     1      34.160 -13.800 -22.425  0.00  0.00    -0.282 N 
ATOM      2  C   UNL     1      33.153 -13.142 -21.756  0.00  0.00    +0.053 C 
ATOM      3  C   UNL     1      32.862 -11.987 -22.485  0.00  0.00    +0.028 C 
ATOM      4  C   UNL     1      34.515 -13.103 -23.548  0.00  0.00    +0.066 C 
ATOM      5  C   UNL     1      31.856 -11.122 -22.013  0.00  0.00    +0.053 C 
ATOM      6  C   UNL     1      33.731 -11.975 -23.613  0.00  0.00    +0.019 C 
ATOM      7  C   UNL     1      32.484 -13.478 -20.574  0.00  0.00    +0.015 C 
ATOM      8  C   UNL     1      31.178 -11.444 -20.831  0.00  0.00    +0.015 C 
ATOM      9  C   UNL     1      31.488 -12.604 -20.124  0.00  0.00    +0.003 C 
ENDROOT
BRANCH   5  11
ATOM     10  O   UNL     1      33.142  -8.426 -21.964  0.00  0.00    -0.252 OA
ATOM     11  N   UNL     1      31.526  -9.954 -22.702  0.00  0.00    -0.268 N 
ATOM     12  N   UNL     1      31.503  -7.790 -23.506  0.00  0.00    -0.266 N 
ATOM     13  C   UNL     1      32.161  -8.690 -22.653  0.00  0.00    +0.308 C 
ATOM     14  H   UNL     1      30.747 -10.017 -23.301  0.00  0.00    +0.156 HD
ATOM     15  H   UNL     1      30.728  -8.147 -23.997  0.00  0.00    +0.157 HD
BRANCH  12  17
ATOM     16 BR   UNL     1      31.006  -2.801 -21.914  0.00  0.00    -0.049 Br
ATOM     17  C   UNL     1      31.818  -6.431 -23.749  0.00  0.00    +0.086 C 
ATOM     18  C   UNL     1      32.586  -6.084 -24.850  0.00  0.00    +0.152 C 
ATOM     19  C   UNL     1      31.345  -5.470 -22.870  0.00  0.00    +0.024 C 
ATOM     20  C   UNL     1      32.889  -4.742 -25.076  0.00  0.00    +0.039 C 
ATOM     21  C   UNL     1      31.647  -4.128 -23.097  0.00  0.00    +0.036 C 
ATOM     22  C   UNL     1      32.419  -3.764 -24.199  0.00  0.00    +0.010 C 
BRANCH  18  23
ATOM     23  O   UNL     1      33.053  -7.025 -25.718  0.00  0.00    -0.470 OA
ATOM     24  C   UNL     1      34.217  -6.691 -26.472  0.00  0.00    +0.253 C 
ENDBRANCH  18  23
ENDBRANCH  12  17
ENDBRANCH   5  11
BRANCH   1  25
ATOM     25  C   UNL     1      34.769 -15.047 -22.013  0.00  0.00    +0.122 C 
BRANCH  25  28
ATOM     26  N   UNL     1      33.981 -18.179 -24.831  0.00  0.00    -0.230 NA
ATOM     27  N   UNL     1      34.934 -19.757 -23.321  0.00  0.00    -0.343 N 
ATOM     28  C   UNL     1      34.493 -16.147 -23.002  0.00  0.00    +0.002 C 
ATOM     29  C   UNL     1      34.848 -17.449 -22.696  0.00  0.00    +0.031 C 
ATOM     30  C   UNL     1      33.887 -15.845 -24.208  0.00  0.00    +0.018 C 
ATOM     31  C   UNL     1      34.571 -18.424 -23.639  0.00  0.00    +0.125 C 
ATOM     32  C   UNL     1      33.654 -16.892 -25.085  0.00  0.00    +0.100 C 
ATOM     33  H   UNL     1      34.756 -20.481 -23.963  0.00  0.00    +0.144 HD
ATOM     34  H   UNL     1      35.364 -19.957 -22.458  0.00  0.00    +0.144 HD
ENDBRANCH  25  28
ENDBRANCH   1  25
TORSDOF 5
ENDMDL
MODEL 9
REMARK VINA RESULT:      -9.6      2.566      4.427
REMARK  Name = 11691242
REMARK  5 active torsions:
REMARK  status: ('A' for Active; 'I' for Inactive)
REMARK    1  A    between atoms: N_1  and  C_25
REMARK    2  A    between atoms: C_5  and  N_11
REMARK    3  A    between atoms: N_12  and  C_17
REMARK    4  A    between atoms: C_18  and  O_23
REMARK    5  A    between atoms: C_25  and  C_28
REMARK                            x       y       z     vdW  Elec       q    Type
REMARK                         _______ _______ _______ _____ _____    ______ ____
ROOT
ATOM      1  N   UNL     1      34.129 -13.847 -22.432  0.00  0.00    -0.282 N 
ATOM      2  C   UNL     1      33.158 -13.120 -21.781  0.00  0.00    +0.053 C 
ATOM      3  C   UNL     1      32.862 -12.017 -22.585  0.00  0.00    +0.028 C 
ATOM      4  C   UNL     1      34.457 -13.243 -23.615  0.00  0.00    +0.066 C 
ATOM      5  C   UNL     1      31.888 -11.099 -22.146  0.00  0.00    +0.053 C 
ATOM      6  C   UNL     1      33.691 -12.107 -23.739  0.00  0.00    +0.019 C 
ATOM      7  C   UNL     1      32.524 -13.352 -20.556  0.00  0.00    +0.015 C 
ATOM      8  C   UNL     1      31.246 -11.318 -20.921  0.00  0.00    +0.015 C 
ATOM      9  C   UNL     1      31.560 -12.428 -20.140  0.00  0.00    +0.003 C 
ENDROOT
BRANCH   5  11
ATOM     10  O   UNL     1      33.389  -8.555 -22.596  0.00  0.00    -0.252 OA
ATOM     11  N   UNL     1      31.555  -9.980 -22.910  0.00  0.00    -0.268 N 
ATOM     12  N   UNL     1      31.591  -7.917 -23.948  0.00  0.00    -0.266 N 
ATOM     13  C   UNL     1      32.294  -8.787 -23.101  0.00  0.00    +0.308 C 
ATOM     14  H   UNL     1      30.690 -10.024 -23.380  0.00  0.00    +0.156 HD
ATOM     15  H   UNL     1      30.722  -8.242 -24.276  0.00  0.00    +0.157 HD
BRANCH  12  17
ATOM     16 BR   UNL     1      34.339  -5.096 -27.435  0.00  0.00    -0.049 Br
ATOM     17  C   UNL     1      31.977  -6.628 -24.388  0.00  0.00    +0.086 C 
ATOM     18  C   UNL     1      31.524  -5.502 -23.719  0.00  0.00    +0.152 C 
ATOM     19  C   UNL     1      32.809  -6.524 -25.491  0.00  0.00    +0.024 C 
ATOM     20  C   UNL     1      31.913  -4.240 -24.165  0.00  0.00    +0.039 C 
ATOM     21  C   UNL     1      33.199  -5.260 -25.937  0.00  0.00    +0.036 C 
ATOM     22  C   UNL     1      32.750  -4.119 -25.274  0.00  0.00    +0.010 C 
BRANCH  18  23
ATOM     23  O   UNL     1      30.706  -5.600 -22.633  0.00  0.00    -0.470 OA
ATOM     24  C   UNL     1      31.325  -5.547 -21.348  0.00  0.00    +0.253 C 
ENDBRANCH  18  23
ENDBRANCH  12  17
ENDBRANCH   5  11
BRANCH   1  25
ATOM     25  C   UNL     1      34.730 -15.071 -21.947  0.00  0.00    +0.122 C 
BRANCH  25  28
ATOM     26  N   UNL     1      34.129 -18.303 -24.695  0.00  0.00    -0.230 NA
ATOM     27  N   UNL     1      35.011 -19.819 -23.083  0.00  0.00    -0.343 N 
ATOM     28  C   UNL     1      34.520 -16.206 -22.911  0.00  0.00    +0.002 C 
ATOM     29  C   UNL     1      34.868 -17.493 -22.542  0.00  0.00    +0.031 C 
ATOM     30  C   UNL     1      33.979 -15.951 -24.159  0.00  0.00    +0.018 C 
ATOM     31  C   UNL     1      34.654 -18.503 -23.465  0.00  0.00    +0.125 C 
ATOM     32  C   UNL     1      33.804 -17.030 -25.011  0.00  0.00    +0.100 C 
ATOM     33  H   UNL     1      34.875 -20.567 -23.708  0.00  0.00    +0.144 HD
ATOM     34  H   UNL     1      35.394 -19.986 -22.191  0.00  0.00    +0.144 HD
ENDBRANCH  25  28
ENDBRANCH   1  25
TORSDOF 5
ENDMDL
