MODEL 1
REMARK VINA RESULT:     -12.9      0.000      0.000
REMARK  Name = 9808844
REMARK  5 active torsions:
REMARK  status: ('A' for Active; 'I' for Inactive)
REMARK    1  A    between atoms: N_2  and  C_13
REMARK    2  A    between atoms: C_8  and  O_19
REMARK    3  A    between atoms: O_19  and  C_20
REMARK    4  A    between atoms: C_20  and  C_22
REMARK    5  A    between atoms: C_25  and  C_29
REMARK                            x       y       z     vdW  Elec       q    Type
REMARK                         _______ _______ _______ _____ _____    ______ ____
ROOT
ATOM      1  O   UNL     1      35.456 -23.117 -16.902  0.00  0.00    -0.446 OA
ATOM      2  N   UNL     1      35.640 -19.984 -20.394  0.00  0.00    -0.296 N 
ATOM      3  N   UNL     1      33.607 -21.145 -19.914  0.00  0.00    -0.130 NA
ATOM      4  N   UNL     1      32.855 -22.058 -19.184  0.00  0.00    -0.106 NA
ATOM      5  C   UNL     1      35.503 -21.617 -18.590  0.00  0.00    +0.076 A 
ATOM      6  C   UNL     1      34.723 -22.521 -17.883  0.00  0.00    +0.202 A 
ATOM      7  C   UNL     1      34.911 -20.916 -19.635  0.00  0.00    +0.157 A 
ATOM      8  C   UNL     1      33.394 -22.756 -18.165  0.00  0.00    +0.279 A 
ATOM      9  C   UNL     1      36.791 -21.672 -17.995  0.00  0.00    +0.047 C 
ATOM     10  C   UNL     1      36.708 -22.595 -16.977  0.00  0.00    +0.180 C 
ATOM     11  H   UNL     1      36.578 -19.893 -20.111  0.00  0.00    +0.154 HD
ENDROOT
BRANCH   2  13
ATOM     12 CL   UNL     1      34.195 -16.499 -24.957  0.00  0.00    -0.082 Cl
ATOM     13  C   UNL     1      35.296 -19.154 -21.482  0.00  0.00    +0.049 C 
ATOM     14  C   UNL     1      34.775 -19.713 -22.648  0.00  0.00    +0.016 C 
ATOM     15  C   UNL     1      35.476 -17.774 -21.389  0.00  0.00    +0.016 C 
ATOM     16  C   UNL     1      34.434 -18.892 -23.723  0.00  0.00    +0.013 C 
ATOM     17  C   UNL     1      35.135 -16.953 -22.464  0.00  0.00    +0.013 C 
ATOM     18  C   UNL     1      34.614 -17.512 -23.630  0.00  0.00    +0.058 C 
ENDBRANCH   2  13
BRANCH   8  19
ATOM     19  O   UNL     1      32.616 -23.647 -17.473  0.00  0.00    -0.452 OA
BRANCH  19  20
ATOM     20  C   UNL     1      31.728 -23.103 -16.503  0.00  0.00    +0.234 C 
BRANCH  20  22
ATOM     21  N   UNL     1      32.245 -25.205 -12.803  0.00  0.00    -0.239 NA
ATOM     22  C   UNL     1      31.910 -23.839 -15.207  0.00  0.00    +0.024 C 
ATOM     23  C   UNL     1      33.119 -23.764 -14.536  0.00  0.00    +0.023 C 
ATOM     24  C   UNL     1      30.866 -24.590 -14.691  0.00  0.00    +0.020 C 
ATOM     25  C   UNL     1      33.235 -24.461 -13.344  0.00  0.00    +0.134 C 
ATOM     26  C   UNL     1      31.083 -25.251 -13.492  0.00  0.00    +0.099 C 
BRANCH  25  29
ATOM     27  O   UNL     1      34.625 -25.132 -11.579  0.00  0.00    -0.268 OA
ATOM     28  N   UNL     1      35.487 -23.580 -13.070  0.00  0.00    -0.298 N 
ATOM     29  C   UNL     1      34.476 -24.423 -12.591  0.00  0.00    +0.264 C 
ATOM     30  C   UNL     1      36.784 -23.451 -12.446  0.00  0.00    +0.111 C 
ATOM     31  H   UNL     1      35.304 -23.046 -13.876  0.00  0.00    +0.150 HD
ENDBRANCH  25  29
ENDBRANCH  20  22
ENDBRANCH  19  20
ENDBRANCH   8  19
TORSDOF 5
ENDMDL
MODEL 2
REMARK VINA RESULT:     -12.3      2.396      3.785
REMARK  Name = 9808844
REMARK  5 active torsions:
REMARK  status: ('A' for Active; 'I' for Inactive)
REMARK    1  A    between atoms: N_2  and  C_13
REMARK    2  A    between atoms: C_8  and  O_19
REMARK    3  A    between atoms: O_19  and  C_20
REMARK    4  A    between atoms: C_20  and  C_22
REMARK    5  A    between atoms: C_25  and  C_29
REMARK                            x       y       z     vdW  Elec       q    Type
REMARK                         _______ _______ _______ _____ _____    ______ ____
ROOT
ATOM      1  O   UNL     1      35.480 -22.686 -17.989  0.00  0.00    -0.446 OA
ATOM      2  N   UNL     1      35.484 -19.366 -21.308  0.00  0.00    -0.296 N 
ATOM      3  N   UNL     1      33.430 -20.338 -20.569  0.00  0.00    -0.130 NA
ATOM      4  N   UNL     1      32.700 -21.215 -19.775  0.00  0.00    -0.106 NA
ATOM      5  C   UNL     1      35.439 -21.091 -19.588  0.00  0.00    +0.076 A 
ATOM      6  C   UNL     1      34.679 -21.954 -18.811  0.00  0.00    +0.202 A 
ATOM      7  C   UNL     1      34.778 -20.265 -20.490  0.00  0.00    +0.157 A 
ATOM      8  C   UNL     1      33.304 -22.031 -18.890  0.00  0.00    +0.279 A 
ATOM      9  C   UNL     1      36.788 -21.319 -19.208  0.00  0.00    +0.047 C 
ATOM     10  C   UNL     1      36.758 -22.293 -18.236  0.00  0.00    +0.180 C 
ATOM     11  H   UNL     1      36.458 -19.391 -21.173  0.00  0.00    +0.154 HD
ENDROOT
BRANCH   2  13
ATOM     12 CL   UNL     1      33.764 -15.455 -25.407  0.00  0.00    -0.082 Cl
ATOM     13  C   UNL     1      35.074 -18.434 -22.285  0.00  0.00    +0.049 C 
ATOM     14  C   UNL     1      34.528 -18.880 -23.488  0.00  0.00    +0.016 C 
ATOM     15  C   UNL     1      35.214 -17.067 -22.047  0.00  0.00    +0.016 C 
ATOM     16  C   UNL     1      34.123 -17.959 -24.454  0.00  0.00    +0.013 C 
ATOM     17  C   UNL     1      34.809 -16.146 -23.012  0.00  0.00    +0.013 C 
ATOM     18  C   UNL     1      34.263 -16.592 -24.215  0.00  0.00    +0.058 C 
ENDBRANCH   2  13
BRANCH   8  19
ATOM     19  O   UNL     1      32.545 -22.880 -18.129  0.00  0.00    -0.452 OA
BRANCH  19  20
ATOM     20  C   UNL     1      32.874 -22.967 -16.747  0.00  0.00    +0.234 C 
BRANCH  20  22
ATOM     21  N   UNL     1      29.472 -24.434 -14.590  0.00  0.00    -0.239 NA
ATOM     22  C   UNL     1      31.681 -23.480 -15.992  0.00  0.00    +0.024 C 
ATOM     23  C   UNL     1      30.404 -23.195 -16.445  0.00  0.00    +0.023 C 
ATOM     24  C   UNL     1      31.867 -24.237 -14.845  0.00  0.00    +0.020 C 
ATOM     25  C   UNL     1      29.338 -23.693 -15.713  0.00  0.00    +0.134 C 
ATOM     26  C   UNL     1      30.736 -24.687 -14.184  0.00  0.00    +0.099 C 
BRANCH  25  29
ATOM     27  O   UNL     1      27.482 -24.037 -17.105  0.00  0.00    -0.268 OA
ATOM     28  N   UNL     1      27.246 -22.494 -15.390  0.00  0.00    -0.298 N 
ATOM     29  C   UNL     1      27.974 -23.430 -16.135  0.00  0.00    +0.264 C 
ATOM     30  C   UNL     1      25.872 -22.143 -15.670  0.00  0.00    +0.111 C 
ATOM     31  H   UNL     1      27.694 -22.051 -14.635  0.00  0.00    +0.150 HD
ENDBRANCH  25  29
ENDBRANCH  20  22
ENDBRANCH  19  20
ENDBRANCH   8  19
TORSDOF 5
ENDMDL
MODEL 3
REMARK VINA RESULT:     -11.3      7.682     12.180
REMARK  Name = 9808844
REMARK  5 active torsions:
REMARK  status: ('A' for Active; 'I' for Inactive)
REMARK    1  A    between atoms: N_2  and  C_13
REMARK    2  A    between atoms: C_8  and  O_19
REMARK    3  A    between atoms: O_19  and  C_20
REMARK    4  A    between atoms: C_20  and  C_22
REMARK    5  A    between atoms: C_25  and  C_29
REMARK                            x       y       z     vdW  Elec       q    Type
REMARK                         _______ _______ _______ _____ _____    ______ ____
ROOT
ATOM      1  O   UNL     1      33.373 -13.749 -24.672  0.00  0.00    -0.446 OA
ATOM      2  N   UNL     1      34.939 -17.710 -22.698  0.00  0.00    -0.296 N 
ATOM      3  N   UNL     1      34.441 -15.799 -21.352  0.00  0.00    -0.130 NA
ATOM      4  N   UNL     1      34.014 -14.487 -21.189  0.00  0.00    -0.106 NA
ATOM      5  C   UNL     1      34.124 -15.636 -23.684  0.00  0.00    +0.076 A 
ATOM      6  C   UNL     1      33.702 -14.328 -23.485  0.00  0.00    +0.202 A 
ATOM      7  C   UNL     1      34.502 -16.380 -22.571  0.00  0.00    +0.157 A 
ATOM      8  C   UNL     1      33.640 -13.734 -22.242  0.00  0.00    +0.279 A 
ATOM      9  C   UNL     1      34.043 -15.858 -25.084  0.00  0.00    +0.047 C 
ATOM     10  C   UNL     1      33.582 -14.684 -25.636  0.00  0.00    +0.180 C 
ATOM     11  H   UNL     1      34.946 -18.036 -23.626  0.00  0.00    +0.154 HD
ENDROOT
BRANCH   2  13
ATOM     12 CL   UNL     1      36.746 -21.742 -18.756  0.00  0.00    -0.082 Cl
ATOM     13  C   UNL     1      35.370 -18.671 -21.758  0.00  0.00    +0.049 C 
ATOM     14  C   UNL     1      34.478 -19.634 -21.288  0.00  0.00    +0.016 C 
ATOM     15  C   UNL     1      36.688 -18.657 -21.302  0.00  0.00    +0.016 C 
ATOM     16  C   UNL     1      34.903 -20.583 -20.359  0.00  0.00    +0.013 C 
ATOM     17  C   UNL     1      37.113 -19.607 -20.373  0.00  0.00    +0.013 C 
ATOM     18  C   UNL     1      36.221 -20.570 -19.903  0.00  0.00    +0.058 C 
ENDBRANCH   2  13
BRANCH   8  19
ATOM     19  O   UNL     1      33.226 -12.445 -22.036  0.00  0.00    -0.452 OA
BRANCH  19  20
ATOM     20  C   UNL     1      31.914 -12.269 -21.514  0.00  0.00    +0.234 C 
BRANCH  20  22
ATOM     21  N   UNL     1      31.883  -8.846 -18.935  0.00  0.00    -0.239 NA
ATOM     22  C   UNL     1      31.903 -11.069 -20.611  0.00  0.00    +0.024 C 
ATOM     23  C   UNL     1      31.957  -9.797 -21.155  0.00  0.00    +0.023 C 
ATOM     24  C   UNL     1      31.840 -11.243 -19.237  0.00  0.00    +0.020 C 
ATOM     25  C   UNL     1      31.943  -8.724 -20.279  0.00  0.00    +0.134 C 
ATOM     26  C   UNL     1      31.832 -10.106 -18.447  0.00  0.00    +0.099 C 
BRANCH  25  29
ATOM     27  O   UNL     1      32.693  -6.502 -20.217  0.00  0.00    -0.268 OA
ATOM     28  N   UNL     1      31.256  -7.085 -21.941  0.00  0.00    -0.298 N 
ATOM     29  C   UNL     1      31.997  -7.364 -20.786  0.00  0.00    +0.264 C 
ATOM     30  C   UNL     1      31.227  -5.788 -22.579  0.00  0.00    +0.111 C 
ATOM     31  H   UNL     1      30.728  -7.812 -22.342  0.00  0.00    +0.150 HD
ENDBRANCH  25  29
ENDBRANCH  20  22
ENDBRANCH  19  20
ENDBRANCH   8  19
TORSDOF 5
ENDMDL
MODEL 4
REMARK VINA RESULT:     -11.2      7.092     10.741
REMARK  Name = 9808844
REMARK  5 active torsions:
REMARK  status: ('A' for Active; 'I' for Inactive)
REMARK    1  A    between atoms: N_2  and  C_13
REMARK    2  A    between atoms: C_8  and  O_19
REMARK    3  A    between atoms: O_19  and  C_20
REMARK    4  A    between atoms: C_20  and  C_22
REMARK    5  A    between atoms: C_25  and  C_29
REMARK                            x       y       z     vdW  Elec       q    Type
REMARK                         _______ _______ _______ _____ _____    ______ ____
ROOT
ATOM      1  O   UNL     1      32.513 -14.335 -21.046  0.00  0.00    -0.446 OA
ATOM      2  N   UNL     1      32.322  -9.791 -22.210  0.00  0.00    -0.296 N 
ATOM      3  N   UNL     1      33.153 -11.406 -23.763  0.00  0.00    -0.130 NA
ATOM      4  N   UNL     1      33.478 -12.707 -24.129  0.00  0.00    -0.106 NA
ATOM      5  C   UNL     1      32.437 -12.158 -21.645  0.00  0.00    +0.076 A 
ATOM      6  C   UNL     1      32.773 -13.445 -22.043  0.00  0.00    +0.202 A 
ATOM      7  C   UNL     1      32.640 -11.118 -22.546  0.00  0.00    +0.157 A 
ATOM      8  C   UNL     1      33.296 -13.740 -23.284  0.00  0.00    +0.279 A 
ATOM      9  C   UNL     1      31.941 -12.283 -20.320  0.00  0.00    +0.047 C 
ATOM     10  C   UNL     1      32.007 -13.621 -20.006  0.00  0.00    +0.180 C 
ATOM     11  H   UNL     1      31.956  -9.690 -21.302  0.00  0.00    +0.154 HD
ENDROOT
BRANCH   2  13
ATOM     12 CL   UNL     1      32.745  -4.682 -25.173  0.00  0.00    -0.082 Cl
ATOM     13  C   UNL     1      32.423  -8.573 -22.917  0.00  0.00    +0.049 C 
ATOM     14  C   UNL     1      33.527  -7.743 -22.721  0.00  0.00    +0.016 C 
ATOM     15  C   UNL     1      31.419  -8.201 -23.810  0.00  0.00    +0.016 C 
ATOM     16  C   UNL     1      33.626  -6.540 -23.419  0.00  0.00    +0.013 C 
ATOM     17  C   UNL     1      31.519  -6.997 -24.508  0.00  0.00    +0.013 C 
ATOM     18  C   UNL     1      32.622  -6.168 -24.312  0.00  0.00    +0.058 C 
ENDBRANCH   2  13
BRANCH   8  19
ATOM     19  O   UNL     1      33.632 -15.006 -23.686  0.00  0.00    -0.452 OA
BRANCH  19  20
ATOM     20  C   UNL     1      34.939 -15.459 -23.351  0.00  0.00    +0.234 C 
BRANCH  20  22
ATOM     21  N   UNL     1      34.844 -19.708 -22.798  0.00  0.00    -0.239 NA
ATOM     22  C   UNL     1      34.906 -16.947 -23.156  0.00  0.00    +0.024 C 
ATOM     23  C   UNL     1      35.495 -17.509 -22.036  0.00  0.00    +0.023 C 
ATOM     24  C   UNL     1      34.287 -17.751 -24.102  0.00  0.00    +0.020 C 
ATOM     25  C   UNL     1      35.436 -18.887 -21.903  0.00  0.00    +0.134 C 
ATOM     26  C   UNL     1      34.284 -19.118 -23.877  0.00  0.00    +0.099 C 
BRANCH  25  29
ATOM     27  O   UNL     1      37.055 -19.068 -20.215  0.00  0.00    -0.268 OA
ATOM     28  N   UNL     1      35.396 -20.687 -20.266  0.00  0.00    -0.298 N 
ATOM     29  C   UNL     1      36.033 -19.538 -20.750  0.00  0.00    +0.264 C 
ATOM     30  C   UNL     1      35.853 -21.431 -19.115  0.00  0.00    +0.111 C 
ATOM     31  H   UNL     1      34.591 -21.005 -20.735  0.00  0.00    +0.150 HD
ENDBRANCH  25  29
ENDBRANCH  20  22
ENDBRANCH  19  20
ENDBRANCH   8  19
TORSDOF 5
ENDMDL
MODEL 5
REMARK VINA RESULT:     -11.1      6.156     11.140
REMARK  Name = 9808844
REMARK  5 active torsions:
REMARK  status: ('A' for Active; 'I' for Inactive)
REMARK    1  A    between atoms: N_2  and  C_13
REMARK    2  A    between atoms: C_8  and  O_19
REMARK    3  A    between atoms: O_19  and  C_20
REMARK    4  A    between atoms: C_20  and  C_22
REMARK    5  A    between atoms: C_25  and  C_29
REMARK                            x       y       z     vdW  Elec       q    Type
REMARK                         _______ _______ _______ _____ _____    ______ ____
ROOT
ATOM      1  O   UNL     1      34.314 -17.139 -24.412  0.00  0.00    -0.446 OA
ATOM      2  N   UNL     1      34.870 -20.450 -21.131  0.00  0.00    -0.296 N 
ATOM      3  N   UNL     1      35.227 -18.147 -20.601  0.00  0.00    -0.130 NA
ATOM      4  N   UNL     1      35.264 -16.799 -20.938  0.00  0.00    -0.106 NA
ATOM      5  C   UNL     1      34.591 -18.701 -22.805  0.00  0.00    +0.076 A 
ATOM      6  C   UNL     1      34.639 -17.347 -23.107  0.00  0.00    +0.202 A 
ATOM      7  C   UNL     1      34.898 -19.096 -21.507  0.00  0.00    +0.157 A 
ATOM      8  C   UNL     1      34.974 -16.378 -22.185  0.00  0.00    +0.279 A 
ATOM      9  C   UNL     1      34.212 -19.351 -24.009  0.00  0.00    +0.047 C 
ATOM     10  C   UNL     1      34.056 -18.360 -24.951  0.00  0.00    +0.180 C 
ATOM     11  H   UNL     1      34.620 -21.057 -21.863  0.00  0.00    +0.154 HD
ENDROOT
BRANCH   2  13
ATOM     12 CL   UNL     1      35.958 -23.227 -16.016  0.00  0.00    -0.082 Cl
ATOM     13  C   UNL     1      35.130 -21.112 -19.912  0.00  0.00    +0.049 C 
ATOM     14  C   UNL     1      36.410 -21.079 -19.360  0.00  0.00    +0.016 C 
ATOM     15  C   UNL     1      34.105 -21.797 -19.259  0.00  0.00    +0.016 C 
ATOM     16  C   UNL     1      36.666 -21.733 -18.155  0.00  0.00    +0.013 C 
ATOM     17  C   UNL     1      34.361 -22.451 -18.054  0.00  0.00    +0.013 C 
ATOM     18  C   UNL     1      35.641 -22.419 -17.502  0.00  0.00    +0.058 C 
ENDBRANCH   2  13
BRANCH   8  19
ATOM     19  O   UNL     1      35.024 -15.040 -22.473  0.00  0.00    -0.452 OA
BRANCH  19  20
ATOM     20  C   UNL     1      33.953 -14.511 -23.247  0.00  0.00    +0.234 C 
BRANCH  20  22
ATOM     21  N   UNL     1      31.851 -11.596 -20.910  0.00  0.00    -0.239 NA
ATOM     22  C   UNL     1      33.217 -13.489 -22.429  0.00  0.00    +0.024 C 
ATOM     23  C   UNL     1      33.024 -12.213 -22.931  0.00  0.00    +0.023 C 
ATOM     24  C   UNL     1      32.736 -13.830 -21.174  0.00  0.00    +0.020 C 
ATOM     25  C   UNL     1      32.338 -11.308 -22.138  0.00  0.00    +0.134 C 
ATOM     26  C   UNL     1      32.063 -12.853 -20.459  0.00  0.00    +0.099 C 
BRANCH  25  29
ATOM     27  O   UNL     1      32.325  -9.646 -23.792  0.00  0.00    -0.268 OA
ATOM     28  N   UNL     1      31.593  -9.038 -21.678  0.00  0.00    -0.298 N 
ATOM     29  C   UNL     1      32.101  -9.954 -22.607  0.00  0.00    +0.264 C 
ATOM     30  C   UNL     1      31.284  -7.663 -21.997  0.00  0.00    +0.111 C 
ATOM     31  H   UNL     1      31.438  -9.347 -20.756  0.00  0.00    +0.150 HD
ENDBRANCH  25  29
ENDBRANCH  20  22
ENDBRANCH  19  20
ENDBRANCH   8  19
TORSDOF 5
ENDMDL
MODEL 6
REMARK VINA RESULT:     -10.9      4.577     10.125
REMARK  Name = 9808844
REMARK  5 active torsions:
REMARK  status: ('A' for Active; 'I' for Inactive)
REMARK    1  A    between atoms: N_2  and  C_13
REMARK    2  A    between atoms: C_8  and  O_19
REMARK    3  A    between atoms: O_19  and  C_20
REMARK    4  A    between atoms: C_20  and  C_22
REMARK    5  A    between atoms: C_25  and  C_29
REMARK                            x       y       z     vdW  Elec       q    Type
REMARK                         _______ _______ _______ _____ _____    ______ ____
ROOT
ATOM      1  O   UNL     1      33.556 -20.498 -20.657  0.00  0.00    -0.446 OA
ATOM      2  N   UNL     1      34.894 -22.923 -16.866  0.00  0.00    -0.296 N 
ATOM      3  N   UNL     1      36.513 -21.809 -18.226  0.00  0.00    -0.130 NA
ATOM      4  N   UNL     1      36.874 -21.025 -19.315  0.00  0.00    -0.106 NA
ATOM      5  C   UNL     1      34.241 -21.654 -18.841  0.00  0.00    +0.076 A 
ATOM      6  C   UNL     1      34.637 -20.874 -19.919  0.00  0.00    +0.202 A 
ATOM      7  C   UNL     1      35.223 -22.128 -17.978  0.00  0.00    +0.157 A 
ATOM      8  C   UNL     1      35.952 -20.547 -20.173  0.00  0.00    +0.279 A 
ATOM      9  C   UNL     1      32.828 -21.754 -18.937  0.00  0.00    +0.047 C 
ATOM     10  C   UNL     1      32.464 -21.036 -20.053  0.00  0.00    +0.180 C 
ATOM     11  H   UNL     1      33.930 -23.096 -16.777  0.00  0.00    +0.154 HD
ENDROOT
BRANCH   2  13
ATOM     12 CL   UNL     1      38.158 -25.433 -12.612  0.00  0.00    -0.082 Cl
ATOM     13  C   UNL     1      35.673 -23.521 -15.852  0.00  0.00    +0.049 C 
ATOM     14  C   UNL     1      35.158 -24.590 -15.118  0.00  0.00    +0.016 C 
ATOM     15  C   UNL     1      36.956 -23.044 -15.585  0.00  0.00    +0.016 C 
ATOM     16  C   UNL     1      35.927 -25.181 -14.116  0.00  0.00    +0.013 C 
ATOM     17  C   UNL     1      37.724 -23.636 -14.583  0.00  0.00    +0.013 C 
ATOM     18  C   UNL     1      37.210 -24.704 -13.849  0.00  0.00    +0.058 C 
ENDBRANCH   2  13
BRANCH   8  19
ATOM     19  O   UNL     1      36.353 -19.779 -21.235  0.00  0.00    -0.452 OA
BRANCH  19  20
ATOM     20  C   UNL     1      35.882 -18.437 -21.268  0.00  0.00    +0.234 C 
BRANCH  20  22
ATOM     21  N   UNL     1      33.772 -17.789 -24.942  0.00  0.00    -0.239 NA
ATOM     22  C   UNL     1      35.143 -18.209 -22.554  0.00  0.00    +0.024 C 
ATOM     23  C   UNL     1      34.898 -16.917 -22.989  0.00  0.00    +0.023 C 
ATOM     24  C   UNL     1      34.710 -19.295 -23.300  0.00  0.00    +0.020 C 
ATOM     25  C   UNL     1      34.213 -16.761 -24.183  0.00  0.00    +0.134 C 
ATOM     26  C   UNL     1      34.033 -19.032 -24.480  0.00  0.00    +0.099 C 
BRANCH  25  29
ATOM     27  O   UNL     1      33.684 -15.257 -25.903  0.00  0.00    -0.268 OA
ATOM     28  N   UNL     1      33.908 -14.383 -23.768  0.00  0.00    -0.298 N 
ATOM     29  C   UNL     1      33.925 -15.433 -24.695  0.00  0.00    +0.264 C 
ATOM     30  C   UNL     1      33.614 -13.012 -24.117  0.00  0.00    +0.111 C 
ATOM     31  H   UNL     1      34.106 -14.591 -22.826  0.00  0.00    +0.150 HD
ENDBRANCH  25  29
ENDBRANCH  20  22
ENDBRANCH  19  20
ENDBRANCH   8  19
TORSDOF 5
ENDMDL
MODEL 7
REMARK VINA RESULT:     -10.9      1.444      3.468
REMARK  Name = 9808844
REMARK  5 active torsions:
REMARK  status: ('A' for Active; 'I' for Inactive)
REMARK    1  A    between atoms: N_2  and  C_13
REMARK    2  A    between atoms: C_8  and  O_19
REMARK    3  A    between atoms: O_19  and  C_20
REMARK    4  A    between atoms: C_20  and  C_22
REMARK    5  A    between atoms: C_25  and  C_29
REMARK                            x       y       z     vdW  Elec       q    Type
REMARK                         _______ _______ _______ _____ _____    ______ ____
ROOT
ATOM      1  O   UNL     1      34.688 -23.236 -17.517  0.00  0.00    -0.446 OA
ATOM      2  N   UNL     1      34.125 -20.164 -21.023  0.00  0.00    -0.296 N 
ATOM      3  N   UNL     1      36.216 -20.327 -19.878  0.00  0.00    -0.130 NA
ATOM      4  N   UNL     1      37.049 -20.876 -18.910  0.00  0.00    -0.106 NA
ATOM      5  C   UNL     1      34.458 -21.746 -19.199  0.00  0.00    +0.076 A 
ATOM      6  C   UNL     1      35.317 -22.271 -18.244  0.00  0.00    +0.202 A 
ATOM      7  C   UNL     1      34.939 -20.742 -20.034  0.00  0.00    +0.157 A 
ATOM      8  C   UNL     1      36.620 -21.849 -18.083  0.00  0.00    +0.279 A 
ATOM      9  C   UNL     1      33.230 -22.440 -19.036  0.00  0.00    +0.047 C 
ATOM     10  C   UNL     1      33.423 -23.332 -18.006  0.00  0.00    +0.180 C 
ATOM     11  H   UNL     1      33.215 -20.538 -21.053  0.00  0.00    +0.154 HD
ENDROOT
BRANCH   2  13
ATOM     12 CL   UNL     1      35.082 -15.933 -25.052  0.00  0.00    -0.082 Cl
ATOM     13  C   UNL     1      34.353 -19.156 -21.984  0.00  0.00    +0.049 C 
ATOM     14  C   UNL     1      34.883 -17.927 -21.591  0.00  0.00    +0.016 C 
ATOM     15  C   UNL     1      34.049 -19.389 -23.325  0.00  0.00    +0.016 C 
ATOM     16  C   UNL     1      35.109 -16.930 -22.540  0.00  0.00    +0.013 C 
ATOM     17  C   UNL     1      34.275 -18.392 -24.274  0.00  0.00    +0.013 C 
ATOM     18  C   UNL     1      34.805 -17.163 -23.881  0.00  0.00    +0.058 C 
ENDBRANCH   2  13
BRANCH   8  19
ATOM     19  O   UNL     1      37.475 -22.361 -17.143  0.00  0.00    -0.452 OA
BRANCH  19  20
ATOM     20  C   UNL     1      37.250 -21.970 -15.793  0.00  0.00    +0.234 C 
BRANCH  20  22
ATOM     21  N   UNL     1      36.688 -25.481 -13.400  0.00  0.00    -0.239 NA
ATOM     22  C   UNL     1      37.052 -23.199 -14.955  0.00  0.00    +0.024 C 
ATOM     23  C   UNL     1      35.837 -23.418 -14.328  0.00  0.00    +0.023 C 
ATOM     24  C   UNL     1      38.089 -24.109 -14.813  0.00  0.00    +0.020 C 
ATOM     25  C   UNL     1      35.706 -24.568 -13.566  0.00  0.00    +0.134 C 
ATOM     26  C   UNL     1      37.857 -25.228 -14.030  0.00  0.00    +0.099 C 
BRANCH  25  29
ATOM     27  O   UNL     1      34.411 -24.905 -11.640  0.00  0.00    -0.268 OA
ATOM     28  N   UNL     1      33.323 -25.046 -13.682  0.00  0.00    -0.298 N 
ATOM     29  C   UNL     1      34.457 -24.855 -12.883  0.00  0.00    +0.264 C 
ATOM     30  C   UNL     1      32.006 -25.316 -13.152  0.00  0.00    +0.111 C 
ATOM     31  H   UNL     1      33.428 -24.993 -14.659  0.00  0.00    +0.150 HD
ENDBRANCH  25  29
ENDBRANCH  20  22
ENDBRANCH  19  20
ENDBRANCH   8  19
TORSDOF 5
ENDMDL
MODEL 8
REMARK VINA RESULT:     -10.9      1.667      2.961
REMARK  Name = 9808844
REMARK  5 active torsions:
REMARK  status: ('A' for Active; 'I' for Inactive)
REMARK    1  A    between atoms: N_2  and  C_13
REMARK    2  A    between atoms: C_8  and  O_19
REMARK    3  A    between atoms: O_19  and  C_20
REMARK    4  A    between atoms: C_20  and  C_22
REMARK    5  A    between atoms: C_25  and  C_29
REMARK                            x       y       z     vdW  Elec       q    Type
REMARK                         _______ _______ _______ _____ _____    ______ ____
ROOT
ATOM      1  O   UNL     1      35.641 -22.425 -18.409  0.00  0.00    -0.446 OA
ATOM      2  N   UNL     1      35.507 -18.938 -21.550  0.00  0.00    -0.296 N 
ATOM      3  N   UNL     1      33.505 -20.083 -20.924  0.00  0.00    -0.130 NA
ATOM      4  N   UNL     1      32.815 -21.048 -20.199  0.00  0.00    -0.106 NA
ATOM      5  C   UNL     1      35.535 -20.753 -19.924  0.00  0.00    +0.076 A 
ATOM      6  C   UNL     1      34.814 -21.705 -19.216  0.00  0.00    +0.202 A 
ATOM      7  C   UNL     1      34.843 -19.925 -20.801  0.00  0.00    +0.157 A 
ATOM      8  C   UNL     1      33.450 -21.868 -19.340  0.00  0.00    +0.279 A 
ATOM      9  C   UNL     1      36.885 -20.910 -19.515  0.00  0.00    +0.047 C 
ATOM     10  C   UNL     1      36.895 -21.935 -18.597  0.00  0.00    +0.180 C 
ATOM     11  H   UNL     1      36.477 -18.906 -21.387  0.00  0.00    +0.154 HD
ENDROOT
BRANCH   2  13
ATOM     12 CL   UNL     1      33.634 -14.937 -25.491  0.00  0.00    -0.082 Cl
ATOM     13  C   UNL     1      35.061 -17.984 -22.490  0.00  0.00    +0.049 C 
ATOM     14  C   UNL     1      35.095 -16.627 -22.174  0.00  0.00    +0.016 C 
ATOM     15  C   UNL     1      34.586 -18.400 -23.734  0.00  0.00    +0.016 C 
ATOM     16  C   UNL     1      34.653 -15.684 -23.102  0.00  0.00    +0.013 C 
ATOM     17  C   UNL     1      34.145 -17.458 -24.662  0.00  0.00    +0.013 C 
ATOM     18  C   UNL     1      34.179 -16.100 -24.346  0.00  0.00    +0.058 C 
ENDBRANCH   2  13
BRANCH   8  19
ATOM     19  O   UNL     1      32.731 -22.806 -18.647  0.00  0.00    -0.452 OA
BRANCH  19  20
ATOM     20  C   UNL     1      31.992 -22.342 -17.522  0.00  0.00    +0.234 C 
BRANCH  20  22
ATOM     21  N   UNL     1      33.029 -24.708 -14.101  0.00  0.00    -0.239 NA
ATOM     22  C   UNL     1      32.354 -23.171 -16.324  0.00  0.00    +0.024 C 
ATOM     23  C   UNL     1      31.358 -23.792 -15.589  0.00  0.00    +0.023 C 
ATOM     24  C   UNL     1      33.685 -23.309 -15.960  0.00  0.00    +0.020 C 
ATOM     25  C   UNL     1      31.745 -24.546 -14.493  0.00  0.00    +0.134 C 
ATOM     26  C   UNL     1      33.968 -24.084 -14.847  0.00  0.00    +0.099 C 
BRANCH  25  29
ATOM     27  O   UNL     1      30.878 -25.289 -12.444  0.00  0.00    -0.268 OA
ATOM     28  N   UNL     1      29.645 -25.767 -14.349  0.00  0.00    -0.298 N 
ATOM     29  C   UNL     1      30.750 -25.223 -13.681  0.00  0.00    +0.264 C 
ATOM     30  C   UNL     1      28.561 -26.448 -13.679  0.00  0.00    +0.111 C 
ATOM     31  H   UNL     1      29.605 -25.679 -15.328  0.00  0.00    +0.150 HD
ENDBRANCH  25  29
ENDBRANCH  20  22
ENDBRANCH  19  20
ENDBRANCH   8  19
TORSDOF 5
ENDMDL
MODEL 9
REMARK VINA RESULT:     -10.8      2.576      4.829
REMARK  Name = 9808844
REMARK  5 active torsions:
REMARK  status: ('A' for Active; 'I' for Inactive)
REMARK    1  A    between atoms: N_2  and  C_13
REMARK    2  A    between atoms: C_8  and  O_19
REMARK    3  A    between atoms: O_19  and  C_20
REMARK    4  A    between atoms: C_20  and  C_22
REMARK    5  A    between atoms: C_25  and  C_29
REMARK                            x       y       z     vdW  Elec       q    Type
REMARK                         _______ _______ _______ _____ _____    ______ ____
ROOT
ATOM      1  O   UNL     1      31.034 -24.545 -14.587  0.00  0.00    -0.446 OA
ATOM      2  N   UNL     1      32.510 -22.067 -18.290  0.00  0.00    -0.296 N 
ATOM      3  N   UNL     1      34.082 -23.133 -16.841  0.00  0.00    -0.130 NA
ATOM      4  N   UNL     1      34.405 -23.908 -15.734  0.00  0.00    -0.106 NA
ATOM      5  C   UNL     1      31.784 -23.362 -16.358  0.00  0.00    +0.076 A 
ATOM      6  C   UNL     1      32.143 -24.132 -15.260  0.00  0.00    +0.202 A 
ATOM      7  C   UNL     1      32.798 -22.854 -17.163  0.00  0.00    +0.157 A 
ATOM      8  C   UNL     1      33.451 -24.418 -14.931  0.00  0.00    +0.279 A 
ATOM      9  C   UNL     1      30.366 -23.308 -16.344  0.00  0.00    +0.047 C 
ATOM     10  C   UNL     1      29.961 -24.041 -15.252  0.00  0.00    +0.180 C 
ATOM     11  H   UNL     1      31.547 -21.924 -18.435  0.00  0.00    +0.154 HD
ENDROOT
BRANCH   2  13
ATOM     12 CL   UNL     1      35.931 -19.439 -22.346  0.00  0.00    -0.082 Cl
ATOM     13  C   UNL     1      33.325 -21.440 -19.257  0.00  0.00    +0.049 C 
ATOM     14  C   UNL     1      32.755 -20.591 -20.205  0.00  0.00    +0.016 C 
ATOM     15  C   UNL     1      34.701 -21.671 -19.263  0.00  0.00    +0.016 C 
ATOM     16  C   UNL     1      33.561 -19.972 -21.160  0.00  0.00    +0.013 C 
ATOM     17  C   UNL     1      35.506 -21.052 -20.218  0.00  0.00    +0.013 C 
ATOM     18  C   UNL     1      34.937 -20.202 -21.166  0.00  0.00    +0.058 C 
ENDBRANCH   2  13
BRANCH   8  19
ATOM     19  O   UNL     1      33.814 -25.176 -13.849  0.00  0.00    -0.452 OA
BRANCH  19  20
ATOM     20  C   UNL     1      34.119 -24.475 -12.649  0.00  0.00    +0.234 C 
BRANCH  20  22
ATOM     21  N   UNL     1      38.369 -24.434 -12.095  0.00  0.00    -0.239 NA
ATOM     22  C   UNL     1      35.608 -24.462 -12.455  0.00  0.00    +0.024 C 
ATOM     23  C   UNL     1      36.395 -25.398 -13.104  0.00  0.00    +0.023 C 
ATOM     24  C   UNL     1      36.185 -23.511 -11.627  0.00  0.00    +0.020 C 
ATOM     25  C   UNL     1      37.764 -25.342 -12.892  0.00  0.00    +0.134 C 
ATOM     26  C   UNL     1      37.562 -23.540 -11.481  0.00  0.00    +0.099 C 
BRANCH  25  29
ATOM     27  O   UNL     1      38.180 -27.281 -14.144  0.00  0.00    -0.268 OA
ATOM     28  N   UNL     1      40.020 -26.037 -13.480  0.00  0.00    -0.298 N 
ATOM     29  C   UNL     1      38.645 -26.295 -13.543  0.00  0.00    +0.264 C 
ATOM     30  C   UNL     1      41.021 -26.877 -14.098  0.00  0.00    +0.111 C 
ATOM     31  H   UNL     1      40.322 -25.239 -12.989  0.00  0.00    +0.150 HD
ENDBRANCH  25  29
ENDBRANCH  20  22
ENDBRANCH  19  20
ENDBRANCH   8  19
TORSDOF 5
ENDMDL
