MODEL 1
REMARK VINA RESULT:     -11.0      0.000      0.000
REMARK  Name = 68289010
REMARK  3 active torsions:
REMARK  status: ('A' for Active; 'I' for Inactive)
REMARK    1  A    between atoms: N_1  and  C_16
REMARK    2  A    between atoms: C_8  and  C_12
REMARK    3  A    between atoms: C_16  and  C_20
REMARK                            x       y       z     vdW  Elec       q    Type
REMARK                         _______ _______ _______ _____ _____    ______ ____
ROOT
ATOM      1  N   UNL     1      34.934 -17.158 -22.824  0.00  0.00    -0.165 N 
ATOM      2  N   UNL     1      34.917 -18.235 -23.635  0.00  0.00    -0.033 NA
ATOM      3  N   UNL     1      34.224 -14.825 -22.980  0.00  0.00    -0.378 NA
ATOM      4  N   UNL     1      34.362 -17.866 -24.790  0.00  0.00    -0.086 NA
ATOM      5  N   UNL     1      33.449 -15.750 -25.615  0.00  0.00    -0.208 NA
ATOM      6  C   UNL     1      34.392 -16.074 -23.439  0.00  0.00    +0.267 C 
ATOM      7  C   UNL     1      34.034 -16.546 -24.688  0.00  0.00    +0.098 C 
ATOM      8  C   UNL     1      33.640 -14.040 -23.915  0.00  0.00    +0.140 C 
ATOM      9  C   UNL     1      33.267 -14.483 -25.176  0.00  0.00    +0.195 C 
ENDROOT
BRANCH   8  12
ATOM     10  N   UNL     1      32.494 -10.909 -22.634  0.00  0.00    -0.208 N 
ATOM     11  N   UNL     1      33.589 -10.419 -23.242  0.00  0.00    -0.176 NA
ATOM     12  C   UNL     1      33.412 -12.677 -23.529  0.00  0.00    +0.064 C 
ATOM     13  C   UNL     1      32.343 -12.257 -22.776  0.00  0.00    +0.088 C 
ATOM     14  C   UNL     1      34.145 -11.503 -23.787  0.00  0.00    +0.121 C 
ATOM     15  C   UNL     1      31.613 -10.018 -21.917  0.00  0.00    +0.140 C 
ENDBRANCH   8  12
BRANCH   1  16
ATOM     16  C   UNL     1      35.508 -17.256 -21.422  0.00  0.00    +0.122 C 
ATOM     17  C   UNL     1      34.857 -16.235 -20.480  0.00  0.00    +0.028 C 
BRANCH  16  20
ATOM     18  N   UNL     1      34.269 -20.569 -20.118  0.00  0.00    -0.247 N 
ATOM     19  N   UNL     1      35.172 -22.472 -19.367  0.00  0.00    -0.227 NA
ATOM     20  C   UNL     1      35.415 -18.643 -20.874  0.00  0.00    +0.013 C 
ATOM     21  C   UNL     1      34.251 -19.274 -20.628  0.00  0.00    +0.068 C 
ATOM     22  C   UNL     1      36.661 -19.353 -20.594  0.00  0.00    +0.002 C 
ATOM     23  C   UNL     1      35.437 -21.271 -19.839  0.00  0.00    +0.139 C 
ATOM     24  C   UNL     1      36.669 -20.606 -20.100  0.00  0.00    +0.035 C 
ATOM     25  C   UNL     1      33.222 -21.393 -19.794  0.00  0.00    +0.092 C 
ATOM     26  C   UNL     1      33.802 -22.554 -19.337  0.00  0.00    +0.117 C 
ENDBRANCH  16  20
ENDBRANCH   1  16
TORSDOF 3
ENDMDL
MODEL 2
REMARK VINA RESULT:     -10.9      4.755      8.428
REMARK  Name = 68289010
REMARK  3 active torsions:
REMARK  status: ('A' for Active; 'I' for Inactive)
REMARK    1  A    between atoms: N_1  and  C_16
REMARK    2  A    between atoms: C_8  and  C_12
REMARK    3  A    between atoms: C_16  and  C_20
REMARK                            x       y       z     vdW  Elec       q    Type
REMARK                         _______ _______ _______ _____ _____    ______ ____
ROOT
ATOM      1  N   UNL     1      35.524 -22.951 -16.942  0.00  0.00    -0.165 N 
ATOM      2  N   UNL     1      34.630 -23.794 -16.388  0.00  0.00    -0.033 NA
ATOM      3  N   UNL     1      35.547 -21.404 -18.833  0.00  0.00    -0.378 NA
ATOM      4  N   UNL     1      33.502 -23.715 -17.096  0.00  0.00    -0.086 NA
ATOM      5  N   UNL     1      32.840 -22.411 -19.059  0.00  0.00    -0.208 NA
ATOM      6  C   UNL     1      34.992 -22.311 -18.016  0.00  0.00    +0.267 C 
ATOM      7  C   UNL     1      33.706 -22.811 -18.097  0.00  0.00    +0.098 C 
ATOM      8  C   UNL     1      34.672 -21.012 -19.788  0.00  0.00    +0.140 C 
ATOM      9  C   UNL     1      33.375 -21.494 -19.896  0.00  0.00    +0.195 C 
ENDROOT
BRANCH   8  12
ATOM     10  N   UNL     1      35.258 -18.662 -22.414  0.00  0.00    -0.208 N 
ATOM     11  N   UNL     1      36.464 -18.527 -21.835  0.00  0.00    -0.176 NA
ATOM     12  C   UNL     1      35.164 -20.039 -20.721  0.00  0.00    +0.064 C 
ATOM     13  C   UNL     1      34.442 -19.556 -21.784  0.00  0.00    +0.088 C 
ATOM     14  C   UNL     1      36.400 -19.370 -20.802  0.00  0.00    +0.121 C 
ATOM     15  C   UNL     1      34.939 -17.893 -23.593  0.00  0.00    +0.140 C 
ENDBRANCH   8  12
BRANCH   1  16
ATOM     16  C   UNL     1      36.918 -22.809 -16.357  0.00  0.00    +0.122 C 
ATOM     17  C   UNL     1      37.351 -21.339 -16.298  0.00  0.00    +0.028 C 
BRANCH  16  20
ATOM     18  N   UNL     1      36.388 -23.894 -12.786  0.00  0.00    -0.247 N 
ATOM     19  N   UNL     1      37.363 -25.294 -11.340  0.00  0.00    -0.227 NA
ATOM     20  C   UNL     1      37.034 -23.468 -15.021  0.00  0.00    +0.013 C 
ATOM     21  C   UNL     1      36.197 -23.229 -13.993  0.00  0.00    +0.068 C 
ATOM     22  C   UNL     1      38.118 -24.427 -14.823  0.00  0.00    +0.002 C 
ATOM     23  C   UNL     1      37.410 -24.812 -12.565  0.00  0.00    +0.139 C 
ATOM     24  C   UNL     1      38.295 -25.067 -13.650  0.00  0.00    +0.035 C 
ATOM     25  C   UNL     1      35.670 -23.810 -11.620  0.00  0.00    +0.092 C 
ATOM     26  C   UNL     1      36.288 -24.677 -10.750  0.00  0.00    +0.117 C 
ENDBRANCH  16  20
ENDBRANCH   1  16
TORSDOF 3
ENDMDL
MODEL 3
REMARK VINA RESULT:     -10.7      3.126      9.811
REMARK  Name = 68289010
REMARK  3 active torsions:
REMARK  status: ('A' for Active; 'I' for Inactive)
REMARK    1  A    between atoms: N_1  and  C_16
REMARK    2  A    between atoms: C_8  and  C_12
REMARK    3  A    between atoms: C_16  and  C_20
REMARK                            x       y       z     vdW  Elec       q    Type
REMARK                         _______ _______ _______ _____ _____    ______ ____
ROOT
ATOM      1  N   UNL     1      34.509 -20.996 -19.638  0.00  0.00    -0.165 N 
ATOM      2  N   UNL     1      33.314 -20.916 -20.258  0.00  0.00    -0.033 NA
ATOM      3  N   UNL     1      35.412 -22.186 -17.703  0.00  0.00    -0.378 NA
ATOM      4  N   UNL     1      32.461 -21.704 -19.603  0.00  0.00    -0.086 NA
ATOM      5  N   UNL     1      32.679 -23.146 -17.636  0.00  0.00    -0.208 NA
ATOM      6  C   UNL     1      34.451 -21.837 -18.572  0.00  0.00    +0.267 C 
ATOM      7  C   UNL     1      33.140 -22.277 -18.567  0.00  0.00    +0.098 C 
ATOM      8  C   UNL     1      34.938 -23.054 -16.780  0.00  0.00    +0.140 C 
ATOM      9  C   UNL     1      33.630 -23.515 -16.748  0.00  0.00    +0.195 C 
ENDROOT
BRANCH   8  12
ATOM     10  N   UNL     1      36.811 -24.649 -14.190  0.00  0.00    -0.208 N 
ATOM     11  N   UNL     1      37.729 -23.707 -14.465  0.00  0.00    -0.176 NA
ATOM     12  C   UNL     1      35.886 -23.496 -15.797  0.00  0.00    +0.064 C 
ATOM     13  C   UNL     1      35.688 -24.566 -14.961  0.00  0.00    +0.088 C 
ATOM     14  C   UNL     1      37.159 -23.005 -15.447  0.00  0.00    +0.121 C 
ATOM     15  C   UNL     1      37.070 -25.622 -13.156  0.00  0.00    +0.140 C 
ENDBRANCH   8  12
BRANCH   1  16
ATOM     16  C   UNL     1      35.701 -20.209 -20.151  0.00  0.00    +0.122 C 
ATOM     17  C   UNL     1      36.895 -21.127 -20.440  0.00  0.00    +0.028 C 
BRANCH  16  20
ATOM     18  N   UNL     1      35.031 -17.340 -22.503  0.00  0.00    -0.247 N 
ATOM     19  N   UNL     1      34.384 -17.083 -24.628  0.00  0.00    -0.227 NA
ATOM     20  C   UNL     1      35.351 -19.375 -21.341  0.00  0.00    +0.013 C 
ATOM     21  C   UNL     1      35.374 -18.028 -21.343  0.00  0.00    +0.068 C 
ATOM     22  C   UNL     1      34.962 -20.063 -22.569  0.00  0.00    +0.002 C 
ATOM     23  C   UNL     1      34.656 -17.965 -23.688  0.00  0.00    +0.139 C 
ATOM     24  C   UNL     1      34.631 -19.389 -23.687  0.00  0.00    +0.035 C 
ATOM     25  C   UNL     1      34.984 -15.989 -22.734  0.00  0.00    +0.092 C 
ATOM     26  C   UNL     1      34.585 -15.858 -24.044  0.00  0.00    +0.117 C 
ENDBRANCH  16  20
ENDBRANCH   1  16
TORSDOF 3
ENDMDL
MODEL 4
REMARK VINA RESULT:     -10.5      4.910     11.515
REMARK  Name = 68289010
REMARK  3 active torsions:
REMARK  status: ('A' for Active; 'I' for Inactive)
REMARK    1  A    between atoms: N_1  and  C_16
REMARK    2  A    between atoms: C_8  and  C_12
REMARK    3  A    between atoms: C_16  and  C_20
REMARK                            x       y       z     vdW  Elec       q    Type
REMARK                         _______ _______ _______ _____ _____    ______ ____
ROOT
ATOM      1  N   UNL     1      33.158 -23.289 -17.308  0.00  0.00    -0.165 N 
ATOM      2  N   UNL     1      31.939 -22.809 -17.627  0.00  0.00    -0.033 NA
ATOM      3  N   UNL     1      34.266 -24.066 -15.273  0.00  0.00    -0.378 NA
ATOM      4  N   UNL     1      31.209 -22.777 -16.512  0.00  0.00    -0.086 NA
ATOM      5  N   UNL     1      31.667 -23.390 -14.187  0.00  0.00    -0.208 NA
ATOM      6  C   UNL     1      33.239 -23.576 -15.982  0.00  0.00    +0.267 C 
ATOM      7  C   UNL     1      31.989 -23.244 -15.494  0.00  0.00    +0.098 C 
ATOM      8  C   UNL     1      33.933 -24.207 -13.970  0.00  0.00    +0.140 C 
ATOM      9  C   UNL     1      32.687 -23.884 -13.449  0.00  0.00    +0.195 C 
ENDROOT
BRANCH   8  12
ATOM     10  N   UNL     1      36.852 -25.598 -12.452  0.00  0.00    -0.208 N 
ATOM     11  N   UNL     1      36.174 -25.412 -11.306  0.00  0.00    -0.176 NA
ATOM     12  C   UNL     1      34.962 -24.726 -13.116  0.00  0.00    +0.064 C 
ATOM     13  C   UNL     1      36.169 -25.203 -13.565  0.00  0.00    +0.088 C 
ATOM     14  C   UNL     1      35.021 -24.880 -11.718  0.00  0.00    +0.121 C 
ATOM     15  C   UNL     1      38.176 -26.169 -12.417  0.00  0.00    +0.140 C 
ENDBRANCH   8  12
BRANCH   1  16
ATOM     16  C   UNL     1      34.229 -23.450 -18.373  0.00  0.00    +0.122 C 
ATOM     17  C   UNL     1      33.927 -24.639 -19.293  0.00  0.00    +0.028 C 
BRANCH  16  20
ATOM     18  N   UNL     1      35.738 -20.472 -20.124  0.00  0.00    -0.247 N 
ATOM     19  N   UNL     1      35.001 -18.723 -21.306  0.00  0.00    -0.227 NA
ATOM     20  C   UNL     1      34.437 -22.192 -19.152  0.00  0.00    +0.013 C 
ATOM     21  C   UNL     1      35.647 -21.648 -19.385  0.00  0.00    +0.068 C 
ATOM     22  C   UNL     1      33.259 -21.518 -19.692  0.00  0.00    +0.002 C 
ATOM     23  C   UNL     1      34.636 -19.806 -20.651  0.00  0.00    +0.139 C 
ATOM     24  C   UNL     1      33.356 -20.380 -20.406  0.00  0.00    +0.035 C 
ATOM     25  C   UNL     1      36.847 -19.749 -20.480  0.00  0.00    +0.092 C 
ATOM     26  C   UNL     1      36.369 -18.682 -21.204  0.00  0.00    +0.117 C 
ENDBRANCH  16  20
ENDBRANCH   1  16
TORSDOF 3
ENDMDL
MODEL 5
REMARK VINA RESULT:     -10.2      3.162      6.848
REMARK  Name = 68289010
REMARK  3 active torsions:
REMARK  status: ('A' for Active; 'I' for Inactive)
REMARK    1  A    between atoms: N_1  and  C_16
REMARK    2  A    between atoms: C_8  and  C_12
REMARK    3  A    between atoms: C_16  and  C_20
REMARK                            x       y       z     vdW  Elec       q    Type
REMARK                         _______ _______ _______ _____ _____    ______ ____
ROOT
ATOM      1  N   UNL     1      35.093 -21.937 -18.847  0.00  0.00    -0.165 N 
ATOM      2  N   UNL     1      36.013 -22.113 -17.878  0.00  0.00    -0.033 NA
ATOM      3  N   UNL     1      34.843 -20.483 -20.795  0.00  0.00    -0.378 NA
ATOM      4  N   UNL     1      37.004 -21.248 -18.096  0.00  0.00    -0.086 NA
ATOM      5  N   UNL     1      37.401 -19.545 -19.809  0.00  0.00    -0.208 NA
ATOM      6  C   UNL     1      35.471 -20.957 -19.709  0.00  0.00    +0.267 C 
ATOM      7  C   UNL     1      36.689 -20.532 -19.214  0.00  0.00    +0.098 C 
ATOM      8  C   UNL     1      35.563 -19.498 -21.380  0.00  0.00    +0.140 C 
ATOM      9  C   UNL     1      36.789 -19.050 -20.909  0.00  0.00    +0.195 C 
ENDROOT
BRANCH   8  12
ATOM     10  N   UNL     1      34.358 -17.439 -24.039  0.00  0.00    -0.208 N 
ATOM     11  N   UNL     1      33.901 -18.599 -24.542  0.00  0.00    -0.176 NA
ATOM     12  C   UNL     1      34.982 -18.917 -22.556  0.00  0.00    +0.064 C 
ATOM     13  C   UNL     1      35.013 -17.576 -22.850  0.00  0.00    +0.088 C 
ATOM     14  C   UNL     1      34.285 -19.497 -23.633  0.00  0.00    +0.121 C 
ATOM     15  C   UNL     1      34.132 -16.207 -24.756  0.00  0.00    +0.140 C 
ENDBRANCH   8  12
BRANCH   1  16
ATOM     16  C   UNL     1      33.832 -22.784 -18.879  0.00  0.00    +0.122 C 
ATOM     17  C   UNL     1      34.030 -24.049 -19.723  0.00  0.00    +0.028 C 
BRANCH  16  20
ATOM     18  N   UNL     1      33.565 -23.938 -15.301  0.00  0.00    -0.247 N 
ATOM     19  N   UNL     1      31.986 -24.012 -13.719  0.00  0.00    -0.227 NA
ATOM     20  C   UNL     1      33.344 -23.112 -17.506  0.00  0.00    +0.013 C 
ATOM     21  C   UNL     1      34.113 -23.671 -16.552  0.00  0.00    +0.068 C 
ATOM     22  C   UNL     1      31.952 -22.806 -17.183  0.00  0.00    +0.002 C 
ATOM     23  C   UNL     1      32.245 -23.660 -14.962  0.00  0.00    +0.139 C 
ATOM     24  C   UNL     1      31.430 -23.069 -15.969  0.00  0.00    +0.035 C 
ATOM     25  C   UNL     1      34.151 -24.496 -14.193  0.00  0.00    +0.092 C 
ATOM     26  C   UNL     1      33.163 -24.529 -13.237  0.00  0.00    +0.117 C 
ENDBRANCH  16  20
ENDBRANCH   1  16
TORSDOF 3
ENDMDL
MODEL 6
REMARK VINA RESULT:     -10.0      1.424      8.397
REMARK  Name = 68289010
REMARK  3 active torsions:
REMARK  status: ('A' for Active; 'I' for Inactive)
REMARK    1  A    between atoms: N_1  and  C_16
REMARK    2  A    between atoms: C_8  and  C_12
REMARK    3  A    between atoms: C_16  and  C_20
REMARK                            x       y       z     vdW  Elec       q    Type
REMARK                         _______ _______ _______ _____ _____    ______ ____
ROOT
ATOM      1  N   UNL     1      33.480 -14.644 -23.341  0.00  0.00    -0.165 N 
ATOM      2  N   UNL     1      33.140 -14.248 -24.584  0.00  0.00    -0.033 NA
ATOM      3  N   UNL     1      34.502 -16.626 -22.343  0.00  0.00    -0.378 NA
ATOM      4  N   UNL     1      33.471 -15.226 -25.428  0.00  0.00    -0.086 NA
ATOM      5  N   UNL     1      34.501 -17.427 -25.127  0.00  0.00    -0.208 NA
ATOM      6  C   UNL     1      34.036 -15.883 -23.358  0.00  0.00    +0.267 C 
ATOM      7  C   UNL     1      34.021 -16.236 -24.694  0.00  0.00    +0.098 C 
ATOM      8  C   UNL     1      34.978 -17.812 -22.788  0.00  0.00    +0.140 C 
ATOM      9  C   UNL     1      34.978 -18.195 -24.122  0.00  0.00    +0.195 C 
ENDROOT
BRANCH   8  12
ATOM     10  N   UNL     1      35.660 -20.325 -20.343  0.00  0.00    -0.208 N 
ATOM     11  N   UNL     1      36.844 -19.698 -20.233  0.00  0.00    -0.176 NA
ATOM     12  C   UNL     1      35.504 -18.689 -21.782  0.00  0.00    +0.064 C 
ATOM     13  C   UNL     1      34.821 -19.759 -21.258  0.00  0.00    +0.088 C 
ATOM     14  C   UNL     1      36.743 -18.700 -21.114  0.00  0.00    +0.121 C 
ATOM     15  C   UNL     1      35.383 -21.483 -19.528  0.00  0.00    +0.140 C 
ENDBRANCH   8  12
BRANCH   1  16
ATOM     16  C   UNL     1      33.232 -13.739 -22.147  0.00  0.00    +0.122 C 
ATOM     17  C   UNL     1      34.310 -13.925 -21.072  0.00  0.00    +0.028 C 
BRANCH  16  20
ATOM     18  N   UNL     1      31.991 -10.221 -22.688  0.00  0.00    -0.247 N 
ATOM     19  N   UNL     1      32.743  -8.352 -23.658  0.00  0.00    -0.227 NA
ATOM     20  C   UNL     1      33.099 -12.306 -22.548  0.00  0.00    +0.013 C 
ATOM     21  C   UNL     1      32.020 -11.549 -22.272  0.00  0.00    +0.068 C 
ATOM     22  C   UNL     1      34.205 -11.695 -23.280  0.00  0.00    +0.002 C 
ATOM     23  C   UNL     1      33.026  -9.610 -23.387  0.00  0.00    +0.139 C 
ATOM     24  C   UNL     1      34.168 -10.408 -23.680  0.00  0.00    +0.035 C 
ATOM     25  C   UNL     1      31.011  -9.276 -22.522  0.00  0.00    +0.092 C 
ATOM     26  C   UNL     1      31.497  -8.140 -23.124  0.00  0.00    +0.117 C 
ENDBRANCH  16  20
ENDBRANCH   1  16
TORSDOF 3
ENDMDL
MODEL 7
REMARK VINA RESULT:     -10.0      4.106      7.702
REMARK  Name = 68289010
REMARK  3 active torsions:
REMARK  status: ('A' for Active; 'I' for Inactive)
REMARK    1  A    between atoms: N_1  and  C_16
REMARK    2  A    between atoms: C_8  and  C_12
REMARK    3  A    between atoms: C_16  and  C_20
REMARK                            x       y       z     vdW  Elec       q    Type
REMARK                         _______ _______ _______ _____ _____    ______ ____
ROOT
ATOM      1  N   UNL     1      31.343 -10.216 -20.302  0.00  0.00    -0.165 N 
ATOM      2  N   UNL     1      31.000 -10.288 -19.000  0.00  0.00    -0.033 NA
ATOM      3  N   UNL     1      32.643  -8.688 -21.697  0.00  0.00    -0.378 NA
ATOM      4  N   UNL     1      31.534  -9.237 -18.379  0.00  0.00    -0.086 NA
ATOM      5  N   UNL     1      32.913  -7.361 -19.135  0.00  0.00    -0.208 NA
ATOM      6  C   UNL     1      32.105  -9.117 -20.546  0.00  0.00    +0.267 C 
ATOM      7  C   UNL     1      32.215  -8.509 -19.310  0.00  0.00    +0.098 C 
ATOM      8  C   UNL     1      33.338  -7.542 -21.509  0.00  0.00    +0.140 C 
ATOM      9  C   UNL     1      33.468  -6.907 -20.282  0.00  0.00    +0.195 C 
ENDROOT
BRANCH   8  12
ATOM     10  N   UNL     1      34.291  -5.779 -24.467  0.00  0.00    -0.208 N 
ATOM     11  N   UNL     1      35.408  -6.523 -24.381  0.00  0.00    -0.176 NA
ATOM     12  C   UNL     1      33.958  -6.991 -22.680  0.00  0.00    +0.064 C 
ATOM     13  C   UNL     1      33.391  -6.022 -23.470  0.00  0.00    +0.088 C 
ATOM     14  C   UNL     1      35.198  -7.261 -23.289  0.00  0.00    +0.121 C 
ATOM     15  C   UNL     1      34.140  -4.834 -25.546  0.00  0.00    +0.140 C 
ENDBRANCH   8  12
BRANCH   1  16
ATOM     16  C   UNL     1      30.885 -11.281 -21.283  0.00  0.00    +0.122 C 
ATOM     17  C   UNL     1      30.559 -10.674 -22.653  0.00  0.00    +0.028 C 
BRANCH  16  20
ATOM     18  N   UNL     1      33.393 -13.791 -22.554  0.00  0.00    -0.247 N 
ATOM     19  N   UNL     1      34.596 -15.475 -21.707  0.00  0.00    -0.227 NA
ATOM     20  C   UNL     1      31.873 -12.396 -21.399  0.00  0.00    +0.013 C 
ATOM     21  C   UNL     1      32.487 -12.735 -22.548  0.00  0.00    +0.068 C 
ATOM     22  C   UNL     1      32.187 -13.160 -20.194  0.00  0.00    +0.002 C 
ATOM     23  C   UNL     1      33.714 -14.538 -21.425  0.00  0.00    +0.139 C 
ATOM     24  C   UNL     1      33.066 -14.182 -20.209  0.00  0.00    +0.035 C 
ATOM     25  C   UNL     1      34.127 -14.306 -23.593  0.00  0.00    +0.092 C 
ATOM     26  C   UNL     1      34.856 -15.336 -23.047  0.00  0.00    +0.117 C 
ENDBRANCH  16  20
ENDBRANCH   1  16
TORSDOF 3
ENDMDL
MODEL 8
REMARK VINA RESULT:      -9.9      2.478      9.130
REMARK  Name = 68289010
REMARK  3 active torsions:
REMARK  status: ('A' for Active; 'I' for Inactive)
REMARK    1  A    between atoms: N_1  and  C_16
REMARK    2  A    between atoms: C_8  and  C_12
REMARK    3  A    between atoms: C_16  and  C_20
REMARK                            x       y       z     vdW  Elec       q    Type
REMARK                         _______ _______ _______ _____ _____    ______ ____
ROOT
ATOM      1  N   UNL     1      34.609 -19.891 -20.576  0.00  0.00    -0.165 N 
ATOM      2  N   UNL     1      33.450 -19.877 -21.262  0.00  0.00    -0.033 NA
ATOM      3  N   UNL     1      35.529 -21.160 -18.700  0.00  0.00    -0.378 NA
ATOM      4  N   UNL     1      32.653 -20.808 -20.737  0.00  0.00    -0.086 NA
ATOM      5  N   UNL     1      32.918 -22.401 -18.897  0.00  0.00    -0.208 NA
ATOM      6  C   UNL     1      34.585 -20.832 -19.595  0.00  0.00    +0.267 C 
ATOM      7  C   UNL     1      33.332 -21.403 -19.714  0.00  0.00    +0.098 C 
ATOM      8  C   UNL     1      35.103 -22.157 -17.891  0.00  0.00    +0.140 C 
ATOM      9  C   UNL     1      33.853 -22.752 -17.986  0.00  0.00    +0.195 C 
ENDROOT
BRANCH   8  12
ATOM     10  N   UNL     1      36.874 -23.584 -15.136  0.00  0.00    -0.208 N 
ATOM     11  N   UNL     1      37.924 -22.917 -15.646  0.00  0.00    -0.176 NA
ATOM     12  C   UNL     1      36.038 -22.590 -16.892  0.00  0.00    +0.064 C 
ATOM     13  C   UNL     1      35.721 -23.420 -15.846  0.00  0.00    +0.088 C 
ATOM     14  C   UNL     1      37.408 -22.312 -16.718  0.00  0.00    +0.121 C 
ATOM     15  C   UNL     1      37.040 -24.377 -13.942  0.00  0.00    +0.140 C 
ENDBRANCH   8  12
BRANCH   1  16
ATOM     16  C   UNL     1      35.735 -18.938 -20.938  0.00  0.00    +0.122 C 
ATOM     17  C   UNL     1      36.799 -19.632 -21.798  0.00  0.00    +0.028 C 
BRANCH  16  20
ATOM     18  N   UNL     1      34.508 -16.388 -23.428  0.00  0.00    -0.247 N 
ATOM     19  N   UNL     1      33.822 -14.260 -23.388  0.00  0.00    -0.227 NA
ATOM     20  C   UNL     1      35.226 -17.695 -21.592  0.00  0.00    +0.013 C 
ATOM     21  C   UNL     1      34.982 -17.591 -22.913  0.00  0.00    +0.068 C 
ATOM     22  C   UNL     1      34.981 -16.528 -20.748  0.00  0.00    +0.002 C 
ATOM     23  C   UNL     1      34.265 -15.259 -22.652  0.00  0.00    +0.139 C 
ATOM     24  C   UNL     1      34.522 -15.368 -21.256  0.00  0.00    +0.035 C 
ATOM     25  C   UNL     1      34.195 -16.056 -24.722  0.00  0.00    +0.092 C 
ATOM     26  C   UNL     1      33.776 -14.748 -24.669  0.00  0.00    +0.117 C 
ENDBRANCH  16  20
ENDBRANCH   1  16
TORSDOF 3
ENDMDL
MODEL 9
REMARK VINA RESULT:      -9.9      7.317     12.682
REMARK  Name = 68289010
REMARK  3 active torsions:
REMARK  status: ('A' for Active; 'I' for Inactive)
REMARK    1  A    between atoms: N_1  and  C_16
REMARK    2  A    between atoms: C_8  and  C_12
REMARK    3  A    between atoms: C_16  and  C_20
REMARK                            x       y       z     vdW  Elec       q    Type
REMARK                         _______ _______ _______ _____ _____    ______ ____
ROOT
ATOM      1  N   UNL     1      32.688 -23.873 -14.446  0.00  0.00    -0.165 N 
ATOM      2  N   UNL     1      31.859 -23.215 -13.611  0.00  0.00    -0.033 NA
ATOM      3  N   UNL     1      34.876 -24.946 -14.270  0.00  0.00    -0.378 NA
ATOM      4  N   UNL     1      32.436 -23.175 -12.410  0.00  0.00    -0.086 NA
ATOM      5  N   UNL     1      34.562 -24.023 -11.541  0.00  0.00    -0.208 NA
ATOM      6  C   UNL     1      33.816 -24.271 -13.802  0.00  0.00    +0.267 C 
ATOM      7  C   UNL     1      33.636 -23.818 -12.508  0.00  0.00    +0.098 C 
ATOM      8  C   UNL     1      35.793 -25.144 -13.295  0.00  0.00    +0.140 C 
ATOM      9  C   UNL     1      35.643 -24.703 -11.988  0.00  0.00    +0.195 C 
ENDROOT
BRANCH   8  12
ATOM     10  N   UNL     1      39.065 -26.312 -14.128  0.00  0.00    -0.208 N 
ATOM     11  N   UNL     1      38.431 -27.466 -14.401  0.00  0.00    -0.176 NA
ATOM     12  C   UNL     1      36.974 -25.858 -13.688  0.00  0.00    +0.064 C 
ATOM     13  C   UNL     1      38.236 -25.318 -13.697  0.00  0.00    +0.088 C 
ATOM     14  C   UNL     1      37.155 -27.183 -14.130  0.00  0.00    +0.121 C 
ATOM     15  C   UNL     1      40.494 -26.220 -14.303  0.00  0.00    +0.140 C 
ENDBRANCH   8  12
BRANCH   1  16
ATOM     16  C   UNL     1      32.309 -24.088 -15.901  0.00  0.00    +0.122 C 
ATOM     17  C   UNL     1      30.826 -23.785 -16.143  0.00  0.00    +0.028 C 
BRANCH  16  20
ATOM     18  N   UNL     1      35.243 -22.408 -17.569  0.00  0.00    -0.247 N 
ATOM     19  N   UNL     1      35.597 -21.166 -19.394  0.00  0.00    -0.227 NA
ATOM     20  C   UNL     1      33.186 -23.311 -16.828  0.00  0.00    +0.013 C 
ATOM     21  C   UNL     1      34.511 -23.151 -16.647  0.00  0.00    +0.068 C 
ATOM     22  C   UNL     1      32.567 -22.691 -17.998  0.00  0.00    +0.002 C 
ATOM     23  C   UNL     1      34.684 -21.806 -18.691  0.00  0.00    +0.139 C 
ATOM     24  C   UNL     1      33.284 -21.974 -18.885  0.00  0.00    +0.035 C 
ATOM     25  C   UNL     1      36.583 -22.117 -17.587  0.00  0.00    +0.092 C 
ATOM     26  C   UNL     1      36.774 -21.355 -18.715  0.00  0.00    +0.117 C 
ENDBRANCH  16  20
ENDBRANCH   1  16
TORSDOF 3
ENDMDL
