MODEL 1
REMARK VINA RESULT:     -11.8      0.000      0.000
REMARK  Name = 46861612
REMARK  7 active torsions:
REMARK  status: ('A' for Active; 'I' for Inactive)
REMARK    1  A    between atoms: C_1  and  N_2
REMARK    2  A    between atoms: C_1  and  C_17
REMARK    3  A    between atoms: N_3  and  C_11
REMARK    4  A    between atoms: C_17  and  C_18
REMARK    5  A    between atoms: C_18  and  C_19
REMARK    6  A    between atoms: C_19  and  O_20
REMARK    7  A    between atoms: O_20  and  C_24
REMARK                            x       y       z     vdW  Elec       q    Type
REMARK                         _______ _______ _______ _____ _____    ______ ____
ROOT
ATOM      1  C   UNL     1      34.766 -17.470 -24.026  0.00  0.00    -0.077 C 
ENDROOT
BRANCH   1   2
ATOM      2  N   UNL     1      34.638 -16.024 -23.847  0.00  0.00    +0.389 N 
ATOM      3  N   UNL     1      33.390 -13.603 -22.989  0.00  0.00    -0.311 N 
ATOM      4  C   UNL     1      33.441 -15.523 -24.532  0.00  0.00    -0.055 C 
ATOM      5  C   UNL     1      34.576 -15.686 -22.420  0.00  0.00    -0.055 C 
ATOM      6  C   UNL     1      34.500 -14.171 -22.216  0.00  0.00    +0.068 C 
ATOM      7  C   UNL     1      33.328 -14.003 -24.400  0.00  0.00    +0.068 C 
ATOM      8  H   UNL     1      35.462 -15.580 -24.255  0.00  0.00    -0.080 HD
BRANCH   3  11
ATOM      9 CL   UNL     1      31.962 -13.505 -20.356  0.00  0.00    -0.080 Cl
ATOM     10 CL   UNL     1      30.804 -10.594 -19.654  0.00  0.00    -0.081 Cl
ATOM     11  C   UNL     1      32.867 -12.354 -22.635  0.00  0.00    +0.059 C 
ATOM     12  C   UNL     1      32.177 -12.163 -21.438  0.00  0.00    +0.081 C 
ATOM     13  C   UNL     1      33.048 -11.286 -23.514  0.00  0.00    +0.015 C 
ATOM     14  C   UNL     1      31.669 -10.903 -21.120  0.00  0.00    +0.069 C 
ATOM     15  C   UNL     1      32.540 -10.027 -23.196  0.00  0.00    +0.002 C 
ATOM     16  C   UNL     1      31.850  -9.836 -21.999  0.00  0.00    +0.012 C 
ENDBRANCH   3  11
ENDBRANCH   1   2
BRANCH   1  17
ATOM     17  C   UNL     1      35.323 -18.116 -22.759  0.00  0.00    -0.019 C 
BRANCH  17  18
ATOM     18  C   UNL     1      34.663 -19.467 -22.490  0.00  0.00    +0.045 C 
BRANCH  18  19
ATOM     19  C   UNL     1      34.582 -19.766 -20.999  0.00  0.00    +0.205 C 
BRANCH  19  20
ATOM     20  O   UNL     1      35.569 -20.726 -20.646  0.00  0.00    -0.475 OA
BRANCH  20  24
ATOM     21  O   UNL     1      34.640 -23.663 -16.060  0.00  0.00    -0.464 OA
ATOM     22  O   UNL     1      37.908 -23.491 -14.527  0.00  0.00    -0.271 OA
ATOM     23  N   UNL     1      37.211 -22.577 -16.518  0.00  0.00    -0.278 N 
ATOM     24  C   UNL     1      35.352 -21.442 -19.498  0.00  0.00    +0.140 C 
ATOM     25  C   UNL     1      36.391 -21.630 -18.587  0.00  0.00    +0.055 C 
ATOM     26  C   UNL     1      36.161 -22.355 -17.416  0.00  0.00    +0.088 C 
ATOM     27  C   UNL     1      34.093 -21.987 -19.245  0.00  0.00    +0.040 C 
ATOM     28  C   UNL     1      34.903 -22.897 -17.160  0.00  0.00    +0.153 C 
ATOM     29  C   UNL     1      33.869 -22.721 -18.079  0.00  0.00    +0.041 C 
ATOM     30  C   UNL     1      35.546 -23.473 -14.990  0.00  0.00    +0.290 C 
ATOM     31  C   UNL     1      37.008 -23.215 -15.317  0.00  0.00    +0.271 C 
ATOM     32  H   UNL     1      38.115 -22.268 -16.751  0.00  0.00    +0.155 HD
ENDBRANCH  20  24
ENDBRANCH  19  20
ENDBRANCH  18  19
ENDBRANCH  17  18
ENDBRANCH   1  17
TORSDOF 7
ENDMDL
MODEL 2
REMARK VINA RESULT:     -11.7      1.602      2.178
REMARK  Name = 46861612
REMARK  7 active torsions:
REMARK  status: ('A' for Active; 'I' for Inactive)
REMARK    1  A    between atoms: C_1  and  N_2
REMARK    2  A    between atoms: C_1  and  C_17
REMARK    3  A    between atoms: N_3  and  C_11
REMARK    4  A    between atoms: C_17  and  C_18
REMARK    5  A    between atoms: C_18  and  C_19
REMARK    6  A    between atoms: C_19  and  O_20
REMARK    7  A    between atoms: O_20  and  C_24
REMARK                            x       y       z     vdW  Elec       q    Type
REMARK                         _______ _______ _______ _____ _____    ______ ____
ROOT
ATOM      1  C   UNL     1      34.531 -16.756 -24.471  0.00  0.00    -0.077 C 
ENDROOT
BRANCH   1   2
ATOM      2  N   UNL     1      34.414 -15.337 -24.137  0.00  0.00    +0.389 N 
ATOM      3  N   UNL     1      33.195 -13.016 -23.004  0.00  0.00    -0.311 N 
ATOM      4  C   UNL     1      33.207 -14.762 -24.743  0.00  0.00    -0.055 C 
ATOM      5  C   UNL     1      34.379 -15.152 -22.682  0.00  0.00    -0.055 C 
ATOM      6  C   UNL     1      34.315 -13.667 -22.317  0.00  0.00    +0.068 C 
ATOM      7  C   UNL     1      33.105 -13.264 -24.449  0.00  0.00    +0.068 C 
ATOM      8  H   UNL     1      35.232 -14.855 -24.511  0.00  0.00    -0.080 HD
BRANCH   3  11
ATOM      9 CL   UNL     1      32.008 -13.150 -20.256  0.00  0.00    -0.080 Cl
ATOM     10 CL   UNL     1      30.870 -10.328 -19.231  0.00  0.00    -0.081 Cl
ATOM     11  C   UNL     1      32.685 -11.810 -22.511  0.00  0.00    +0.059 C 
ATOM     12  C   UNL     1      32.102 -11.726 -21.245  0.00  0.00    +0.081 C 
ATOM     13  C   UNL     1      32.768 -10.675 -23.317  0.00  0.00    +0.015 C 
ATOM     14  C   UNL     1      31.604 -10.506 -20.788  0.00  0.00    +0.069 C 
ATOM     15  C   UNL     1      32.271  -9.456 -22.859  0.00  0.00    +0.002 C 
ATOM     16  C   UNL     1      31.688  -9.371 -21.594  0.00  0.00    +0.012 C 
ENDBRANCH   3  11
ENDBRANCH   1   2
BRANCH   1  17
ATOM     17  C   UNL     1      34.914 -17.564 -23.233  0.00  0.00    -0.019 C 
BRANCH  17  18
ATOM     18  C   UNL     1      34.597 -19.047 -23.420  0.00  0.00    +0.045 C 
BRANCH  18  19
ATOM     19  C   UNL     1      35.038 -19.872 -22.218  0.00  0.00    +0.205 C 
BRANCH  19  20
ATOM     20  O   UNL     1      33.927 -20.113 -21.366  0.00  0.00    -0.475 OA
BRANCH  20  24
ATOM     21  O   UNL     1      34.914 -23.182 -16.879  0.00  0.00    -0.464 OA
ATOM     22  O   UNL     1      31.526 -23.887 -15.838  0.00  0.00    -0.271 OA
ATOM     23  N   UNL     1      32.242 -22.651 -17.640  0.00  0.00    -0.278 N 
ATOM     24  C   UNL     1      34.154 -20.886 -20.257  0.00  0.00    +0.140 C 
ATOM     25  C   UNL     1      33.079 -21.387 -19.523  0.00  0.00    +0.055 C 
ATOM     26  C   UNL     1      33.318 -22.179 -18.399  0.00  0.00    +0.088 C 
ATOM     27  C   UNL     1      35.462 -21.166 -19.860  0.00  0.00    +0.040 C 
ATOM     28  C   UNL     1      34.623 -22.462 -18.003  0.00  0.00    +0.153 C 
ATOM     29  C   UNL     1      35.698 -21.948 -18.729  0.00  0.00    +0.041 C 
ATOM     30  C   UNL     1      33.856 -24.007 -16.429  0.00  0.00    +0.290 C 
ATOM     31  C   UNL     1      32.431 -23.500 -16.574  0.00  0.00    +0.271 C 
ATOM     32  H   UNL     1      31.329 -22.372 -17.875  0.00  0.00    +0.155 HD
ENDBRANCH  20  24
ENDBRANCH  19  20
ENDBRANCH  18  19
ENDBRANCH  17  18
ENDBRANCH   1  17
TORSDOF 7
ENDMDL
MODEL 3
REMARK VINA RESULT:     -11.5      4.864     11.183
REMARK  Name = 46861612
REMARK  7 active torsions:
REMARK  status: ('A' for Active; 'I' for Inactive)
REMARK    1  A    between atoms: C_1  and  N_2
REMARK    2  A    between atoms: C_1  and  C_17
REMARK    3  A    between atoms: N_3  and  C_11
REMARK    4  A    between atoms: C_17  and  C_18
REMARK    5  A    between atoms: C_18  and  C_19
REMARK    6  A    between atoms: C_19  and  O_20
REMARK    7  A    between atoms: O_20  and  C_24
REMARK                            x       y       z     vdW  Elec       q    Type
REMARK                         _______ _______ _______ _____ _____    ______ ____
ROOT
ATOM      1  C   UNL     1      34.486 -16.366 -24.420  0.00  0.00    -0.077 C 
ENDROOT
BRANCH   1   2
ATOM      2  N   UNL     1      35.061 -17.410 -23.572  0.00  0.00    +0.389 N 
ATOM      3  N   UNL     1      35.078 -19.356 -21.482  0.00  0.00    -0.311 N 
ATOM      4  C   UNL     1      35.063 -16.989 -22.166  0.00  0.00    -0.055 C 
ATOM      5  C   UNL     1      34.310 -18.662 -23.718  0.00  0.00    -0.055 C 
ATOM      6  C   UNL     1      34.936 -19.780 -22.879  0.00  0.00    +0.068 C 
ATOM      7  C   UNL     1      35.714 -18.049 -21.276  0.00  0.00    +0.068 C 
ATOM      8  H   UNL     1      36.024 -17.567 -23.871  0.00  0.00    -0.080 HD
BRANCH   3  11
ATOM      9 CL   UNL     1      32.508 -20.474 -20.421  0.00  0.00    -0.080 Cl
ATOM     10 CL   UNL     1      32.940 -22.670 -18.118  0.00  0.00    -0.081 Cl
ATOM     11  C   UNL     1      35.212 -20.320 -20.476  0.00  0.00    +0.059 C 
ATOM     12  C   UNL     1      34.099 -20.924 -19.890  0.00  0.00    +0.081 C 
ATOM     13  C   UNL     1      36.497 -20.671 -20.061  0.00  0.00    +0.015 C 
ATOM     14  C   UNL     1      34.272 -21.880 -18.888  0.00  0.00    +0.069 C 
ATOM     15  C   UNL     1      36.669 -21.627 -19.060  0.00  0.00    +0.002 C 
ATOM     16  C   UNL     1      35.557 -22.231 -18.473  0.00  0.00    +0.012 C 
ENDBRANCH   3  11
ENDBRANCH   1   2
BRANCH   1  17
ATOM     17  C   UNL     1      34.657 -14.996 -23.767  0.00  0.00    -0.019 C 
BRANCH  17  18
ATOM     18  C   UNL     1      33.335 -14.232 -23.729  0.00  0.00    +0.045 C 
BRANCH  18  19
ATOM     19  C   UNL     1      33.015 -13.731 -22.327  0.00  0.00    +0.205 C 
BRANCH  19  20
ATOM     20  O   UNL     1      31.813 -12.974 -22.349  0.00  0.00    -0.475 OA
BRANCH  20  24
ATOM     21  O   UNL     1      31.971  -8.048 -19.852  0.00  0.00    -0.464 OA
ATOM     22  O   UNL     1      33.227  -6.008 -22.558  0.00  0.00    -0.271 OA
ATOM     23  N   UNL     1      32.792  -8.266 -22.549  0.00  0.00    -0.278 N 
ATOM     24  C   UNL     1      31.847 -11.742 -21.747  0.00  0.00    +0.140 C 
ATOM     25  C   UNL     1      32.289 -10.629 -22.463  0.00  0.00    +0.055 C 
ATOM     26  C   UNL     1      32.315  -9.377 -21.847  0.00  0.00    +0.088 C 
ATOM     27  C   UNL     1      31.445 -11.605 -20.419  0.00  0.00    +0.040 C 
ATOM     28  C   UNL     1      31.910  -9.237 -20.520  0.00  0.00    +0.153 C 
ATOM     29  C   UNL     1      31.483 -10.354 -19.801  0.00  0.00    +0.041 C 
ATOM     30  C   UNL     1      32.001  -6.910 -20.693  0.00  0.00    +0.290 C 
ATOM     31  C   UNL     1      32.759  -7.002 -22.007  0.00  0.00    +0.271 C 
ATOM     32  H   UNL     1      33.160  -8.391 -23.453  0.00  0.00    +0.155 HD
ENDBRANCH  20  24
ENDBRANCH  19  20
ENDBRANCH  18  19
ENDBRANCH  17  18
ENDBRANCH   1  17
TORSDOF 7
ENDMDL
MODEL 4
REMARK VINA RESULT:     -11.3      2.596      3.519
REMARK  Name = 46861612
REMARK  7 active torsions:
REMARK  status: ('A' for Active; 'I' for Inactive)
REMARK    1  A    between atoms: C_1  and  N_2
REMARK    2  A    between atoms: C_1  and  C_17
REMARK    3  A    between atoms: N_3  and  C_11
REMARK    4  A    between atoms: C_17  and  C_18
REMARK    5  A    between atoms: C_18  and  C_19
REMARK    6  A    between atoms: C_19  and  O_20
REMARK    7  A    between atoms: O_20  and  C_24
REMARK                            x       y       z     vdW  Elec       q    Type
REMARK                         _______ _______ _______ _____ _____    ______ ____
ROOT
ATOM      1  C   UNL     1      35.782 -18.902 -21.979  0.00  0.00    -0.077 C 
ENDROOT
BRANCH   1   2
ATOM      2  N   UNL     1      35.611 -17.456 -22.121  0.00  0.00    +0.389 N 
ATOM      3  N   UNL     1      34.153 -15.007 -22.298  0.00  0.00    -0.311 N 
ATOM      4  C   UNL     1      34.827 -17.145 -23.321  0.00  0.00    -0.055 C 
ATOM      5  C   UNL     1      34.953 -16.897 -20.935  0.00  0.00    -0.055 C 
ATOM      6  C   UNL     1      34.820 -15.376 -21.045  0.00  0.00    +0.068 C 
ATOM      7  C   UNL     1      34.691 -15.633 -23.513  0.00  0.00    +0.068 C 
ATOM      8  H   UNL     1      36.537 -17.036 -22.214  0.00  0.00    -0.080 HD
BRANCH   3  11
ATOM      9 CL   UNL     1      32.139 -14.343 -20.181  0.00  0.00    -0.080 Cl
ATOM     10 CL   UNL     1      30.816 -11.442 -20.560  0.00  0.00    -0.081 Cl
ATOM     11  C   UNL     1      33.548 -13.751 -22.418  0.00  0.00    +0.059 C 
ATOM     12  C   UNL     1      32.590 -13.311 -21.503  0.00  0.00    +0.081 C 
ATOM     13  C   UNL     1      33.922 -12.934 -23.484  0.00  0.00    +0.015 C 
ATOM     14  C   UNL     1      32.008 -12.052 -21.655  0.00  0.00    +0.069 C 
ATOM     15  C   UNL     1      33.339 -11.675 -23.636  0.00  0.00    +0.002 C 
ATOM     16  C   UNL     1      32.382 -11.235 -22.722  0.00  0.00    +0.012 C 
ENDBRANCH   3  11
ENDBRANCH   1   2
BRANCH   1  17
ATOM     17  C   UNL     1      34.731 -19.470 -21.028  0.00  0.00    -0.019 C 
BRANCH  17  18
ATOM     18  C   UNL     1      35.255 -20.706 -20.298  0.00  0.00    +0.045 C 
BRANCH  18  19
ATOM     19  C   UNL     1      34.148 -21.416 -19.530  0.00  0.00    +0.205 C 
BRANCH  19  20
ATOM     20  O   UNL     1      34.707 -22.442 -18.720  0.00  0.00    -0.475 OA
BRANCH  20  24
ATOM     21  O   UNL     1      31.903 -23.879 -14.181  0.00  0.00    -0.464 OA
ATOM     22  O   UNL     1      28.519 -23.361 -15.340  0.00  0.00    -0.271 OA
ATOM     23  N   UNL     1      30.488 -23.041 -16.482  0.00  0.00    -0.278 N 
ATOM     24  C   UNL     1      33.996 -22.806 -17.606  0.00  0.00    +0.140 C 
ATOM     25  C   UNL     1      32.602 -22.752 -17.620  0.00  0.00    +0.055 C 
ATOM     26  C   UNL     1      31.884 -23.130 -16.484  0.00  0.00    +0.088 C 
ATOM     27  C   UNL     1      34.668 -23.226 -16.458  0.00  0.00    +0.040 C 
ATOM     28  C   UNL     1      32.553 -23.553 -15.338  0.00  0.00    +0.153 C 
ATOM     29  C   UNL     1      33.948 -23.593 -15.320  0.00  0.00    +0.041 C 
ATOM     30  C   UNL     1      30.542 -24.222 -14.358  0.00  0.00    +0.290 C 
ATOM     31  C   UNL     1      29.740 -23.480 -15.415  0.00  0.00    +0.271 C 
ATOM     32  H   UNL     1      30.030 -22.656 -17.264  0.00  0.00    +0.155 HD
ENDBRANCH  20  24
ENDBRANCH  19  20
ENDBRANCH  18  19
ENDBRANCH  17  18
ENDBRANCH   1  17
TORSDOF 7
ENDMDL
MODEL 5
REMARK VINA RESULT:     -11.3      3.108      5.948
REMARK  Name = 46861612
REMARK  7 active torsions:
REMARK  status: ('A' for Active; 'I' for Inactive)
REMARK    1  A    between atoms: C_1  and  N_2
REMARK    2  A    between atoms: C_1  and  C_17
REMARK    3  A    between atoms: N_3  and  C_11
REMARK    4  A    between atoms: C_17  and  C_18
REMARK    5  A    between atoms: C_18  and  C_19
REMARK    6  A    between atoms: C_19  and  O_20
REMARK    7  A    between atoms: O_20  and  C_24
REMARK                            x       y       z     vdW  Elec       q    Type
REMARK                         _______ _______ _______ _____ _____    ______ ____
ROOT
ATOM      1  C   UNL     1      36.696 -21.550 -19.318  0.00  0.00    -0.077 C 
ENDROOT
BRANCH   1   2
ATOM      2  N   UNL     1      36.146 -20.285 -19.805  0.00  0.00    +0.389 N 
ATOM      3  N   UNL     1      35.309 -18.391 -21.771  0.00  0.00    -0.311 N 
ATOM      4  C   UNL     1      37.138 -19.569 -20.615  0.00  0.00    -0.055 C 
ATOM      5  C   UNL     1      34.933 -20.523 -20.595  0.00  0.00    -0.055 C 
ATOM      6  C   UNL     1      34.314 -19.203 -21.063  0.00  0.00    +0.068 C 
ATOM      7  C   UNL     1      36.595 -18.218 -21.083  0.00  0.00    +0.068 C 
ATOM      8  H   UNL     1      35.905 -19.712 -18.996  0.00  0.00    -0.080 HD
BRANCH   3  11
ATOM      9 CL   UNL     1      34.812 -15.726 -20.495  0.00  0.00    -0.080 Cl
ATOM     10 CL   UNL     1      33.847 -13.485 -22.581  0.00  0.00    -0.081 Cl
ATOM     11  C   UNL     1      34.887 -17.378 -22.640  0.00  0.00    +0.059 C 
ATOM     12  C   UNL     1      34.618 -16.088 -22.182  0.00  0.00    +0.081 C 
ATOM     13  C   UNL     1      34.736 -17.684 -23.992  0.00  0.00    +0.015 C 
ATOM     14  C   UNL     1      34.198 -15.104 -23.078  0.00  0.00    +0.069 C 
ATOM     15  C   UNL     1      34.317 -16.700 -24.888  0.00  0.00    +0.002 C 
ATOM     16  C   UNL     1      34.047 -15.410 -24.430  0.00  0.00    +0.012 C 
ENDBRANCH   3  11
ENDBRANCH   1   2
BRANCH   1  17
ATOM     17  C   UNL     1      35.911 -22.038 -18.102  0.00  0.00    -0.019 C 
BRANCH  17  18
ATOM     18  C   UNL     1      36.834 -22.287 -16.911  0.00  0.00    +0.045 C 
BRANCH  18  19
ATOM     19  C   UNL     1      36.051 -22.680 -15.665  0.00  0.00    +0.205 C 
BRANCH  19  20
ATOM     20  O   UNL     1      35.349 -23.893 -15.900  0.00  0.00    -0.475 OA
BRANCH  20  24
ATOM     21  O   UNL     1      30.151 -24.124 -14.042  0.00  0.00    -0.464 OA
ATOM     22  O   UNL     1      28.436 -22.464 -16.756  0.00  0.00    -0.271 OA
ATOM     23  N   UNL     1      30.684 -22.895 -16.533  0.00  0.00    -0.278 N 
ATOM     24  C   UNL     1      34.052 -23.952 -15.459  0.00  0.00    +0.140 C 
ATOM     25  C   UNL     1      33.028 -23.405 -16.231  0.00  0.00    +0.055 C 
ATOM     26  C   UNL     1      31.709 -23.475 -15.779  0.00  0.00    +0.088 C 
ATOM     27  C   UNL     1      33.760 -24.555 -14.235  0.00  0.00    +0.040 C 
ATOM     28  C   UNL     1      31.415 -24.080 -14.559  0.00  0.00    +0.153 C 
ATOM     29  C   UNL     1      32.443 -24.614 -13.780  0.00  0.00    +0.041 C 
ATOM     30  C   UNL     1      29.125 -23.964 -15.004  0.00  0.00    +0.290 C 
ATOM     31  C   UNL     1      29.364 -23.012 -16.164  0.00  0.00    +0.271 C 
ATOM     32  H   UNL     1      30.912 -22.392 -17.347  0.00  0.00    +0.155 HD
ENDBRANCH  20  24
ENDBRANCH  19  20
ENDBRANCH  18  19
ENDBRANCH  17  18
ENDBRANCH   1  17
TORSDOF 7
ENDMDL
MODEL 6
REMARK VINA RESULT:     -11.2      5.054     11.047
REMARK  Name = 46861612
REMARK  7 active torsions:
REMARK  status: ('A' for Active; 'I' for Inactive)
REMARK    1  A    between atoms: C_1  and  N_2
REMARK    2  A    between atoms: C_1  and  C_17
REMARK    3  A    between atoms: N_3  and  C_11
REMARK    4  A    between atoms: C_17  and  C_18
REMARK    5  A    between atoms: C_18  and  C_19
REMARK    6  A    between atoms: C_19  and  O_20
REMARK    7  A    between atoms: O_20  and  C_24
REMARK                            x       y       z     vdW  Elec       q    Type
REMARK                         _______ _______ _______ _____ _____    ______ ____
ROOT
ATOM      1  C   UNL     1      34.975 -15.943 -24.539  0.00  0.00    -0.077 C 
ENDROOT
BRANCH   1   2
ATOM      2  N   UNL     1      35.277 -17.052 -23.635  0.00  0.00    +0.389 N 
ATOM      3  N   UNL     1      34.705 -19.045 -21.672  0.00  0.00    -0.311 N 
ATOM      4  C   UNL     1      35.014 -16.669 -22.243  0.00  0.00    -0.055 C 
ATOM      5  C   UNL     1      34.481 -18.233 -23.987  0.00  0.00    -0.055 C 
ATOM      6  C   UNL     1      34.829 -19.420 -23.084  0.00  0.00    +0.068 C 
ATOM      7  C   UNL     1      35.381 -17.801 -21.282  0.00  0.00    +0.068 C 
ATOM      8  H   UNL     1      36.267 -17.280 -23.733  0.00  0.00    -0.080 HD
BRANCH   3  11
ATOM      9 CL   UNL     1      37.227 -19.913 -20.306  0.00  0.00    -0.080 Cl
ATOM     10 CL   UNL     1      36.751 -22.200 -18.105  0.00  0.00    -0.081 Cl
ATOM     11  C   UNL     1      34.550 -20.042 -20.701  0.00  0.00    +0.059 C 
ATOM     12  C   UNL     1      35.640 -20.541 -19.987  0.00  0.00    +0.081 C 
ATOM     13  C   UNL     1      33.269 -20.536 -20.455  0.00  0.00    +0.015 C 
ATOM     14  C   UNL     1      35.448 -21.535 -19.027  0.00  0.00    +0.069 C 
ATOM     15  C   UNL     1      33.077 -21.529 -19.495  0.00  0.00    +0.002 C 
ATOM     16  C   UNL     1      34.167 -22.029 -18.782  0.00  0.00    +0.012 C 
ENDBRANCH   3  11
ENDBRANCH   1   2
BRANCH   1  17
ATOM     17  C   UNL     1      33.476 -15.649 -24.539  0.00  0.00    -0.019 C 
BRANCH  17  18
ATOM     18  C   UNL     1      33.206 -14.147 -24.475  0.00  0.00    +0.045 C 
BRANCH  18  19
ATOM     19  C   UNL     1      33.253 -13.628 -23.044  0.00  0.00    +0.205 C 
BRANCH  19  20
ATOM     20  O   UNL     1      31.977 -13.125 -22.672  0.00  0.00    -0.475 OA
BRANCH  20  24
ATOM     21  O   UNL     1      31.915  -8.376 -19.849  0.00  0.00    -0.464 OA
ATOM     22  O   UNL     1      33.043  -6.099 -22.418  0.00  0.00    -0.271 OA
ATOM     23  N   UNL     1      32.721  -8.371 -22.560  0.00  0.00    -0.278 N 
ATOM     24  C   UNL     1      31.956 -11.936 -21.989  0.00  0.00    +0.140 C 
ATOM     25  C   UNL     1      32.335 -10.757 -22.630  0.00  0.00    +0.055 C 
ATOM     26  C   UNL     1      32.305  -9.550 -21.931  0.00  0.00    +0.088 C 
ATOM     27  C   UNL     1      31.560 -11.909 -20.652  0.00  0.00    +0.040 C 
ATOM     28  C   UNL     1      31.907  -9.520 -20.596  0.00  0.00    +0.153 C 
ATOM     29  C   UNL     1      31.542 -10.702 -19.951  0.00  0.00    +0.041 C 
ATOM     30  C   UNL     1      31.881  -7.185 -20.611  0.00  0.00    +0.290 C 
ATOM     31  C   UNL     1      32.630  -7.150 -21.933  0.00  0.00    +0.271 C 
ATOM     32  H   UNL     1      33.085  -8.417 -23.473  0.00  0.00    +0.155 HD
ENDBRANCH  20  24
ENDBRANCH  19  20
ENDBRANCH  18  19
ENDBRANCH  17  18
ENDBRANCH   1  17
TORSDOF 7
ENDMDL
MODEL 7
REMARK VINA RESULT:     -11.2      1.453      2.144
REMARK  Name = 46861612
REMARK  7 active torsions:
REMARK  status: ('A' for Active; 'I' for Inactive)
REMARK    1  A    between atoms: C_1  and  N_2
REMARK    2  A    between atoms: C_1  and  C_17
REMARK    3  A    between atoms: N_3  and  C_11
REMARK    4  A    between atoms: C_17  and  C_18
REMARK    5  A    between atoms: C_18  and  C_19
REMARK    6  A    between atoms: C_19  and  O_20
REMARK    7  A    between atoms: O_20  and  C_24
REMARK                            x       y       z     vdW  Elec       q    Type
REMARK                         _______ _______ _______ _____ _____    ______ ____
ROOT
ATOM      1  C   UNL     1      35.633 -18.560 -22.450  0.00  0.00    -0.077 C 
ENDROOT
BRANCH   1   2
ATOM      2  N   UNL     1      35.462 -17.110 -22.535  0.00  0.00    +0.389 N 
ATOM      3  N   UNL     1      34.013 -14.649 -22.496  0.00  0.00    -0.311 N 
ATOM      4  C   UNL     1      34.560 -16.762 -23.639  0.00  0.00    -0.055 C 
ATOM      5  C   UNL     1      34.934 -16.579 -21.273  0.00  0.00    -0.055 C 
ATOM      6  C   UNL     1      34.803 -15.055 -21.329  0.00  0.00    +0.068 C 
ATOM      7  C   UNL     1      34.417 -15.245 -23.776  0.00  0.00    +0.068 C 
ATOM      8  H   UNL     1      36.376 -16.693 -22.712  0.00  0.00    -0.080 HD
BRANCH   3  11
ATOM      9 CL   UNL     1      32.017 -14.137 -20.321  0.00  0.00    -0.080 Cl
ATOM     10 CL   UNL     1      30.697 -11.215 -20.478  0.00  0.00    -0.081 Cl
ATOM     11  C   UNL     1      33.410 -13.387 -22.520  0.00  0.00    +0.059 C 
ATOM     12  C   UNL     1      32.460 -13.013 -21.568  0.00  0.00    +0.081 C 
ATOM     13  C   UNL     1      33.777 -12.495 -23.527  0.00  0.00    +0.015 C 
ATOM     14  C   UNL     1      31.879 -11.746 -21.624  0.00  0.00    +0.069 C 
ATOM     15  C   UNL     1      33.196 -11.228 -23.582  0.00  0.00    +0.002 C 
ATOM     16  C   UNL     1      32.247 -10.854 -22.631  0.00  0.00    +0.012 C 
ENDBRANCH   3  11
ENDBRANCH   1   2
BRANCH   1  17
ATOM     17  C   UNL     1      35.206 -19.066 -21.073  0.00  0.00    -0.019 C 
BRANCH  17  18
ATOM     18  C   UNL     1      34.120 -20.134 -21.188  0.00  0.00    +0.045 C 
BRANCH  18  19
ATOM     19  C   UNL     1      33.965 -20.920 -19.893  0.00  0.00    +0.205 C 
BRANCH  19  20
ATOM     20  O   UNL     1      35.118 -21.722 -19.677  0.00  0.00    -0.475 OA
BRANCH  20  24
ATOM     21  O   UNL     1      36.134 -23.273 -14.472  0.00  0.00    -0.464 OA
ATOM     22  O   UNL     1      32.981 -24.836 -13.652  0.00  0.00    -0.271 OA
ATOM     23  N   UNL     1      33.614 -23.838 -15.624  0.00  0.00    -0.278 N 
ATOM     24  C   UNL     1      35.358 -22.124 -18.388  0.00  0.00    +0.140 C 
ATOM     25  C   UNL     1      34.366 -22.790 -17.669  0.00  0.00    +0.055 C 
ATOM     26  C   UNL     1      34.619 -23.203 -16.360  0.00  0.00    +0.088 C 
ATOM     27  C   UNL     1      36.594 -21.861 -17.796  0.00  0.00    +0.040 C 
ATOM     28  C   UNL     1      35.854 -22.944 -15.768  0.00  0.00    +0.153 C 
ATOM     29  C   UNL     1      36.841 -22.264 -16.483  0.00  0.00    +0.041 C 
ATOM     30  C   UNL     1      35.307 -24.290 -13.940  0.00  0.00    +0.290 C 
ATOM     31  C   UNL     1      33.848 -24.331 -14.361  0.00  0.00    +0.271 C 
ATOM     32  H   UNL     1      32.718 -23.935 -16.019  0.00  0.00    +0.155 HD
ENDBRANCH  20  24
ENDBRANCH  19  20
ENDBRANCH  18  19
ENDBRANCH  17  18
ENDBRANCH   1  17
TORSDOF 7
ENDMDL
MODEL 8
REMARK VINA RESULT:     -11.0      2.794      4.729
REMARK  Name = 46861612
REMARK  7 active torsions:
REMARK  status: ('A' for Active; 'I' for Inactive)
REMARK    1  A    between atoms: C_1  and  N_2
REMARK    2  A    between atoms: C_1  and  C_17
REMARK    3  A    between atoms: N_3  and  C_11
REMARK    4  A    between atoms: C_17  and  C_18
REMARK    5  A    between atoms: C_18  and  C_19
REMARK    6  A    between atoms: C_19  and  O_20
REMARK    7  A    between atoms: O_20  and  C_24
REMARK                            x       y       z     vdW  Elec       q    Type
REMARK                         _______ _______ _______ _____ _____    ______ ____
ROOT
ATOM      1  C   UNL     1      32.761 -14.030 -23.041  0.00  0.00    -0.077 C 
ENDROOT
BRANCH   1   2
ATOM      2  N   UNL     1      32.950 -12.678 -22.519  0.00  0.00    +0.389 N 
ATOM      3  N   UNL     1      32.426  -9.881 -22.272  0.00  0.00    -0.311 N 
ATOM      4  C   UNL     1      33.320 -11.755 -23.599  0.00  0.00    -0.055 C 
ATOM      5  C   UNL     1      31.728 -12.207 -21.857  0.00  0.00    -0.055 C 
ATOM      6  C   UNL     1      31.930 -10.814 -21.255  0.00  0.00    +0.068 C 
ATOM      7  C   UNL     1      33.577 -10.348 -23.056  0.00  0.00    +0.068 C 
ATOM      8  H   UNL     1      33.706 -12.705 -21.834  0.00  0.00    -0.080 HD
BRANCH   3  11
ATOM      9 CL   UNL     1      31.621  -8.327 -24.705  0.00  0.00    -0.080 Cl
ATOM     10 CL   UNL     1      31.310  -5.180 -24.149  0.00  0.00    -0.081 Cl
ATOM     11  C   UNL     1      32.276  -8.502 -22.082  0.00  0.00    +0.059 C 
ATOM     12  C   UNL     1      31.905  -7.657 -23.128  0.00  0.00    +0.081 C 
ATOM     13  C   UNL     1      32.507  -7.980 -20.810  0.00  0.00    +0.015 C 
ATOM     14  C   UNL     1      31.766  -6.287 -22.900  0.00  0.00    +0.069 C 
ATOM     15  C   UNL     1      32.367  -6.611 -20.583  0.00  0.00    +0.002 C 
ATOM     16  C   UNL     1      31.997  -5.764 -21.628  0.00  0.00    +0.012 C 
ENDBRANCH   3  11
ENDBRANCH   1   2
BRANCH   1  17
ATOM     17  C   UNL     1      33.728 -14.295 -24.193  0.00  0.00    -0.019 C 
BRANCH  17  18
ATOM     18  C   UNL     1      33.932 -15.793 -24.411  0.00  0.00    +0.045 C 
BRANCH  18  19
ATOM     19  C   UNL     1      34.869 -16.390 -23.370  0.00  0.00    +0.205 C 
BRANCH  19  20
ATOM     20  O   UNL     1      35.031 -17.782 -23.610  0.00  0.00    -0.475 OA
BRANCH  20  24
ATOM     21  O   UNL     1      36.079 -20.911 -19.178  0.00  0.00    -0.464 OA
ATOM     22  O   UNL     1      32.831 -22.418 -18.688  0.00  0.00    -0.271 OA
ATOM     23  N   UNL     1      33.483 -20.916 -20.301  0.00  0.00    -0.278 N 
ATOM     24  C   UNL     1      35.278 -18.573 -22.517  0.00  0.00    +0.140 C 
ATOM     25  C   UNL     1      34.256 -19.353 -21.977  0.00  0.00    +0.055 C 
ATOM     26  C   UNL     1      34.515 -20.161 -20.869  0.00  0.00    +0.088 C 
ATOM     27  C   UNL     1      36.550 -18.592 -21.945  0.00  0.00    +0.040 C 
ATOM     28  C   UNL     1      35.786 -20.184 -20.297  0.00  0.00    +0.153 C 
ATOM     29  C   UNL     1      36.803 -19.392 -20.830  0.00  0.00    +0.041 C 
ATOM     30  C   UNL     1      35.185 -21.980 -18.930  0.00  0.00    +0.290 C 
ATOM     31  C   UNL     1      33.715 -21.785 -19.261  0.00  0.00    +0.271 C 
ATOM     32  H   UNL     1      32.570 -20.823 -20.656  0.00  0.00    +0.155 HD
ENDBRANCH  20  24
ENDBRANCH  19  20
ENDBRANCH  18  19
ENDBRANCH  17  18
ENDBRANCH   1  17
TORSDOF 7
ENDMDL
MODEL 9
REMARK VINA RESULT:     -10.8      3.146      5.488
REMARK  Name = 46861612
REMARK  7 active torsions:
REMARK  status: ('A' for Active; 'I' for Inactive)
REMARK    1  A    between atoms: C_1  and  N_2
REMARK    2  A    between atoms: C_1  and  C_17
REMARK    3  A    between atoms: N_3  and  C_11
REMARK    4  A    between atoms: C_17  and  C_18
REMARK    5  A    between atoms: C_18  and  C_19
REMARK    6  A    between atoms: C_19  and  O_20
REMARK    7  A    between atoms: O_20  and  C_24
REMARK                            x       y       z     vdW  Elec       q    Type
REMARK                         _______ _______ _______ _____ _____    ______ ____
ROOT
ATOM      1  C   UNL     1      35.984 -21.739 -19.136  0.00  0.00    -0.077 C 
ENDROOT
BRANCH   1   2
ATOM      2  N   UNL     1      35.855 -20.886 -20.316  0.00  0.00    +0.389 N 
ATOM      3  N   UNL     1      35.209 -18.505 -21.755  0.00  0.00    -0.311 N 
ATOM      4  C   UNL     1      34.454 -20.500 -20.523  0.00  0.00    -0.055 C 
ATOM      5  C   UNL     1      36.688 -19.685 -20.178  0.00  0.00    -0.055 C 
ATOM      6  C   UNL     1      36.606 -18.811 -21.432  0.00  0.00    +0.068 C 
ATOM      7  C   UNL     1      34.297 -19.655 -21.788  0.00  0.00    +0.068 C 
ATOM      8  H   UNL     1      36.174 -21.417 -21.127  0.00  0.00    -0.080 HD
BRANCH   3  11
ATOM      9 CL   UNL     1      34.824 -15.907 -20.311  0.00  0.00    -0.080 Cl
ATOM     10 CL   UNL     1      34.142 -13.459 -22.273  0.00  0.00    -0.081 Cl
ATOM     11  C   UNL     1      34.910 -17.405 -22.567  0.00  0.00    +0.059 C 
ATOM     12  C   UNL     1      34.705 -16.134 -22.029  0.00  0.00    +0.081 C 
ATOM     13  C   UNL     1      34.819 -17.603 -23.945  0.00  0.00    +0.015 C 
ATOM     14  C   UNL     1      34.408 -15.061 -22.870  0.00  0.00    +0.069 C 
ATOM     15  C   UNL     1      34.523 -16.530 -24.785  0.00  0.00    +0.002 C 
ATOM     16  C   UNL     1      34.317 -15.259 -24.248  0.00  0.00    +0.012 C 
ENDBRANCH   3  11
ENDBRANCH   1   2
BRANCH   1  17
ATOM     17  C   UNL     1      34.626 -22.316 -18.745  0.00  0.00    -0.019 C 
BRANCH  17  18
ATOM     18  C   UNL     1      34.571 -22.642 -17.254  0.00  0.00    +0.045 C 
BRANCH  18  19
ATOM     19  C   UNL     1      33.541 -23.723 -16.952  0.00  0.00    +0.205 C 
BRANCH  19  20
ATOM     20  O   UNL     1      33.216 -23.705 -15.568  0.00  0.00    -0.475 OA
BRANCH  20  24
ATOM     21  O   UNL     1      36.914 -25.815 -12.047  0.00  0.00    -0.464 OA
ATOM     22  O   UNL     1      39.410 -26.991 -14.382  0.00  0.00    -0.271 OA
ATOM     23  N   UNL     1      37.416 -25.935 -14.828  0.00  0.00    -0.278 N 
ATOM     24  C   UNL     1      34.149 -24.223 -14.708  0.00  0.00    +0.140 C 
ATOM     25  C   UNL     1      35.315 -24.802 -15.209  0.00  0.00    +0.055 C 
ATOM     26  C   UNL     1      36.264 -25.321 -14.327  0.00  0.00    +0.088 C 
ATOM     27  C   UNL     1      33.929 -24.174 -13.331  0.00  0.00    +0.040 C 
ATOM     28  C   UNL     1      36.047 -25.270 -12.951  0.00  0.00    +0.153 C 
ATOM     29  C   UNL     1      34.874 -24.704 -12.452  0.00  0.00    +0.041 C 
ATOM     30  C   UNL     1      38.230 -25.990 -12.538  0.00  0.00    +0.290 C 
ATOM     31  C   UNL     1      38.412 -26.386 -13.993  0.00  0.00    +0.271 C 
ATOM     32  H   UNL     1      37.517 -26.047 -15.800  0.00  0.00    +0.155 HD
ENDBRANCH  20  24
ENDBRANCH  19  20
ENDBRANCH  18  19
ENDBRANCH  17  18
ENDBRANCH   1  17
TORSDOF 7
ENDMDL
