MODEL 1
REMARK VINA RESULT:     -11.5      0.000      0.000
REMARK  Name = 447653
REMARK  8 active torsions:
REMARK  status: ('A' for Active; 'I' for Inactive)
REMARK    1  A    between atoms: N_2  and  C_20
REMARK    2  A    between atoms: C_4  and  C_11
REMARK    3  A    between atoms: C_19  and  O_25
REMARK    4  A    between atoms: O_25  and  C_26
REMARK    5  A    between atoms: C_26  and  C_27
REMARK    6  A    between atoms: C_27  and  O_28
REMARK    7  A    between atoms: C_27  and  C_30
REMARK    8  A    between atoms: C_30  and  N_31
REMARK                            x       y       z     vdW  Elec       q    Type
REMARK                         _______ _______ _______ _____ _____    ______ ____
ROOT
ATOM      1  N   UNL     1      34.424 -23.128 -16.652  0.00  0.00    -0.340 NA
ATOM      2  N   UNL     1      32.667 -22.405 -18.029  0.00  0.00    -0.247 N 
ATOM      3  N   UNL     1      32.133 -23.644 -16.109  0.00  0.00    -0.170 NA
ATOM      4  C   UNL     1      34.792 -23.794 -15.540  0.00  0.00    +0.148 C 
ATOM      5  C   UNL     1      33.911 -24.402 -14.675  0.00  0.00    +0.052 C 
ATOM      6  C   UNL     1      33.095 -23.093 -16.873  0.00  0.00    +0.148 C 
ATOM      7  C   UNL     1      32.578 -24.294 -15.014  0.00  0.00    +0.114 C 
ATOM      8  H   UNL     1      31.690 -22.404 -18.150  0.00  0.00    +0.165 HD
ENDROOT
BRANCH   4  11
ATOM      9  N   UNL     1      36.876 -24.844 -14.661  0.00  0.00    -0.251 N 
ATOM     10  N   UNL     1      38.432 -23.344 -15.236  0.00  0.00    -0.393 NA
ATOM     11  C   UNL     1      36.217 -23.829 -15.306  0.00  0.00    +0.181 C 
ATOM     12  C   UNL     1      38.226 -24.501 -14.643  0.00  0.00    +0.187 C 
ATOM     13  C   UNL     1      37.193 -22.923 -15.649  0.00  0.00    +0.114 C 
ATOM     14  C   UNL     1      36.372 -26.017 -14.106  0.00  0.00    +0.068 C 
ATOM     15  C   UNL     1      39.118 -25.419 -14.014  0.00  0.00    +0.048 C 
ATOM     16  C   UNL     1      37.048 -21.642 -16.360  0.00  0.00    +0.064 C 
ATOM     17  C   UNL     1      37.218 -26.876 -13.515  0.00  0.00    +0.016 C 
ATOM     18  C   UNL     1      38.636 -26.555 -13.475  0.00  0.00    +0.005 C 
ENDBRANCH   4  11
BRANCH   2  20
ATOM     19  C   UNL     1      34.741 -20.355 -21.051  0.00  0.00    +0.139 C 
ATOM     20  C   UNL     1      33.363 -21.718 -19.042  0.00  0.00    +0.058 C 
ATOM     21  C   UNL     1      35.421 -21.242 -20.217  0.00  0.00    +0.038 C 
ATOM     22  C   UNL     1      33.373 -20.148 -20.881  0.00  0.00    +0.038 C 
ATOM     23  C   UNL     1      34.732 -21.924 -19.214  0.00  0.00    +0.018 C 
ATOM     24  C   UNL     1      32.684 -20.828 -19.877  0.00  0.00    +0.018 C 
BRANCH  19  25
ATOM     25  O   UNL     1      35.414 -19.690 -22.031  0.00  0.00    -0.473 OA
BRANCH  25  26
ATOM     26  C   UNL     1      34.633 -18.951 -22.968  0.00  0.00    +0.232 C 
BRANCH  26  27
ATOM     27  C   UNL     1      34.926 -17.464 -22.790  0.00  0.00    +0.133 C 
BRANCH  27  28
ATOM     28  O   UNL     1      36.262 -17.315 -22.301  0.00  0.00    -0.383 OA
ATOM     29  H   UNL     1      36.358 -16.446 -21.881  0.00  0.00    +0.210 HD
ENDBRANCH  27  28
BRANCH  27  30
ATOM     30  C   UNL     1      34.801 -16.662 -24.088  0.00  0.00    -0.044 C 
BRANCH  30  31
ATOM     31  N   UNL     1      33.851 -15.564 -23.964  0.00  0.00    +0.386 N 
ATOM     32  C   UNL     1      34.388 -14.512 -23.099  0.00  0.00    -0.101 C 
ATOM     33  C   UNL     1      33.520 -15.018 -25.282  0.00  0.00    -0.101 C 
ATOM     34  H   UNL     1      32.999 -15.930 -23.540  0.00  0.00    -0.080 HD
ENDBRANCH  30  31
ENDBRANCH  27  30
ENDBRANCH  26  27
ENDBRANCH  25  26
ENDBRANCH  19  25
ENDBRANCH   2  20
TORSDOF 8
ENDMDL
MODEL 2
REMARK VINA RESULT:     -11.1      1.670      2.009
REMARK  Name = 447653
REMARK  8 active torsions:
REMARK  status: ('A' for Active; 'I' for Inactive)
REMARK    1  A    between atoms: N_2  and  C_20
REMARK    2  A    between atoms: C_4  and  C_11
REMARK    3  A    between atoms: C_19  and  O_25
REMARK    4  A    between atoms: O_25  and  C_26
REMARK    5  A    between atoms: C_26  and  C_27
REMARK    6  A    between atoms: C_27  and  O_28
REMARK    7  A    between atoms: C_27  and  C_30
REMARK    8  A    between atoms: C_30  and  N_31
REMARK                            x       y       z     vdW  Elec       q    Type
REMARK                         _______ _______ _______ _____ _____    ______ ____
ROOT
ATOM      1  N   UNL     1      33.844 -23.269 -15.803  0.00  0.00    -0.340 NA
ATOM      2  N   UNL     1      32.292 -22.910 -17.526  0.00  0.00    -0.247 N 
ATOM      3  N   UNL     1      31.576 -24.061 -15.610  0.00  0.00    -0.170 NA
ATOM      4  C   UNL     1      34.084 -23.788 -14.584  0.00  0.00    +0.148 C 
ATOM      5  C   UNL     1      33.143 -24.447 -13.825  0.00  0.00    +0.052 C 
ATOM      6  C   UNL     1      32.585 -23.439 -16.251  0.00  0.00    +0.148 C 
ATOM      7  C   UNL     1      31.892 -24.555 -14.396  0.00  0.00    +0.114 C 
ATOM      8  H   UNL     1      31.361 -23.057 -17.811  0.00  0.00    +0.165 HD
ENDROOT
BRANCH   4  11
ATOM      9  N   UNL     1      35.854 -23.867 -12.829  0.00  0.00    -0.251 N 
ATOM     10  N   UNL     1      37.647 -23.128 -13.943  0.00  0.00    -0.393 NA
ATOM     11  C   UNL     1      35.435 -23.604 -14.108  0.00  0.00    +0.181 C 
ATOM     12  C   UNL     1      37.212 -23.560 -12.778  0.00  0.00    +0.187 C 
ATOM     13  C   UNL     1      36.553 -23.153 -14.770  0.00  0.00    +0.114 C 
ATOM     14  C   UNL     1      35.131 -24.346 -11.740  0.00  0.00    +0.068 C 
ATOM     15  C   UNL     1      37.873 -23.757 -11.529  0.00  0.00    +0.048 C 
ATOM     16  C   UNL     1      36.679 -22.725 -16.173  0.00  0.00    +0.064 C 
ATOM     17  C   UNL     1      35.761 -24.529 -10.568  0.00  0.00    +0.016 C 
ATOM     18  C   UNL     1      37.179 -24.220 -10.472  0.00  0.00    +0.005 C 
ENDBRANCH   4  11
BRANCH   2  20
ATOM     19  C   UNL     1      34.612 -20.829 -20.341  0.00  0.00    +0.139 C 
ATOM     20  C   UNL     1      33.069 -22.212 -18.469  0.00  0.00    +0.058 C 
ATOM     21  C   UNL     1      33.255 -20.537 -20.203  0.00  0.00    +0.038 C 
ATOM     22  C   UNL     1      35.198 -21.812 -19.545  0.00  0.00    +0.038 C 
ATOM     23  C   UNL     1      32.484 -21.227 -19.267  0.00  0.00    +0.018 C 
ATOM     24  C   UNL     1      34.428 -22.503 -18.610  0.00  0.00    +0.018 C 
BRANCH  19  25
ATOM     25  O   UNL     1      35.364 -20.154 -21.254  0.00  0.00    -0.473 OA
BRANCH  25  26
ATOM     26  C   UNL     1      34.662 -19.385 -22.230  0.00  0.00    +0.232 C 
BRANCH  26  27
ATOM     27  C   UNL     1      35.409 -18.073 -22.454  0.00  0.00    +0.133 C 
BRANCH  27  28
ATOM     28  O   UNL     1      36.814 -18.338 -22.448  0.00  0.00    -0.383 OA
ATOM     29  H   UNL     1      37.301 -17.505 -22.349  0.00  0.00    +0.210 HD
ENDBRANCH  27  28
BRANCH  27  30
ATOM     30  C   UNL     1      35.058 -17.395 -23.780  0.00  0.00    -0.044 C 
BRANCH  30  31
ATOM     31  N   UNL     1      34.959 -15.947 -23.646  0.00  0.00    +0.386 N 
ATOM     32  C   UNL     1      33.926 -15.416 -24.537  0.00  0.00    -0.101 C 
ATOM     33  C   UNL     1      34.672 -15.576 -22.259  0.00  0.00    -0.101 C 
ATOM     34  H   UNL     1      35.856 -15.543 -23.912  0.00  0.00    -0.080 HD
ENDBRANCH  30  31
ENDBRANCH  27  30
ENDBRANCH  26  27
ENDBRANCH  25  26
ENDBRANCH  19  25
ENDBRANCH   2  20
TORSDOF 8
ENDMDL
MODEL 3
REMARK VINA RESULT:     -10.9      2.854     11.738
REMARK  Name = 447653
REMARK  8 active torsions:
REMARK  status: ('A' for Active; 'I' for Inactive)
REMARK    1  A    between atoms: N_2  and  C_20
REMARK    2  A    between atoms: C_4  and  C_11
REMARK    3  A    between atoms: C_19  and  O_25
REMARK    4  A    between atoms: O_25  and  C_26
REMARK    5  A    between atoms: C_26  and  C_27
REMARK    6  A    between atoms: C_27  and  O_28
REMARK    7  A    between atoms: C_27  and  C_30
REMARK    8  A    between atoms: C_30  and  N_31
REMARK                            x       y       z     vdW  Elec       q    Type
REMARK                         _______ _______ _______ _____ _____    ______ ____
ROOT
ATOM      1  N   UNL     1      33.638 -15.032 -23.360  0.00  0.00    -0.340 NA
ATOM      2  N   UNL     1      34.504 -16.956 -24.386  0.00  0.00    -0.247 N 
ATOM      3  N   UNL     1      33.858 -15.164 -25.757  0.00  0.00    -0.170 NA
ATOM      4  C   UNL     1      33.137 -13.792 -23.518  0.00  0.00    +0.148 C 
ATOM      5  C   UNL     1      32.966 -13.176 -24.737  0.00  0.00    +0.052 C 
ATOM      6  C   UNL     1      33.975 -15.654 -24.508  0.00  0.00    +0.148 C 
ATOM      7  C   UNL     1      33.348 -13.919 -25.835  0.00  0.00    +0.114 C 
ATOM      8  H   UNL     1      34.736 -17.371 -25.249  0.00  0.00    +0.165 HD
ENDROOT
BRANCH   4  11
ATOM      9  N   UNL     1      32.370 -11.822 -22.193  0.00  0.00    -0.251 N 
ATOM     10  N   UNL     1      32.349 -12.641 -20.112  0.00  0.00    -0.393 NA
ATOM     11  C   UNL     1      32.777 -13.129 -22.286  0.00  0.00    +0.181 C 
ATOM     12  C   UNL     1      32.121 -11.572 -20.846  0.00  0.00    +0.187 C 
ATOM     13  C   UNL     1      32.755 -13.608 -20.997  0.00  0.00    +0.114 C 
ATOM     14  C   UNL     1      32.211 -10.870 -23.197  0.00  0.00    +0.068 C 
ATOM     15  C   UNL     1      31.680 -10.259 -20.503  0.00  0.00    +0.048 C 
ATOM     16  C   UNL     1      33.100 -14.954 -20.511  0.00  0.00    +0.064 C 
ATOM     17  C   UNL     1      31.796  -9.637 -22.865  0.00  0.00    +0.016 C 
ATOM     18  C   UNL     1      31.525  -9.334 -21.469  0.00  0.00    +0.005 C 
ENDBRANCH   4  11
BRANCH   2  20
ATOM     19  C   UNL     1      35.289 -19.408 -21.067  0.00  0.00    +0.139 C 
ATOM     20  C   UNL     1      34.768 -17.778 -23.274  0.00  0.00    +0.058 C 
ATOM     21  C   UNL     1      34.663 -19.939 -22.195  0.00  0.00    +0.038 C 
ATOM     22  C   UNL     1      35.653 -18.062 -21.042  0.00  0.00    +0.038 C 
ATOM     23  C   UNL     1      34.403 -19.125 -23.298  0.00  0.00    +0.018 C 
ATOM     24  C   UNL     1      35.393 -17.247 -22.144  0.00  0.00    +0.018 C 
BRANCH  19  25
ATOM     25  O   UNL     1      35.543 -20.203 -19.991  0.00  0.00    -0.473 OA
BRANCH  25  26
ATOM     26  C   UNL     1      35.048 -21.540 -20.043  0.00  0.00    +0.232 C 
BRANCH  26  27
ATOM     27  C   UNL     1      33.857 -21.662 -19.096  0.00  0.00    +0.133 C 
BRANCH  27  28
ATOM     28  O   UNL     1      32.653 -21.503 -19.851  0.00  0.00    -0.383 OA
ATOM     29  H   UNL     1      32.428 -20.561 -19.909  0.00  0.00    +0.210 HD
ENDBRANCH  27  28
BRANCH  27  30
ATOM     30  C   UNL     1      33.792 -23.009 -18.374  0.00  0.00    -0.044 C 
BRANCH  30  31
ATOM     31  N   UNL     1      33.612 -22.853 -16.937  0.00  0.00    +0.386 N 
ATOM     32  C   UNL     1      32.407 -23.554 -16.488  0.00  0.00    -0.101 C 
ATOM     33  C   UNL     1      34.785 -23.346 -16.212  0.00  0.00    -0.101 C 
ATOM     34  H   UNL     1      33.501 -21.859 -16.738  0.00  0.00    -0.080 HD
ENDBRANCH  30  31
ENDBRANCH  27  30
ENDBRANCH  26  27
ENDBRANCH  25  26
ENDBRANCH  19  25
ENDBRANCH   2  20
TORSDOF 8
ENDMDL
MODEL 4
REMARK VINA RESULT:     -10.2      1.690      4.119
REMARK  Name = 447653
REMARK  8 active torsions:
REMARK  status: ('A' for Active; 'I' for Inactive)
REMARK    1  A    between atoms: N_2  and  C_20
REMARK    2  A    between atoms: C_4  and  C_11
REMARK    3  A    between atoms: C_19  and  O_25
REMARK    4  A    between atoms: O_25  and  C_26
REMARK    5  A    between atoms: C_26  and  C_27
REMARK    6  A    between atoms: C_27  and  O_28
REMARK    7  A    between atoms: C_27  and  C_30
REMARK    8  A    between atoms: C_30  and  N_31
REMARK                            x       y       z     vdW  Elec       q    Type
REMARK                         _______ _______ _______ _____ _____    ______ ____
ROOT
ATOM      1  N   UNL     1      34.915 -22.742 -16.841  0.00  0.00    -0.340 NA
ATOM      2  N   UNL     1      36.871 -21.927 -17.847  0.00  0.00    -0.247 N 
ATOM      3  N   UNL     1      37.082 -23.233 -15.908  0.00  0.00    -0.170 NA
ATOM      4  C   UNL     1      34.370 -23.460 -15.840  0.00  0.00    +0.148 C 
ATOM      5  C   UNL     1      35.095 -24.085 -14.852  0.00  0.00    +0.052 C 
ATOM      6  C   UNL     1      36.260 -22.671 -16.815  0.00  0.00    +0.148 C 
ATOM      7  C   UNL     1      36.464 -23.935 -14.937  0.00  0.00    +0.114 C 
ATOM      8  H   UNL     1      37.854 -21.903 -17.788  0.00  0.00    +0.165 HD
ENDROOT
BRANCH   4  11
ATOM      9  N   UNL     1      32.158 -24.178 -14.936  0.00  0.00    -0.251 N 
ATOM     10  N   UNL     1      30.740 -23.318 -16.436  0.00  0.00    -0.393 NA
ATOM     11  C   UNL     1      32.927 -23.534 -15.872  0.00  0.00    +0.181 C 
ATOM     12  C   UNL     1      30.831 -24.018 -15.325  0.00  0.00    +0.187 C 
ATOM     13  C   UNL     1      32.034 -23.016 -16.780  0.00  0.00    +0.114 C 
ATOM     14  C   UNL     1      32.549 -24.875 -13.796  0.00  0.00    +0.068 C 
ATOM     15  C   UNL     1      29.837 -24.612 -14.492  0.00  0.00    +0.048 C 
ATOM     16  C   UNL     1      32.310 -22.228 -17.993  0.00  0.00    +0.064 C 
ATOM     17  C   UNL     1      31.607 -25.431 -13.017  0.00  0.00    +0.016 C 
ATOM     18  C   UNL     1      30.208 -25.288 -13.388  0.00  0.00    +0.005 C 
ENDBRANCH   4  11
BRANCH   2  20
ATOM     19  C   UNL     1      35.321 -19.800 -21.119  0.00  0.00    +0.139 C 
ATOM     20  C   UNL     1      36.353 -21.214 -18.944  0.00  0.00    +0.058 C 
ATOM     21  C   UNL     1      36.608 -19.525 -20.655  0.00  0.00    +0.038 C 
ATOM     22  C   UNL     1      34.550 -20.780 -20.496  0.00  0.00    +0.038 C 
ATOM     23  C   UNL     1      37.123 -20.232 -19.568  0.00  0.00    +0.018 C 
ATOM     24  C   UNL     1      35.064 -21.487 -19.409  0.00  0.00    +0.018 C 
BRANCH  19  25
ATOM     25  O   UNL     1      34.819 -19.109 -22.180  0.00  0.00    -0.473 OA
BRANCH  25  26
ATOM     26  C   UNL     1      35.558 -17.971 -22.622  0.00  0.00    +0.232 C 
BRANCH  26  27
ATOM     27  C   UNL     1      34.720 -16.718 -22.385  0.00  0.00    +0.133 C 
BRANCH  27  28
ATOM     28  O   UNL     1      35.030 -16.196 -21.090  0.00  0.00    -0.383 OA
ATOM     29  H   UNL     1      34.926 -16.896 -20.426  0.00  0.00    +0.210 HD
ENDBRANCH  27  28
BRANCH  27  30
ATOM     30  C   UNL     1      34.975 -15.616 -23.416  0.00  0.00    -0.044 C 
BRANCH  30  31
ATOM     31  N   UNL     1      33.781 -14.824 -23.678  0.00  0.00    +0.386 N 
ATOM     32  C   UNL     1      33.974 -13.439 -23.243  0.00  0.00    -0.101 C 
ATOM     33  C   UNL     1      33.436 -14.864 -25.101  0.00  0.00    -0.101 C 
ATOM     34  H   UNL     1      33.011 -15.227 -23.145  0.00  0.00    -0.080 HD
ENDBRANCH  30  31
ENDBRANCH  27  30
ENDBRANCH  26  27
ENDBRANCH  25  26
ENDBRANCH  19  25
ENDBRANCH   2  20
TORSDOF 8
ENDMDL
MODEL 5
REMARK VINA RESULT:      -9.7      6.064     14.078
REMARK  Name = 447653
REMARK  8 active torsions:
REMARK  status: ('A' for Active; 'I' for Inactive)
REMARK    1  A    between atoms: N_2  and  C_20
REMARK    2  A    between atoms: C_4  and  C_11
REMARK    3  A    between atoms: C_19  and  O_25
REMARK    4  A    between atoms: O_25  and  C_26
REMARK    5  A    between atoms: C_26  and  C_27
REMARK    6  A    between atoms: C_27  and  O_28
REMARK    7  A    between atoms: C_27  and  C_30
REMARK    8  A    between atoms: C_30  and  N_31
REMARK                            x       y       z     vdW  Elec       q    Type
REMARK                         _______ _______ _______ _____ _____    ______ ____
ROOT
ATOM      1  N   UNL     1      32.402 -10.208 -20.988  0.00  0.00    -0.340 NA
ATOM      2  N   UNL     1      32.166 -12.344 -20.048  0.00  0.00    -0.247 N 
ATOM      3  N   UNL     1      31.436 -10.497 -18.799  0.00  0.00    -0.170 NA
ATOM      4  C   UNL     1      32.220  -8.881 -20.846  0.00  0.00    +0.148 C 
ATOM      5  C   UNL     1      31.664  -8.291 -19.734  0.00  0.00    +0.052 C 
ATOM      6  C   UNL     1      31.992 -10.948 -19.939  0.00  0.00    +0.148 C 
ATOM      7  C   UNL     1      31.286  -9.158 -18.729  0.00  0.00    +0.114 C 
ATOM      8  H   UNL     1      31.852 -12.845 -19.260  0.00  0.00    +0.165 HD
ENDROOT
BRANCH   4  11
ATOM      9  N   UNL     1      32.321  -6.779 -22.185  0.00  0.00    -0.251 N 
ATOM     10  N   UNL     1      33.640  -7.376 -23.890  0.00  0.00    -0.393 NA
ATOM     11  C   UNL     1      32.660  -8.090 -21.972  0.00  0.00    +0.181 C 
ATOM     12  C   UNL     1      32.943  -6.388 -23.368  0.00  0.00    +0.187 C 
ATOM     13  C   UNL     1      33.469  -8.432 -23.031  0.00  0.00    +0.114 C 
ATOM     14  C   UNL     1      31.521  -5.935 -21.420  0.00  0.00    +0.068 C 
ATOM     15  C   UNL     1      32.731  -5.044 -23.797  0.00  0.00    +0.048 C 
ATOM     16  C   UNL     1      34.119  -9.723 -23.311  0.00  0.00    +0.064 C 
ATOM     17  C   UNL     1      31.326  -4.671 -21.830  0.00  0.00    +0.016 C 
ATOM     18  C   UNL     1      31.958  -4.223 -23.061  0.00  0.00    +0.005 C 
ENDBRANCH   4  11
BRANCH   2  20
ATOM     19  C   UNL     1      33.754 -14.784 -23.076  0.00  0.00    +0.139 C 
ATOM     20  C   UNL     1      32.698 -13.163 -21.062  0.00  0.00    +0.058 C 
ATOM     21  C   UNL     1      34.203 -14.921 -21.762  0.00  0.00    +0.038 C 
ATOM     22  C   UNL     1      32.778 -13.837 -23.383  0.00  0.00    +0.038 C 
ATOM     23  C   UNL     1      33.675 -14.111 -20.756  0.00  0.00    +0.018 C 
ATOM     24  C   UNL     1      32.250 -13.026 -22.378  0.00  0.00    +0.018 C 
BRANCH  19  25
ATOM     25  O   UNL     1      34.269 -15.575 -24.057  0.00  0.00    -0.473 OA
BRANCH  25  26
ATOM     26  C   UNL     1      35.168 -16.607 -23.653  0.00  0.00    +0.232 C 
BRANCH  26  27
ATOM     27  C   UNL     1      34.408 -17.930 -23.603  0.00  0.00    +0.133 C 
BRANCH  27  28
ATOM     28  O   UNL     1      34.087 -18.326 -24.939  0.00  0.00    -0.383 OA
ATOM     29  H   UNL     1      34.811 -18.075 -25.534  0.00  0.00    +0.210 HD
ENDBRANCH  27  28
BRANCH  27  30
ATOM     30  C   UNL     1      35.205 -19.061 -22.949  0.00  0.00    -0.044 C 
BRANCH  30  31
ATOM     31  N   UNL     1      35.271 -18.919 -21.500  0.00  0.00    +0.386 N 
ATOM     32  C   UNL     1      34.535 -20.000 -20.841  0.00  0.00    -0.101 C 
ATOM     33  C   UNL     1      36.662 -18.903 -21.046  0.00  0.00    -0.101 C 
ATOM     34  H   UNL     1      34.836 -18.031 -21.250  0.00  0.00    -0.080 HD
ENDBRANCH  30  31
ENDBRANCH  27  30
ENDBRANCH  26  27
ENDBRANCH  25  26
ENDBRANCH  19  25
ENDBRANCH   2  20
TORSDOF 8
ENDMDL
MODEL 6
REMARK VINA RESULT:      -9.7      1.952      2.791
REMARK  Name = 447653
REMARK  8 active torsions:
REMARK  status: ('A' for Active; 'I' for Inactive)
REMARK    1  A    between atoms: N_2  and  C_20
REMARK    2  A    between atoms: C_4  and  C_11
REMARK    3  A    between atoms: C_19  and  O_25
REMARK    4  A    between atoms: O_25  and  C_26
REMARK    5  A    between atoms: C_26  and  C_27
REMARK    6  A    between atoms: C_27  and  O_28
REMARK    7  A    between atoms: C_27  and  C_30
REMARK    8  A    between atoms: C_30  and  N_31
REMARK                            x       y       z     vdW  Elec       q    Type
REMARK                         _______ _______ _______ _____ _____    ______ ____
ROOT
ATOM      1  N   UNL     1      35.056 -23.974 -14.504  0.00  0.00    -0.340 NA
ATOM      2  N   UNL     1      33.455 -23.419 -16.128  0.00  0.00    -0.247 N 
ATOM      3  N   UNL     1      32.726 -24.495 -14.173  0.00  0.00    -0.170 NA
ATOM      4  C   UNL     1      35.306 -24.528 -13.302  0.00  0.00    +0.148 C 
ATOM      5  C   UNL     1      34.342 -25.077 -12.488  0.00  0.00    +0.052 C 
ATOM      6  C   UNL     1      33.760 -23.990 -14.873  0.00  0.00    +0.148 C 
ATOM      7  C   UNL     1      33.054 -25.033 -12.981  0.00  0.00    +0.114 C 
ATOM      8  H   UNL     1      32.498 -23.453 -16.356  0.00  0.00    +0.165 HD
ENDROOT
BRANCH   4  11
ATOM      9  N   UNL     1      37.698 -25.191 -13.551  0.00  0.00    -0.251 N 
ATOM     10  N   UNL     1      38.662 -24.099 -11.853  0.00  0.00    -0.393 NA
ATOM     11  C   UNL     1      36.696 -24.507 -12.909  0.00  0.00    +0.181 C 
ATOM     12  C   UNL     1      38.879 -24.910 -12.868  0.00  0.00    +0.187 C 
ATOM     13  C   UNL     1      37.313 -23.846 -11.874  0.00  0.00    +0.114 C 
ATOM     14  C   UNL     1      37.631 -26.020 -14.666  0.00  0.00    +0.068 C 
ATOM     15  C   UNL     1      40.071 -25.519 -13.360  0.00  0.00    +0.048 C 
ATOM     16  C   UNL     1      36.714 -22.962 -10.861  0.00  0.00    +0.064 C 
ATOM     17  C   UNL     1      38.757 -26.590 -15.124  0.00  0.00    +0.016 C 
ATOM     18  C   UNL     1      40.013 -26.323 -14.440  0.00  0.00    +0.005 C 
ENDBRANCH   4  11
BRANCH   2  20
ATOM     19  C   UNL     1      35.831 -21.602 -19.076  0.00  0.00    +0.139 C 
ATOM     20  C   UNL     1      34.251 -22.810 -17.116  0.00  0.00    +0.058 C 
ATOM     21  C   UNL     1      34.487 -21.873 -19.333  0.00  0.00    +0.038 C 
ATOM     22  C   UNL     1      36.386 -21.935 -17.841  0.00  0.00    +0.038 C 
ATOM     23  C   UNL     1      33.697 -22.476 -18.353  0.00  0.00    +0.018 C 
ATOM     24  C   UNL     1      35.597 -22.539 -16.862  0.00  0.00    +0.018 C 
BRANCH  19  25
ATOM     25  O   UNL     1      36.600 -21.013 -20.033  0.00  0.00    -0.473 OA
BRANCH  25  26
ATOM     26  C   UNL     1      35.921 -20.285 -21.055  0.00  0.00    +0.232 C 
BRANCH  26  27
ATOM     27  C   UNL     1      36.378 -18.830 -21.009  0.00  0.00    +0.133 C 
BRANCH  27  28
ATOM     28  O   UNL     1      37.438 -18.652 -21.953  0.00  0.00    -0.383 OA
ATOM     29  H   UNL     1      38.260 -18.445 -21.482  0.00  0.00    +0.210 HD
ENDBRANCH  27  28
BRANCH  27  30
ATOM     30  C   UNL     1      35.265 -17.835 -21.348  0.00  0.00    -0.044 C 
BRANCH  30  31
ATOM     31  N   UNL     1      35.440 -17.247 -22.670  0.00  0.00    +0.386 N 
ATOM     32  C   UNL     1      34.655 -17.978 -23.667  0.00  0.00    -0.101 C 
ATOM     33  C   UNL     1      35.057 -15.834 -22.661  0.00  0.00    -0.101 C 
ATOM     34  H   UNL     1      36.426 -17.316 -22.919  0.00  0.00    -0.080 HD
ENDBRANCH  30  31
ENDBRANCH  27  30
ENDBRANCH  26  27
ENDBRANCH  25  26
ENDBRANCH  19  25
ENDBRANCH   2  20
TORSDOF 8
ENDMDL
MODEL 7
REMARK VINA RESULT:      -9.6      7.803     15.989
REMARK  Name = 447653
REMARK  8 active torsions:
REMARK  status: ('A' for Active; 'I' for Inactive)
REMARK    1  A    between atoms: N_2  and  C_20
REMARK    2  A    between atoms: C_4  and  C_11
REMARK    3  A    between atoms: C_19  and  O_25
REMARK    4  A    between atoms: O_25  and  C_26
REMARK    5  A    between atoms: C_26  and  C_27
REMARK    6  A    between atoms: C_27  and  O_28
REMARK    7  A    between atoms: C_27  and  C_30
REMARK    8  A    between atoms: C_30  and  N_31
REMARK                            x       y       z     vdW  Elec       q    Type
REMARK                         _______ _______ _______ _____ _____    ______ ____
ROOT
ATOM      1  N   UNL     1      32.600  -7.818 -22.673  0.00  0.00    -0.340 NA
ATOM      2  N   UNL     1      31.578  -9.141 -21.028  0.00  0.00    -0.247 N 
ATOM      3  N   UNL     1      31.359  -6.810 -20.870  0.00  0.00    -0.170 NA
ATOM      4  C   UNL     1      32.847  -6.578 -23.139  0.00  0.00    +0.148 C 
ATOM      5  C   UNL     1      32.396  -5.423 -22.541  0.00  0.00    +0.052 C 
ATOM      6  C   UNL     1      31.859  -7.860 -21.549  0.00  0.00    +0.148 C 
ATOM      7  C   UNL     1      31.648  -5.602 -21.395  0.00  0.00    +0.114 C 
ATOM      8  H   UNL     1      31.034  -9.124 -20.207  0.00  0.00    +0.165 HD
ENDROOT
BRANCH   4  11
ATOM      9  N   UNL     1      33.429  -5.675 -25.390  0.00  0.00    -0.251 N 
ATOM     10  N   UNL     1      35.192  -6.930 -25.954  0.00  0.00    -0.393 NA
ATOM     11  C   UNL     1      33.642  -6.537 -24.345  0.00  0.00    +0.181 C 
ATOM     12  C   UNL     1      34.400  -5.954 -26.348  0.00  0.00    +0.187 C 
ATOM     13  C   UNL     1      34.728  -7.295 -24.715  0.00  0.00    +0.114 C 
ATOM     14  C   UNL     1      32.458  -4.689 -25.542  0.00  0.00    +0.068 C 
ATOM     15  C   UNL     1      34.377  -5.173 -27.540  0.00  0.00    +0.048 C 
ATOM     16  C   UNL     1      35.390  -8.378 -23.969  0.00  0.00    +0.064 C 
ATOM     17  C   UNL     1      32.443  -3.957 -26.667  0.00  0.00    +0.016 C 
ATOM     18  C   UNL     1      33.441  -4.217 -27.693  0.00  0.00    +0.005 C 
ENDBRANCH   4  11
BRANCH   2  20
ATOM     19  C   UNL     1      32.599 -13.014 -22.290  0.00  0.00    +0.139 C 
ATOM     20  C   UNL     1      31.921 -10.439 -21.451  0.00  0.00    +0.058 C 
ATOM     21  C   UNL     1      32.878 -11.918 -23.107  0.00  0.00    +0.038 C 
ATOM     22  C   UNL     1      31.980 -12.824 -21.055  0.00  0.00    +0.038 C 
ATOM     23  C   UNL     1      32.540 -10.632 -22.687  0.00  0.00    +0.018 C 
ATOM     24  C   UNL     1      31.640 -11.538 -20.636  0.00  0.00    +0.018 C 
BRANCH  19  25
ATOM     25  O   UNL     1      32.930 -14.270 -22.700  0.00  0.00    -0.473 OA
BRANCH  25  26
ATOM     26  C   UNL     1      33.819 -14.376 -23.811  0.00  0.00    +0.232 C 
BRANCH  26  27
ATOM     27  C   UNL     1      33.682 -15.769 -24.421  0.00  0.00    +0.133 C 
BRANCH  27  28
ATOM     28  O   UNL     1      33.529 -15.637 -25.836  0.00  0.00    -0.383 OA
ATOM     29  H   UNL     1      32.941 -14.891 -26.031  0.00  0.00    +0.210 HD
ENDBRANCH  27  28
BRANCH  27  30
ATOM     30  C   UNL     1      34.891 -16.668 -24.153  0.00  0.00    -0.044 C 
BRANCH  30  31
ATOM     31  N   UNL     1      34.531 -17.856 -23.390  0.00  0.00    +0.386 N 
ATOM     32  C   UNL     1      34.043 -18.912 -24.279  0.00  0.00    -0.101 C 
ATOM     33  C   UNL     1      35.676 -18.337 -22.613  0.00  0.00    -0.101 C 
ATOM     34  H   UNL     1      33.783 -17.603 -22.745  0.00  0.00    -0.080 HD
ENDBRANCH  30  31
ENDBRANCH  27  30
ENDBRANCH  26  27
ENDBRANCH  25  26
ENDBRANCH  19  25
ENDBRANCH   2  20
TORSDOF 8
ENDMDL
MODEL 8
REMARK VINA RESULT:      -9.5      1.549      4.298
REMARK  Name = 447653
REMARK  8 active torsions:
REMARK  status: ('A' for Active; 'I' for Inactive)
REMARK    1  A    between atoms: N_2  and  C_20
REMARK    2  A    between atoms: C_4  and  C_11
REMARK    3  A    between atoms: C_19  and  O_25
REMARK    4  A    between atoms: O_25  and  C_26
REMARK    5  A    between atoms: C_26  and  C_27
REMARK    6  A    between atoms: C_27  and  O_28
REMARK    7  A    between atoms: C_27  and  C_30
REMARK    8  A    between atoms: C_30  and  N_31
REMARK                            x       y       z     vdW  Elec       q    Type
REMARK                         _______ _______ _______ _____ _____    ______ ____
ROOT
ATOM      1  N   UNL     1      35.865 -23.160 -15.750  0.00  0.00    -0.340 NA
ATOM      2  N   UNL     1      37.399 -22.413 -17.361  0.00  0.00    -0.247 N 
ATOM      3  N   UNL     1      38.229 -23.536 -15.474  0.00  0.00    -0.170 NA
ATOM      4  C   UNL     1      35.671 -23.791 -14.576  0.00  0.00    +0.148 C 
ATOM      5  C   UNL     1      36.683 -24.314 -13.803  0.00  0.00    +0.052 C 
ATOM      6  C   UNL     1      37.153 -23.069 -16.135  0.00  0.00    +0.148 C 
ATOM      7  C   UNL     1      37.957 -24.155 -14.308  0.00  0.00    +0.114 C 
ATOM      8  H   UNL     1      38.353 -22.371 -17.602  0.00  0.00    +0.165 HD
ENDROOT
BRANCH   4  11
ATOM      9  N   UNL     1      33.215 -23.647 -14.986  0.00  0.00    -0.251 N 
ATOM     10  N   UNL     1      32.377 -24.192 -12.985  0.00  0.00    -0.393 NA
ATOM     11  C   UNL     1      34.289 -23.887 -14.167  0.00  0.00    +0.181 C 
ATOM     12  C   UNL     1      32.070 -23.845 -14.218  0.00  0.00    +0.187 C 
ATOM     13  C   UNL     1      33.749 -24.219 -12.947  0.00  0.00    +0.114 C 
ATOM     14  C   UNL     1      33.188 -23.275 -16.327  0.00  0.00    +0.068 C 
ATOM     15  C   UNL     1      30.815 -23.650 -14.866  0.00  0.00    +0.048 C 
ATOM     16  C   UNL     1      34.444 -24.574 -11.699  0.00  0.00    +0.064 C 
ATOM     17  C   UNL     1      32.002 -23.093 -16.929  0.00  0.00    +0.016 C 
ATOM     18  C   UNL     1      30.782 -23.290 -16.163  0.00  0.00    +0.005 C 
ENDBRANCH   4  11
BRANCH   2  20
ATOM     19  C   UNL     1      34.865 -20.612 -20.185  0.00  0.00    +0.139 C 
ATOM     20  C   UNL     1      36.549 -21.810 -18.306  0.00  0.00    +0.058 C 
ATOM     21  C   UNL     1      34.399 -21.669 -19.403  0.00  0.00    +0.038 C 
ATOM     22  C   UNL     1      36.173 -20.154 -20.029  0.00  0.00    +0.038 C 
ATOM     23  C   UNL     1      35.240 -22.267 -18.464  0.00  0.00    +0.018 C 
ATOM     24  C   UNL     1      37.014 -20.752 -19.091  0.00  0.00    +0.018 C 
BRANCH  19  25
ATOM     25  O   UNL     1      34.043 -20.029 -21.100  0.00  0.00    -0.473 OA
BRANCH  25  26
ATOM     26  C   UNL     1      34.554 -19.871 -22.423  0.00  0.00    +0.232 C 
BRANCH  26  27
ATOM     27  C   UNL     1      35.048 -18.437 -22.592  0.00  0.00    +0.133 C 
BRANCH  27  28
ATOM     28  O   UNL     1      36.478 -18.440 -22.583  0.00  0.00    -0.383 OA
ATOM     29  H   UNL     1      36.809 -18.084 -23.422  0.00  0.00    +0.210 HD
ENDBRANCH  27  28
BRANCH  27  30
ATOM     30  C   UNL     1      34.581 -17.785 -23.896  0.00  0.00    -0.044 C 
BRANCH  30  31
ATOM     31  N   UNL     1      34.876 -16.359 -23.931  0.00  0.00    +0.386 N 
ATOM     32  C   UNL     1      33.953 -15.664 -24.831  0.00  0.00    -0.101 C 
ATOM     33  C   UNL     1      34.803 -15.783 -22.587  0.00  0.00    -0.101 C 
ATOM     34  H   UNL     1      35.825 -16.241 -24.285  0.00  0.00    -0.080 HD
ENDBRANCH  30  31
ENDBRANCH  27  30
ENDBRANCH  26  27
ENDBRANCH  25  26
ENDBRANCH  19  25
ENDBRANCH   2  20
TORSDOF 8
ENDMDL
MODEL 9
REMARK VINA RESULT:      -9.2      6.294     13.625
REMARK  Name = 447653
REMARK  8 active torsions:
REMARK  status: ('A' for Active; 'I' for Inactive)
REMARK    1  A    between atoms: N_2  and  C_20
REMARK    2  A    between atoms: C_4  and  C_11
REMARK    3  A    between atoms: C_19  and  O_25
REMARK    4  A    between atoms: O_25  and  C_26
REMARK    5  A    between atoms: C_26  and  C_27
REMARK    6  A    between atoms: C_27  and  O_28
REMARK    7  A    between atoms: C_27  and  C_30
REMARK    8  A    between atoms: C_30  and  N_31
REMARK                            x       y       z     vdW  Elec       q    Type
REMARK                         _______ _______ _______ _____ _____    ______ ____
ROOT
ATOM      1  N   UNL     1      32.308 -10.124 -20.962  0.00  0.00    -0.340 NA
ATOM      2  N   UNL     1      32.216 -12.292 -20.069  0.00  0.00    -0.247 N 
ATOM      3  N   UNL     1      31.538 -10.503 -18.710  0.00  0.00    -0.170 NA
ATOM      4  C   UNL     1      32.099  -8.808 -20.766  0.00  0.00    +0.148 C 
ATOM      5  C   UNL     1      31.620  -8.267 -19.595  0.00  0.00    +0.052 C 
ATOM      6  C   UNL     1      32.010 -10.905 -19.905  0.00  0.00    +0.148 C 
ATOM      7  C   UNL     1      31.355  -9.172 -18.589  0.00  0.00    +0.114 C 
ATOM      8  H   UNL     1      31.985 -12.823 -19.272  0.00  0.00    +0.165 HD
ENDROOT
BRANCH   4  11
ATOM      9  N   UNL     1      33.428  -8.228 -22.796  0.00  0.00    -0.251 N 
ATOM     10  N   UNL     1      32.449  -6.333 -23.467  0.00  0.00    -0.393 NA
ATOM     11  C   UNL     1      32.419  -7.974 -21.902  0.00  0.00    +0.181 C 
ATOM     12  C   UNL     1      33.406  -7.197 -23.732  0.00  0.00    +0.187 C 
ATOM     13  C   UNL     1      31.834  -6.808 -22.336  0.00  0.00    +0.114 C 
ATOM     14  C   UNL     1      34.337  -9.281 -22.830  0.00  0.00    +0.068 C 
ATOM     15  C   UNL     1      34.380  -7.248 -24.773  0.00  0.00    +0.048 C 
ATOM     16  C   UNL     1      30.700  -6.076 -21.750  0.00  0.00    +0.064 C 
ATOM     17  C   UNL     1      35.251  -9.322 -23.814  0.00  0.00    +0.016 C 
ATOM     18  C   UNL     1      35.262  -8.265 -24.812  0.00  0.00    +0.005 C 
ENDBRANCH   4  11
BRANCH   2  20
ATOM     19  C   UNL     1      33.616 -14.598 -23.288  0.00  0.00    +0.139 C 
ATOM     20  C   UNL     1      32.685 -13.065 -21.147  0.00  0.00    +0.058 C 
ATOM     21  C   UNL     1      34.155 -14.778 -22.014  0.00  0.00    +0.038 C 
ATOM     22  C   UNL     1      32.612 -13.651 -23.492  0.00  0.00    +0.038 C 
ATOM     23  C   UNL     1      33.690 -14.013 -20.945  0.00  0.00    +0.018 C 
ATOM     24  C   UNL     1      32.147 -12.885 -22.423  0.00  0.00    +0.018 C 
BRANCH  19  25
ATOM     25  O   UNL     1      34.071 -15.345 -24.331  0.00  0.00    -0.473 OA
BRANCH  25  26
ATOM     26  C   UNL     1      35.106 -16.286 -24.052  0.00  0.00    +0.232 C 
BRANCH  26  27
ATOM     27  C   UNL     1      34.471 -17.633 -23.719  0.00  0.00    +0.133 C 
BRANCH  27  28
ATOM     28  O   UNL     1      33.940 -18.200 -24.920  0.00  0.00    -0.383 OA
ATOM     29  H   UNL     1      34.667 -18.433 -25.517  0.00  0.00    +0.210 HD
ENDBRANCH  27  28
BRANCH  27  30
ATOM     30  C   UNL     1      35.458 -18.635 -23.115  0.00  0.00    -0.044 C 
BRANCH  30  31
ATOM     31  N   UNL     1      35.316 -18.740 -21.669  0.00  0.00    +0.386 N 
ATOM     32  C   UNL     1      34.474 -19.884 -21.314  0.00  0.00    -0.101 C 
ATOM     33  C   UNL     1      36.628 -18.859 -21.029  0.00  0.00    -0.101 C 
ATOM     34  H   UNL     1      34.866 -17.889 -21.333  0.00  0.00    -0.080 HD
ENDBRANCH  30  31
ENDBRANCH  27  30
ENDBRANCH  26  27
ENDBRANCH  25  26
ENDBRANCH  19  25
ENDBRANCH   2  20
TORSDOF 8
ENDMDL
