MODEL 1
REMARK VINA RESULT:     -11.9      0.000      0.000
REMARK  Name = 16122642
REMARK  7 active torsions:
REMARK  status: ('A' for Active; 'I' for Inactive)
REMARK    1  A    between atoms: C_2  and  C_10
REMARK    2  A    between atoms: C_3  and  O_18
REMARK    3  A    between atoms: O_18  and  C_19
REMARK    4  A    between atoms: C_19  and  C_20
REMARK    5  A    between atoms: C_20  and  N_21
REMARK    6  A    between atoms: C_20  and  C_25
REMARK    7  A    between atoms: C_25  and  C_27
REMARK                            x       y       z     vdW  Elec       q    Type
REMARK                         _______ _______ _______ _____ _____    ______ ____
ROOT
ATOM      1  N   UNL     1      33.556 -15.417 -25.435  0.00  0.00    -0.239 NA
ATOM      2  C   UNL     1      33.405 -14.202 -23.358  0.00  0.00    +0.022 C 
ATOM      3  C   UNL     1      34.756 -16.181 -23.481  0.00  0.00    +0.158 C 
ATOM      4  C   UNL     1      34.253 -15.113 -22.746  0.00  0.00    +0.040 C 
ATOM      5  C   UNL     1      33.088 -14.391 -24.689  0.00  0.00    +0.099 C 
ATOM      6  C   UNL     1      34.381 -16.286 -24.810  0.00  0.00    +0.136 C 
ENDROOT
BRANCH   2  10
ATOM      7  N   UNL     1      31.557  -8.991 -21.606  0.00  0.00    -0.280 N 
ATOM      8  N   UNL     1      31.359  -9.860 -20.596  0.00  0.00    -0.173 NA
ATOM      9  C   UNL     1      32.289 -10.854 -22.415  0.00  0.00    +0.032 A 
ATOM     10  C   UNL     1      32.865 -13.076 -22.617  0.00  0.00    +0.002 C 
ATOM     11  C   UNL     1      31.805 -11.038 -21.068  0.00  0.00    +0.102 A 
ATOM     12  C   UNL     1      32.831 -11.820 -23.253  0.00  0.00    +0.003 C 
ATOM     13  C   UNL     1      32.115  -9.535 -22.726  0.00  0.00    +0.053 A 
ATOM     14  C   UNL     1      32.399 -13.311 -21.286  0.00  0.00    +0.002 C 
ATOM     15  C   UNL     1      31.852 -12.305 -20.458  0.00  0.00    +0.021 C 
ATOM     16  C   UNL     1      32.400  -8.730 -23.926  0.00  0.00    +0.051 C 
ATOM     17  H   UNL     1      31.319  -8.039 -21.541  0.00  0.00    +0.189 HD
ENDBRANCH   2  10
BRANCH   3  18
ATOM     18  O   UNL     1      35.587 -17.089 -22.914  0.00  0.00    -0.476 OA
BRANCH  18  19
ATOM     19  C   UNL     1      35.220 -17.603 -21.631  0.00  0.00    +0.184 C 
BRANCH  19  20
ATOM     20  C   UNL     1      34.861 -19.090 -21.738  0.00  0.00    -0.017 C 
BRANCH  20  21
ATOM     21  N   UNL     1      34.909 -19.476 -23.151  0.00  0.00    +0.384 N 
ATOM     22  H   UNL     1      34.724 -20.475 -23.236  0.00  0.00    -0.089 HD
ATOM     23  H   UNL     1      35.832 -19.268 -23.529  0.00  0.00    -0.089 HD
ATOM     24  H   UNL     1      34.202 -18.954 -23.670  0.00  0.00    -0.089 HD
ENDBRANCH  20  21
BRANCH  20  25
ATOM     25  C   UNL     1      35.826 -20.005 -20.953  0.00  0.00    +0.008 C 
BRANCH  25  27
ATOM     26 BR   UNL     1      33.092 -23.684 -16.822  0.00  0.00    -0.049 Br
ATOM     27  C   UNL     1      35.158 -20.904 -19.942  0.00  0.00    -0.024 C 
ATOM     28  C   UNL     1      35.938 -21.618 -19.046  0.00  0.00    -0.004 C 
ATOM     29  C   UNL     1      33.776 -21.000 -19.929  0.00  0.00    -0.004 C 
ATOM     30  C   UNL     1      35.320 -22.450 -18.113  0.00  0.00    +0.006 C 
ATOM     31  C   UNL     1      33.158 -21.832 -18.995  0.00  0.00    +0.006 C 
ATOM     32  C   UNL     1      33.929 -22.556 -18.087  0.00  0.00    +0.035 C 
ENDBRANCH  25  27
ENDBRANCH  20  25
ENDBRANCH  19  20
ENDBRANCH  18  19
ENDBRANCH   3  18
TORSDOF 7
ENDMDL
MODEL 2
REMARK VINA RESULT:     -11.4      5.821     12.228
REMARK  Name = 16122642
REMARK  7 active torsions:
REMARK  status: ('A' for Active; 'I' for Inactive)
REMARK    1  A    between atoms: C_2  and  C_10
REMARK    2  A    between atoms: C_3  and  O_18
REMARK    3  A    between atoms: O_18  and  C_19
REMARK    4  A    between atoms: C_19  and  C_20
REMARK    5  A    between atoms: C_20  and  N_21
REMARK    6  A    between atoms: C_20  and  C_25
REMARK    7  A    between atoms: C_25  and  C_27
REMARK                            x       y       z     vdW  Elec       q    Type
REMARK                         _______ _______ _______ _____ _____    ______ ____
ROOT
ATOM      1  N   UNL     1      31.470 -23.478 -15.086  0.00  0.00    -0.239 NA
ATOM      2  C   UNL     1      33.879 -23.583 -15.113  0.00  0.00    +0.022 C 
ATOM      3  C   UNL     1      32.689 -23.064 -17.132  0.00  0.00    +0.158 C 
ATOM      4  C   UNL     1      33.892 -23.273 -16.465  0.00  0.00    +0.040 C 
ATOM      5  C   UNL     1      32.658 -23.673 -14.471  0.00  0.00    +0.099 C 
ATOM      6  C   UNL     1      31.516 -23.177 -16.403  0.00  0.00    +0.136 C 
ENDROOT
BRANCH   2  10
ATOM      7  N   UNL     1      37.942 -24.574 -11.096  0.00  0.00    -0.280 N 
ATOM      8  N   UNL     1      38.562 -24.439 -12.285  0.00  0.00    -0.173 NA
ATOM      9  C   UNL     1      36.308 -24.215 -12.459  0.00  0.00    +0.032 A 
ATOM     10  C   UNL     1      35.117 -23.805 -14.390  0.00  0.00    +0.002 C 
ATOM     11  C   UNL     1      37.568 -24.213 -13.163  0.00  0.00    +0.102 A 
ATOM     12  C   UNL     1      35.043 -24.020 -12.999  0.00  0.00    +0.003 C 
ATOM     13  C   UNL     1      36.585 -24.449 -11.142  0.00  0.00    +0.053 A 
ATOM     14  C   UNL     1      36.339 -23.794 -15.132  0.00  0.00    +0.002 C 
ATOM     15  C   UNL     1      37.611 -23.996 -14.553  0.00  0.00    +0.021 C 
ATOM     16  C   UNL     1      35.748 -24.569  -9.936  0.00  0.00    +0.051 C 
ATOM     17  H   UNL     1      38.431 -24.749 -10.260  0.00  0.00    +0.189 HD
ENDBRANCH   2  10
BRANCH   3  18
ATOM     18  O   UNL     1      32.666 -22.760 -18.452  0.00  0.00    -0.476 OA
BRANCH  18  19
ATOM     19  C   UNL     1      33.922 -22.519 -19.091  0.00  0.00    +0.184 C 
BRANCH  19  20
ATOM     20  C   UNL     1      33.779 -21.412 -20.144  0.00  0.00    -0.017 C 
BRANCH  20  21
ATOM     21  N   UNL     1      32.637 -20.570 -19.776  0.00  0.00    +0.384 N 
ATOM     22  H   UNL     1      32.211 -20.929 -18.922  0.00  0.00    -0.089 HD
ATOM     23  H   UNL     1      31.949 -20.581 -20.529  0.00  0.00    -0.089 HD
ATOM     24  H   UNL     1      32.956 -19.614 -19.621  0.00  0.00    -0.089 HD
ENDBRANCH  20  21
BRANCH  20  25
ATOM     25  C   UNL     1      35.028 -20.513 -20.253  0.00  0.00    +0.008 C 
BRANCH  25  27
ATOM     26 BR   UNL     1      34.696 -16.170 -24.624  0.00  0.00    -0.049 Br
ATOM     27  C   UNL     1      34.948 -19.450 -21.322  0.00  0.00    -0.024 C 
ATOM     28  C   UNL     1      35.306 -18.147 -21.013  0.00  0.00    -0.004 C 
ATOM     29  C   UNL     1      34.517 -19.797 -22.591  0.00  0.00    -0.004 C 
ATOM     30  C   UNL     1      35.231 -17.166 -22.001  0.00  0.00    +0.006 C 
ATOM     31  C   UNL     1      34.441 -18.816 -23.579  0.00  0.00    +0.006 C 
ATOM     32  C   UNL     1      34.799 -17.500 -23.285  0.00  0.00    +0.035 C 
ENDBRANCH  25  27
ENDBRANCH  20  25
ENDBRANCH  19  20
ENDBRANCH  18  19
ENDBRANCH   3  18
TORSDOF 7
ENDMDL
MODEL 3
REMARK VINA RESULT:     -11.3      3.762      9.508
REMARK  Name = 16122642
REMARK  7 active torsions:
REMARK  status: ('A' for Active; 'I' for Inactive)
REMARK    1  A    between atoms: C_2  and  C_10
REMARK    2  A    between atoms: C_3  and  O_18
REMARK    3  A    between atoms: O_18  and  C_19
REMARK    4  A    between atoms: C_19  and  C_20
REMARK    5  A    between atoms: C_20  and  N_21
REMARK    6  A    between atoms: C_20  and  C_25
REMARK    7  A    between atoms: C_25  and  C_27
REMARK                            x       y       z     vdW  Elec       q    Type
REMARK                         _______ _______ _______ _____ _____    ______ ____
ROOT
ATOM      1  N   UNL     1      34.171 -17.045 -24.984  0.00  0.00    -0.239 NA
ATOM      2  C   UNL     1      34.993 -17.571 -22.779  0.00  0.00    +0.022 C 
ATOM      3  C   UNL     1      34.579 -15.285 -23.378  0.00  0.00    +0.158 C 
ATOM      4  C   UNL     1      34.993 -16.226 -22.441  0.00  0.00    +0.040 C 
ATOM      5  C   UNL     1      34.579 -17.931 -24.047  0.00  0.00    +0.099 C 
ATOM      6  C   UNL     1      34.181 -15.742 -24.624  0.00  0.00    +0.136 C 
ENDROOT
BRANCH   2  10
ATOM      7  N   UNL     1      35.290 -21.899 -18.930  0.00  0.00    -0.280 N 
ATOM      8  N   UNL     1      36.538 -21.431 -19.121  0.00  0.00    -0.173 NA
ATOM      9  C   UNL     1      35.002 -20.316 -20.369  0.00  0.00    +0.032 A 
ATOM     10  C   UNL     1      35.419 -18.576 -21.822  0.00  0.00    +0.002 C 
ATOM     11  C   UNL     1      36.396 -20.438 -20.017  0.00  0.00    +0.102 A 
ATOM     12  C   UNL     1      34.435 -19.414 -21.260  0.00  0.00    +0.003 C 
ATOM     13  C   UNL     1      34.324 -21.265 -19.656  0.00  0.00    +0.053 A 
ATOM     14  C   UNL     1      36.811 -18.657 -21.507  0.00  0.00    +0.002 C 
ATOM     15  C   UNL     1      37.356 -19.587 -20.595  0.00  0.00    +0.021 C 
ATOM     16  C   UNL     1      32.905 -21.648 -19.571  0.00  0.00    +0.051 C 
ATOM     17  H   UNL     1      35.089 -22.640 -18.314  0.00  0.00    +0.189 HD
ENDBRANCH   2  10
BRANCH   3  18
ATOM     18  O   UNL     1      34.566 -13.963 -23.081  0.00  0.00    -0.476 OA
BRANCH  18  19
ATOM     19  C   UNL     1      34.123 -13.588 -21.774  0.00  0.00    +0.184 C 
BRANCH  19  20
ATOM     20  C   UNL     1      32.635 -13.919 -21.603  0.00  0.00    -0.017 C 
BRANCH  20  21
ATOM     21  N   UNL     1      32.335 -13.964 -20.169  0.00  0.00    +0.384 N 
ATOM     22  H   UNL     1      32.825 -14.751 -19.744  0.00  0.00    -0.089 HD
ATOM     23  H   UNL     1      31.330 -14.077 -20.035  0.00  0.00    -0.089 HD
ATOM     24  H   UNL     1      32.641 -13.096 -19.730  0.00  0.00    -0.089 HD
ENDBRANCH  20  21
BRANCH  20  25
ATOM     25  C   UNL     1      31.703 -12.879 -22.260  0.00  0.00    +0.008 C 
BRANCH  25  27
ATOM     26 BR   UNL     1      32.554  -7.077 -20.338  0.00  0.00    -0.049 Br
ATOM     27  C   UNL     1      31.911 -11.460 -21.789  0.00  0.00    -0.024 C 
ATOM     28  C   UNL     1      31.560 -11.115 -20.493  0.00  0.00    -0.004 C 
ATOM     29  C   UNL     1      32.450 -10.529 -22.661  0.00  0.00    -0.004 C 
ATOM     30  C   UNL     1      31.752  -9.803 -20.059  0.00  0.00    +0.006 C 
ATOM     31  C   UNL     1      32.642  -9.217 -22.227  0.00  0.00    +0.006 C 
ATOM     32  C   UNL     1      32.294  -8.854 -20.927  0.00  0.00    +0.035 C 
ENDBRANCH  25  27
ENDBRANCH  20  25
ENDBRANCH  19  20
ENDBRANCH  18  19
ENDBRANCH   3  18
TORSDOF 7
ENDMDL
MODEL 4
REMARK VINA RESULT:     -11.2      3.588      6.498
REMARK  Name = 16122642
REMARK  7 active torsions:
REMARK  status: ('A' for Active; 'I' for Inactive)
REMARK    1  A    between atoms: C_2  and  C_10
REMARK    2  A    between atoms: C_3  and  O_18
REMARK    3  A    between atoms: O_18  and  C_19
REMARK    4  A    between atoms: C_19  and  C_20
REMARK    5  A    between atoms: C_20  and  N_21
REMARK    6  A    between atoms: C_20  and  C_25
REMARK    7  A    between atoms: C_25  and  C_27
REMARK                            x       y       z     vdW  Elec       q    Type
REMARK                         _______ _______ _______ _____ _____    ______ ____
ROOT
ATOM      1  N   UNL     1      37.358 -19.860 -19.567  0.00  0.00    -0.239 NA
ATOM      2  C   UNL     1      35.592 -19.485 -21.166  0.00  0.00    +0.022 C 
ATOM      3  C   UNL     1      35.410 -21.293 -19.599  0.00  0.00    +0.158 C 
ATOM      4  C   UNL     1      34.882 -20.562 -20.658  0.00  0.00    +0.040 C 
ATOM      5  C   UNL     1      36.811 -19.173 -20.595  0.00  0.00    +0.099 C 
ATOM      6  C   UNL     1      36.641 -20.904 -19.094  0.00  0.00    +0.136 C 
ENDROOT
BRANCH   2  10
ATOM      7  N   UNL     1      33.789 -15.258 -24.704  0.00  0.00    -0.280 N 
ATOM      8  N   UNL     1      33.599 -16.433 -25.334  0.00  0.00    -0.173 NA
ATOM      9  C   UNL     1      34.502 -16.703 -23.268  0.00  0.00    +0.032 A 
ATOM     10  C   UNL     1      35.066 -18.703 -22.270  0.00  0.00    +0.002 C 
ATOM     11  C   UNL     1      34.035 -17.361 -24.464  0.00  0.00    +0.102 A 
ATOM     12  C   UNL     1      35.031 -17.301 -22.131  0.00  0.00    +0.003 C 
ATOM     13  C   UNL     1      34.331 -15.361 -23.456  0.00  0.00    +0.053 A 
ATOM     14  C   UNL     1      34.616 -19.402 -23.433  0.00  0.00    +0.002 C 
ATOM     15  C   UNL     1      34.083 -18.763 -24.575  0.00  0.00    +0.021 C 
ATOM     16  C   UNL     1      34.608 -14.177 -22.625  0.00  0.00    +0.051 C 
ATOM     17  H   UNL     1      33.555 -14.393 -25.111  0.00  0.00    +0.189 HD
ENDBRANCH   2  10
BRANCH   3  18
ATOM     18  O   UNL     1      34.743 -22.351 -19.079  0.00  0.00    -0.476 OA
BRANCH  18  19
ATOM     19  C   UNL     1      33.345 -22.186 -18.829  0.00  0.00    +0.184 C 
BRANCH  19  20
ATOM     20  C   UNL     1      33.011 -22.595 -17.389  0.00  0.00    -0.017 C 
BRANCH  20  21
ATOM     21  N   UNL     1      31.560 -22.779 -17.286  0.00  0.00    +0.384 N 
ATOM     22  H   UNL     1      31.174 -22.956 -18.213  0.00  0.00    -0.089 HD
ATOM     23  H   UNL     1      31.138 -21.936 -16.897  0.00  0.00    -0.089 HD
ATOM     24  H   UNL     1      31.360 -23.572 -16.677  0.00  0.00    -0.089 HD
ENDBRANCH  20  21
BRANCH  20  25
ATOM     25  C   UNL     1      33.697 -23.909 -16.956  0.00  0.00    +0.008 C 
BRANCH  25  27
ATOM     26 BR   UNL     1      36.902 -23.534 -11.697  0.00  0.00    -0.049 Br
ATOM     27  C   UNL     1      34.481 -23.816 -15.670  0.00  0.00    -0.024 C 
ATOM     28  C   UNL     1      35.735 -23.227 -15.680  0.00  0.00    -0.004 C 
ATOM     29  C   UNL     1      33.932 -24.323 -14.504  0.00  0.00    -0.004 C 
ATOM     30  C   UNL     1      36.460 -23.143 -14.491  0.00  0.00    +0.006 C 
ATOM     31  C   UNL     1      34.656 -24.238 -13.315  0.00  0.00    +0.006 C 
ATOM     32  C   UNL     1      35.920 -23.648 -13.308  0.00  0.00    +0.035 C 
ENDBRANCH  25  27
ENDBRANCH  20  25
ENDBRANCH  19  20
ENDBRANCH  18  19
ENDBRANCH   3  18
TORSDOF 7
ENDMDL
MODEL 5
REMARK VINA RESULT:     -11.2      5.065     11.196
REMARK  Name = 16122642
REMARK  7 active torsions:
REMARK  status: ('A' for Active; 'I' for Inactive)
REMARK    1  A    between atoms: C_2  and  C_10
REMARK    2  A    between atoms: C_3  and  O_18
REMARK    3  A    between atoms: O_18  and  C_19
REMARK    4  A    between atoms: C_19  and  C_20
REMARK    5  A    between atoms: C_20  and  N_21
REMARK    6  A    between atoms: C_20  and  C_25
REMARK    7  A    between atoms: C_25  and  C_27
REMARK                            x       y       z     vdW  Elec       q    Type
REMARK                         _______ _______ _______ _____ _____    ______ ____
ROOT
ATOM      1  N   UNL     1      36.717 -22.363 -16.527  0.00  0.00    -0.239 NA
ATOM      2  C   UNL     1      34.420 -23.089 -16.419  0.00  0.00    +0.022 C 
ATOM      3  C   UNL     1      35.278 -22.161 -18.459  0.00  0.00    +0.158 C 
ATOM      4  C   UNL     1      34.224 -22.714 -17.740  0.00  0.00    +0.040 C 
ATOM      5  C   UNL     1      35.669 -22.897 -15.860  0.00  0.00    +0.099 C 
ATOM      6  C   UNL     1      36.494 -22.009 -17.812  0.00  0.00    +0.136 C 
ENDROOT
BRANCH   2  10
ATOM      7  N   UNL     1      29.290 -24.853 -14.368  0.00  0.00    -0.280 N 
ATOM      8  N   UNL     1      30.243 -25.273 -13.513  0.00  0.00    -0.173 NA
ATOM      9  C   UNL     1      31.110 -24.121 -15.269  0.00  0.00    +0.032 A 
ATOM     10  C   UNL     1      33.339 -23.669 -15.644  0.00  0.00    +0.002 C 
ATOM     11  C   UNL     1      31.396 -24.834 -14.047  0.00  0.00    +0.102 A 
ATOM     12  C   UNL     1      32.023 -23.513 -16.121  0.00  0.00    +0.003 C 
ATOM     13  C   UNL     1      29.755 -24.153 -15.443  0.00  0.00    +0.053 A 
ATOM     14  C   UNL     1      33.675 -24.365 -14.440  0.00  0.00    +0.002 C 
ATOM     15  C   UNL     1      32.722 -24.974 -13.594  0.00  0.00    +0.021 C 
ATOM     16  C   UNL     1      28.853 -23.619 -16.477  0.00  0.00    +0.051 C 
ATOM     17  H   UNL     1      28.333 -25.034 -14.227  0.00  0.00    +0.189 HD
ENDBRANCH   2  10
BRANCH   3  18
ATOM     18  O   UNL     1      35.121 -21.785 -19.752  0.00  0.00    -0.476 OA
BRANCH  18  19
ATOM     19  C   UNL     1      36.020 -20.797 -20.261  0.00  0.00    +0.184 C 
BRANCH  19  20
ATOM     20  C   UNL     1      35.276 -19.830 -21.191  0.00  0.00    -0.017 C 
BRANCH  20  21
ATOM     21  N   UNL     1      33.865 -19.802 -20.794  0.00  0.00    +0.384 N 
ATOM     22  H   UNL     1      33.303 -20.267 -21.505  0.00  0.00    -0.089 HD
ATOM     23  H   UNL     1      33.558 -18.834 -20.698  0.00  0.00    -0.089 HD
ATOM     24  H   UNL     1      33.753 -20.284 -19.902  0.00  0.00    -0.089 HD
ENDBRANCH  20  21
BRANCH  20  25
ATOM     25  C   UNL     1      35.824 -18.389 -21.132  0.00  0.00    +0.008 C 
BRANCH  25  27
ATOM     26 BR   UNL     1      33.447 -14.560 -25.347  0.00  0.00    -0.049 Br
ATOM     27  C   UNL     1      35.244 -17.451 -22.162  0.00  0.00    -0.024 C 
ATOM     28  C   UNL     1      34.937 -16.149 -21.801  0.00  0.00    -0.004 C 
ATOM     29  C   UNL     1      35.027 -17.911 -23.451  0.00  0.00    -0.004 C 
ATOM     30  C   UNL     1      34.400 -15.284 -22.754  0.00  0.00    +0.006 C 
ATOM     31  C   UNL     1      34.489 -17.046 -24.403  0.00  0.00    +0.006 C 
ATOM     32  C   UNL     1      34.176 -15.733 -24.055  0.00  0.00    +0.035 C 
ENDBRANCH  25  27
ENDBRANCH  20  25
ENDBRANCH  19  20
ENDBRANCH  18  19
ENDBRANCH   3  18
TORSDOF 7
ENDMDL
MODEL 6
REMARK VINA RESULT:     -11.2      3.891      7.107
REMARK  Name = 16122642
REMARK  7 active torsions:
REMARK  status: ('A' for Active; 'I' for Inactive)
REMARK    1  A    between atoms: C_2  and  C_10
REMARK    2  A    between atoms: C_3  and  O_18
REMARK    3  A    between atoms: O_18  and  C_19
REMARK    4  A    between atoms: C_19  and  C_20
REMARK    5  A    between atoms: C_20  and  N_21
REMARK    6  A    between atoms: C_20  and  C_25
REMARK    7  A    between atoms: C_25  and  C_27
REMARK                            x       y       z     vdW  Elec       q    Type
REMARK                         _______ _______ _______ _____ _____    ______ ____
ROOT
ATOM      1  N   UNL     1      33.026 -21.994 -19.216  0.00  0.00    -0.239 NA
ATOM      2  C   UNL     1      34.476 -20.496 -20.430  0.00  0.00    +0.022 C 
ATOM      3  C   UNL     1      35.405 -21.975 -18.784  0.00  0.00    +0.158 C 
ATOM      4  C   UNL     1      35.577 -20.980 -19.740  0.00  0.00    +0.040 C 
ATOM      5  C   UNL     1      33.233 -21.028 -20.139  0.00  0.00    +0.099 C 
ATOM      6  C   UNL     1      34.120 -22.444 -18.562  0.00  0.00    +0.136 C 
ENDROOT
BRANCH   2  10
ATOM      7  N   UNL     1      34.981 -15.482 -23.299  0.00  0.00    -0.280 N 
ATOM      8  N   UNL     1      35.038 -16.482 -24.201  0.00  0.00    -0.173 NA
ATOM      9  C   UNL     1      34.780 -17.252 -22.080  0.00  0.00    +0.032 A 
ATOM     10  C   UNL     1      34.624 -19.459 -21.433  0.00  0.00    +0.002 C 
ATOM     11  C   UNL     1      34.916 -17.605 -23.472  0.00  0.00    +0.102 A 
ATOM     12  C   UNL     1      34.631 -18.117 -21.003  0.00  0.00    +0.003 C 
ATOM     13  C   UNL     1      34.826 -15.889 -22.006  0.00  0.00    +0.053 A 
ATOM     14  C   UNL     1      34.755 -19.860 -22.800  0.00  0.00    +0.002 C 
ATOM     15  C   UNL     1      34.906 -18.954 -23.872  0.00  0.00    +0.021 C 
ATOM     16  C   UNL     1      34.745 -14.930 -20.891  0.00  0.00    +0.051 C 
ATOM     17  H   UNL     1      35.044 -14.534 -23.554  0.00  0.00    +0.189 HD
ENDBRANCH   2  10
BRANCH   3  18
ATOM     18  O   UNL     1      36.460 -22.470 -18.092  0.00  0.00    -0.476 OA
BRANCH  18  19
ATOM     19  C   UNL     1      36.561 -22.117 -16.710  0.00  0.00    +0.184 C 
BRANCH  19  20
ATOM     20  C   UNL     1      36.194 -23.317 -15.828  0.00  0.00    -0.017 C 
BRANCH  20  21
ATOM     21  N   UNL     1      37.434 -23.935 -15.349  0.00  0.00    +0.384 N 
ATOM     22  H   UNL     1      38.199 -23.265 -15.427  0.00  0.00    -0.089 HD
ATOM     23  H   UNL     1      37.644 -24.758 -15.914  0.00  0.00    -0.089 HD
ATOM     24  H   UNL     1      37.322 -24.211 -14.374  0.00  0.00    -0.089 HD
ENDBRANCH  20  21
BRANCH  20  25
ATOM     25  C   UNL     1      35.341 -22.930 -14.601  0.00  0.00    +0.008 C 
BRANCH  25  27
ATOM     26 BR   UNL     1      29.776 -25.587 -14.394  0.00  0.00    -0.049 Br
ATOM     27  C   UNL     1      33.980 -23.579 -14.549  0.00  0.00    -0.024 C 
ATOM     28  C   UNL     1      33.697 -24.486 -13.540  0.00  0.00    -0.004 C 
ATOM     29  C   UNL     1      33.039 -23.258 -15.513  0.00  0.00    -0.004 C 
ATOM     30  C   UNL     1      32.439 -25.087 -13.493  0.00  0.00    +0.006 C 
ATOM     31  C   UNL     1      31.781 -23.858 -15.466  0.00  0.00    +0.006 C 
ATOM     32  C   UNL     1      31.481 -24.772 -14.457  0.00  0.00    +0.035 C 
ENDBRANCH  25  27
ENDBRANCH  20  25
ENDBRANCH  19  20
ENDBRANCH  18  19
ENDBRANCH   3  18
TORSDOF 7
ENDMDL
MODEL 7
REMARK VINA RESULT:     -11.2      5.246     11.868
REMARK  Name = 16122642
REMARK  7 active torsions:
REMARK  status: ('A' for Active; 'I' for Inactive)
REMARK    1  A    between atoms: C_2  and  C_10
REMARK    2  A    between atoms: C_3  and  O_18
REMARK    3  A    between atoms: O_18  and  C_19
REMARK    4  A    between atoms: C_19  and  C_20
REMARK    5  A    between atoms: C_20  and  N_21
REMARK    6  A    between atoms: C_20  and  C_25
REMARK    7  A    between atoms: C_25  and  C_27
REMARK                            x       y       z     vdW  Elec       q    Type
REMARK                         _______ _______ _______ _____ _____    ______ ____
ROOT
ATOM      1  N   UNL     1      32.625 -22.816 -18.079  0.00  0.00    -0.239 NA
ATOM      2  C   UNL     1      34.494 -23.183 -16.600  0.00  0.00    +0.022 C 
ATOM      3  C   UNL     1      34.805 -21.918 -18.615  0.00  0.00    +0.158 C 
ATOM      4  C   UNL     1      35.324 -22.464 -17.446  0.00  0.00    +0.040 C 
ATOM      5  C   UNL     1      33.166 -23.331 -16.952  0.00  0.00    +0.099 C 
ATOM      6  C   UNL     1      33.460 -22.121 -18.883  0.00  0.00    +0.136 C 
ENDROOT
BRANCH   2  10
ATOM      7  N   UNL     1      37.770 -25.556 -12.445  0.00  0.00    -0.280 N 
ATOM      8  N   UNL     1      36.524 -25.407 -11.953  0.00  0.00    -0.173 NA
ATOM      9  C   UNL     1      36.697 -24.674 -14.096  0.00  0.00    +0.032 A 
ATOM     10  C   UNL     1      35.007 -23.763 -15.373  0.00  0.00    +0.002 C 
ATOM     11  C   UNL     1      35.825 -24.856 -12.961  0.00  0.00    +0.102 A 
ATOM     12  C   UNL     1      36.365 -24.136 -15.333  0.00  0.00    +0.003 C 
ATOM     13  C   UNL     1      37.931 -25.132 -13.731  0.00  0.00    +0.053 A 
ATOM     14  C   UNL     1      34.103 -23.923 -14.276  0.00  0.00    +0.002 C 
ATOM     15  C   UNL     1      34.472 -24.474 -13.029  0.00  0.00    +0.021 C 
ATOM     16  C   UNL     1      39.226 -25.219 -14.426  0.00  0.00    +0.051 C 
ATOM     17  H   UNL     1      38.505 -25.943 -11.917  0.00  0.00    +0.189 HD
ENDBRANCH   2  10
BRANCH   3  18
ATOM     18  O   UNL     1      35.589 -21.210 -19.464  0.00  0.00    -0.476 OA
BRANCH  18  19
ATOM     19  C   UNL     1      34.949 -20.583 -20.578  0.00  0.00    +0.184 C 
BRANCH  19  20
ATOM     20  C   UNL     1      35.633 -19.249 -20.903  0.00  0.00    -0.017 C 
BRANCH  20  21
ATOM     21  N   UNL     1      37.012 -19.305 -20.407  0.00  0.00    +0.384 N 
ATOM     22  H   UNL     1      37.306 -20.278 -20.332  0.00  0.00    -0.089 HD
ATOM     23  H   UNL     1      37.061 -18.863 -19.489  0.00  0.00    -0.089 HD
ATOM     24  H   UNL     1      37.626 -18.813 -21.055  0.00  0.00    -0.089 HD
ENDBRANCH  20  21
BRANCH  20  25
ATOM     25  C   UNL     1      35.675 -18.940 -22.414  0.00  0.00    +0.008 C 
BRANCH  25  27
ATOM     26 BR   UNL     1      33.551 -13.356 -23.958  0.00  0.00    -0.049 Br
ATOM     27  C   UNL     1      35.155 -17.575 -22.793  0.00  0.00    -0.024 C 
ATOM     28  C   UNL     1      34.754 -17.338 -24.098  0.00  0.00    -0.004 C 
ATOM     29  C   UNL     1      35.088 -16.584 -21.827  0.00  0.00    -0.004 C 
ATOM     30  C   UNL     1      34.274 -16.075 -24.447  0.00  0.00    +0.006 C 
ATOM     31  C   UNL     1      34.608 -15.322 -22.176  0.00  0.00    +0.006 C 
ATOM     32  C   UNL     1      34.201 -15.067 -23.485  0.00  0.00    +0.035 C 
ENDBRANCH  25  27
ENDBRANCH  20  25
ENDBRANCH  19  20
ENDBRANCH  18  19
ENDBRANCH   3  18
TORSDOF 7
ENDMDL
MODEL 8
REMARK VINA RESULT:     -11.1      5.804     12.346
REMARK  Name = 16122642
REMARK  7 active torsions:
REMARK  status: ('A' for Active; 'I' for Inactive)
REMARK    1  A    between atoms: C_2  and  C_10
REMARK    2  A    between atoms: C_3  and  O_18
REMARK    3  A    between atoms: O_18  and  C_19
REMARK    4  A    between atoms: C_19  and  C_20
REMARK    5  A    between atoms: C_20  and  N_21
REMARK    6  A    between atoms: C_20  and  C_25
REMARK    7  A    between atoms: C_25  and  C_27
REMARK                            x       y       z     vdW  Elec       q    Type
REMARK                         _______ _______ _______ _____ _____    ______ ____
ROOT
ATOM      1  N   UNL     1      31.213 -23.418 -15.211  0.00  0.00    -0.239 NA
ATOM      2  C   UNL     1      33.555 -23.892 -14.885  0.00  0.00    +0.022 C 
ATOM      3  C   UNL     1      32.770 -23.215 -17.049  0.00  0.00    +0.158 C 
ATOM      4  C   UNL     1      33.815 -23.600 -16.216  0.00  0.00    +0.040 C 
ATOM      5  C   UNL     1      32.255 -23.788 -14.431  0.00  0.00    +0.099 C 
ATOM      6  C   UNL     1      31.499 -23.140 -16.502  0.00  0.00    +0.136 C 
ENDROOT
BRANCH   2  10
ATOM      7  N   UNL     1      38.620 -25.422 -12.510  0.00  0.00    -0.280 N 
ATOM      8  N   UNL     1      37.688 -25.430 -11.536  0.00  0.00    -0.173 NA
ATOM      9  C   UNL     1      36.821 -24.839 -13.551  0.00  0.00    +0.032 A 
ATOM     10  C   UNL     1      34.625 -24.295 -13.991  0.00  0.00    +0.002 C 
ATOM     11  C   UNL     1      36.549 -25.069 -12.153  0.00  0.00    +0.102 A 
ATOM     12  C   UNL     1      35.917 -24.451 -14.531  0.00  0.00    +0.003 C 
ATOM     13  C   UNL     1      38.153 -25.073 -13.743  0.00  0.00    +0.053 A 
ATOM     14  C   UNL     1      34.304 -24.511 -12.614  0.00  0.00    +0.002 C 
ATOM     15  C   UNL     1      35.248 -24.905 -11.641  0.00  0.00    +0.021 C 
ATOM     16  C   UNL     1      39.034 -25.012 -14.922  0.00  0.00    +0.051 C 
ATOM     17  H   UNL     1      39.562 -25.651 -12.344  0.00  0.00    +0.189 HD
ENDBRANCH   2  10
BRANCH   3  18
ATOM     18  O   UNL     1      32.989 -22.923 -18.354  0.00  0.00    -0.476 OA
BRANCH  18  19
ATOM     19  C   UNL     1      34.248 -22.339 -18.693  0.00  0.00    +0.184 C 
BRANCH  19  20
ATOM     20  C   UNL     1      34.115 -21.484 -19.960  0.00  0.00    -0.017 C 
BRANCH  20  21
ATOM     21  N   UNL     1      32.953 -20.605 -19.802  0.00  0.00    +0.384 N 
ATOM     22  H   UNL     1      32.128 -21.058 -20.194  0.00  0.00    -0.089 HD
ATOM     23  H   UNL     1      33.122 -19.727 -20.292  0.00  0.00    -0.089 HD
ATOM     24  H   UNL     1      32.800 -20.417 -18.811  0.00  0.00    -0.089 HD
ENDBRANCH  20  21
BRANCH  20  25
ATOM     25  C   UNL     1      35.354 -20.605 -20.233  0.00  0.00    +0.008 C 
BRANCH  25  27
ATOM     26 BR   UNL     1      34.547 -16.304 -24.583  0.00  0.00    -0.049 Br
ATOM     27  C   UNL     1      35.157 -19.553 -21.296  0.00  0.00    -0.024 C 
ATOM     28  C   UNL     1      35.460 -18.231 -21.009  0.00  0.00    -0.004 C 
ATOM     29  C   UNL     1      34.677 -19.928 -22.540  0.00  0.00    -0.004 C 
ATOM     30  C   UNL     1      35.277 -17.259 -21.993  0.00  0.00    +0.006 C 
ATOM     31  C   UNL     1      34.494 -18.956 -23.523  0.00  0.00    +0.006 C 
ATOM     32  C   UNL     1      34.795 -17.622 -23.250  0.00  0.00    +0.035 C 
ENDBRANCH  25  27
ENDBRANCH  20  25
ENDBRANCH  19  20
ENDBRANCH  18  19
ENDBRANCH   3  18
TORSDOF 7
ENDMDL
MODEL 9
REMARK VINA RESULT:     -11.0      4.133     10.381
REMARK  Name = 16122642
REMARK  7 active torsions:
REMARK  status: ('A' for Active; 'I' for Inactive)
REMARK    1  A    between atoms: C_2  and  C_10
REMARK    2  A    between atoms: C_3  and  O_18
REMARK    3  A    between atoms: O_18  and  C_19
REMARK    4  A    between atoms: C_19  and  C_20
REMARK    5  A    between atoms: C_20  and  N_21
REMARK    6  A    between atoms: C_20  and  C_25
REMARK    7  A    between atoms: C_25  and  C_27
REMARK                            x       y       z     vdW  Elec       q    Type
REMARK                         _______ _______ _______ _____ _____    ______ ____
ROOT
ATOM      1  N   UNL     1      34.185 -17.139 -24.881  0.00  0.00    -0.239 NA
ATOM      2  C   UNL     1      35.026 -17.660 -22.682  0.00  0.00    +0.022 C 
ATOM      3  C   UNL     1      34.669 -15.371 -23.305  0.00  0.00    +0.158 C 
ATOM      4  C   UNL     1      35.070 -16.312 -22.362  0.00  0.00    +0.040 C 
ATOM      5  C   UNL     1      34.581 -18.024 -23.938  0.00  0.00    +0.099 C 
ATOM      6  C   UNL     1      34.239 -15.833 -24.539  0.00  0.00    +0.136 C 
ENDROOT
BRANCH   2  10
ATOM      7  N   UNL     1      35.264 -21.987 -18.827  0.00  0.00    -0.280 N 
ATOM      8  N   UNL     1      36.516 -21.519 -19.000  0.00  0.00    -0.173 NA
ATOM      9  C   UNL     1      34.998 -20.404 -20.271  0.00  0.00    +0.032 A 
ATOM     10  C   UNL     1      35.437 -18.666 -21.719  0.00  0.00    +0.002 C 
ATOM     11  C   UNL     1      36.387 -20.527 -19.899  0.00  0.00    +0.102 A 
ATOM     12  C   UNL     1      34.445 -19.503 -21.171  0.00  0.00    +0.003 C 
ATOM     13  C   UNL     1      34.310 -21.352 -19.568  0.00  0.00    +0.053 A 
ATOM     14  C   UNL     1      36.825 -18.746 -21.383  0.00  0.00    +0.002 C 
ATOM     15  C   UNL     1      37.356 -19.676 -20.463  0.00  0.00    +0.021 C 
ATOM     16  C   UNL     1      32.890 -21.735 -19.503  0.00  0.00    +0.051 C 
ATOM     17  H   UNL     1      35.055 -22.727 -18.214  0.00  0.00    +0.189 HD
ENDBRANCH   2  10
BRANCH   3  18
ATOM     18  O   UNL     1      34.699 -14.045 -23.026  0.00  0.00    -0.476 OA
BRANCH  18  19
ATOM     19  C   UNL     1      33.789 -13.204 -23.738  0.00  0.00    +0.184 C 
BRANCH  19  20
ATOM     20  C   UNL     1      33.676 -11.839 -23.048  0.00  0.00    -0.017 C 
BRANCH  20  21
ATOM     21  N   UNL     1      34.711 -10.957 -23.597  0.00  0.00    +0.384 N 
ATOM     22  H   UNL     1      35.404 -10.759 -22.877  0.00  0.00    -0.089 HD
ATOM     23  H   UNL     1      34.284 -10.085 -23.908  0.00  0.00    -0.089 HD
ATOM     24  H   UNL     1      35.163 -11.416 -24.388  0.00  0.00    -0.089 HD
ENDBRANCH  20  21
BRANCH  20  25
ATOM     25  C   UNL     1      32.304 -11.164 -23.258  0.00  0.00    +0.008 C 
BRANCH  25  27
ATOM     26 BR   UNL     1      32.059  -5.243 -21.539  0.00  0.00    -0.049 Br
ATOM     27  C   UNL     1      32.243  -9.716 -22.838  0.00  0.00    -0.024 C 
ATOM     28  C   UNL     1      32.255  -8.726 -23.808  0.00  0.00    -0.004 C 
ATOM     29  C   UNL     1      32.178  -9.403 -21.491  0.00  0.00    -0.004 C 
ATOM     30  C   UNL     1      32.200  -7.388 -23.420  0.00  0.00    +0.006 C 
ATOM     31  C   UNL     1      32.123  -8.065 -21.102  0.00  0.00    +0.006 C 
ATOM     32  C   UNL     1      32.133  -7.057 -22.066  0.00  0.00    +0.035 C 
ENDBRANCH  25  27
ENDBRANCH  20  25
ENDBRANCH  19  20
ENDBRANCH  18  19
ENDBRANCH   3  18
TORSDOF 7
ENDMDL
