MODEL 1
REMARK VINA RESULT:     -12.5      0.000      0.000
REMARK  Name = 66555680
REMARK  4 active torsions:
REMARK  status: ('A' for Active; 'I' for Inactive)
REMARK    1  A    between atoms: N_1  and  C_8
REMARK    2  A    between atoms: C_3  and  C_22
REMARK    3  A    between atoms: C_4  and  N_18
REMARK    4  A    between atoms: C_22  and  C_24
REMARK                            x       y       z     vdW  Elec       q    Type
REMARK                         _______ _______ _______ _____ _____    ______ ____
ROOT
ATOM      1  N   UNL     1      34.211 -15.509 -22.547  0.00  0.00    -0.177 N 
ATOM      2  N   UNL     1      34.300 -15.945 -23.815  0.00  0.00    -0.171 NA
ATOM      3  C   UNL     1      35.347 -17.366 -22.365  0.00  0.00    +0.090 C 
ATOM      4  C   UNL     1      34.822 -16.324 -21.639  0.00  0.00    +0.122 C 
ATOM      5  C   UNL     1      34.995 -17.080 -23.697  0.00  0.00    +0.124 C 
ENDROOT
BRANCH   1   8
ATOM      6  N   UNL     1      32.831 -10.874 -23.486  0.00  0.00    -0.318 N 
ATOM      7  N   UNL     1      31.601 -10.700 -21.642  0.00  0.00    -0.318 N 
ATOM      8  C   UNL     1      33.535 -14.317 -22.276  0.00  0.00    +0.077 C 
ATOM      9  C   UNL     1      32.948 -12.085 -22.852  0.00  0.00    +0.060 C 
ATOM     10  C   UNL     1      33.644 -13.250 -23.174  0.00  0.00    +0.032 C 
ATOM     11  C   UNL     1      32.171 -11.951 -21.704  0.00  0.00    +0.059 C 
ATOM     12  C   UNL     1      32.764 -14.213 -21.117  0.00  0.00    +0.018 C 
ATOM     13  C   UNL     1      32.073 -13.033 -20.814  0.00  0.00    +0.017 C 
ATOM     14  C   UNL     1      32.017 -10.082 -22.725  0.00  0.00    +0.144 C 
ATOM     15  C   UNL     1      31.689  -8.704 -23.135  0.00  0.00    +0.044 C 
ATOM     16  H   UNL     1      33.256 -10.622 -24.337  0.00  0.00    +0.148 HD
ATOM     17  H   UNL     1      31.010 -10.345 -20.939  0.00  0.00    +0.148 HD
ENDBRANCH   1   8
BRANCH   4  18
ATOM     18  N   UNL     1      34.834 -16.045 -20.318  0.00  0.00    -0.344 N 
ATOM     19  H   UNL     1      34.129 -15.480 -19.927  0.00  0.00    +0.144 HD
ATOM     20  H   UNL     1      35.548 -16.407 -19.745  0.00  0.00    +0.144 HD
ENDBRANCH   4  18
BRANCH   3  22
ATOM     21  O   UNL     1      37.327 -18.594 -22.158  0.00  0.00    -0.285 OA
ATOM     22  C   UNL     1      36.123 -18.538 -21.817  0.00  0.00    +0.213 C 
BRANCH  22  24
ATOM     23  N   UNL     1      36.265 -20.284 -20.080  0.00  0.00    -0.310 N 
ATOM     24  C   UNL     1      35.545 -19.531 -20.968  0.00  0.00    +0.088 C 
ATOM     25  C   UNL     1      35.432 -21.151 -19.409  0.00  0.00    +0.048 C 
ATOM     26  C   UNL     1      34.139 -20.936 -19.891  0.00  0.00    +0.015 C 
ATOM     27  C   UNL     1      34.226 -19.911 -20.875  0.00  0.00    +0.019 C 
ATOM     28  C   UNL     1      35.721 -22.100 -18.421  0.00  0.00    +0.015 C 
ATOM     29  C   UNL     1      33.082 -21.703 -19.364  0.00  0.00    +0.001 C 
ATOM     30  C   UNL     1      34.657 -22.849 -17.913  0.00  0.00    +0.001 C 
ATOM     31  C   UNL     1      33.356 -22.656 -18.376  0.00  0.00    +0.000 C 
ATOM     32  H   UNL     1      37.237 -20.216 -19.942  0.00  0.00    +0.152 HD
ENDBRANCH  22  24
ENDBRANCH   3  22
TORSDOF 4
ENDMDL
MODEL 2
REMARK VINA RESULT:     -12.2      1.928      8.700
REMARK  Name = 66555680
REMARK  4 active torsions:
REMARK  status: ('A' for Active; 'I' for Inactive)
REMARK    1  A    between atoms: N_1  and  C_8
REMARK    2  A    between atoms: C_3  and  C_22
REMARK    3  A    between atoms: C_4  and  N_18
REMARK    4  A    between atoms: C_22  and  C_24
REMARK                            x       y       z     vdW  Elec       q    Type
REMARK                         _______ _______ _______ _____ _____    ______ ____
ROOT
ATOM      1  N   UNL     1      34.616 -19.199 -22.082  0.00  0.00    -0.177 N 
ATOM      2  N   UNL     1      34.239 -19.649 -23.291  0.00  0.00    -0.171 NA
ATOM      3  C   UNL     1      34.636 -17.400 -23.320  0.00  0.00    +0.090 C 
ATOM      4  C   UNL     1      34.866 -17.858 -22.046  0.00  0.00    +0.122 C 
ATOM      5  C   UNL     1      34.254 -18.545 -24.043  0.00  0.00    +0.124 C 
ENDROOT
BRANCH   1   8
ATOM      6  N   UNL     1      32.805 -22.159 -18.586  0.00  0.00    -0.318 N 
ATOM      7  N   UNL     1      34.810 -22.767 -17.841  0.00  0.00    -0.318 N 
ATOM      8  C   UNL     1      34.715 -20.096 -21.016  0.00  0.00    +0.077 C 
ATOM      9  C   UNL     1      33.707 -21.489 -19.372  0.00  0.00    +0.060 C 
ATOM     10  C   UNL     1      33.547 -20.598 -20.433  0.00  0.00    +0.032 C 
ATOM     11  C   UNL     1      34.950 -21.885 -18.888  0.00  0.00    +0.059 C 
ATOM     12  C   UNL     1      35.976 -20.475 -20.552  0.00  0.00    +0.018 C 
ATOM     13  C   UNL     1      36.113 -21.371 -19.485  0.00  0.00    +0.017 C 
ATOM     14  C   UNL     1      33.512 -22.909 -17.687  0.00  0.00    +0.144 C 
ATOM     15  C   UNL     1      32.829 -23.755 -16.691  0.00  0.00    +0.044 C 
ATOM     16  H   UNL     1      31.824 -22.110 -18.657  0.00  0.00    +0.148 HD
ATOM     17  H   UNL     1      35.525 -23.199 -17.320  0.00  0.00    +0.148 HD
ENDBRANCH   1   8
BRANCH   4  18
ATOM     18  N   UNL     1      35.256 -17.231 -20.915  0.00  0.00    -0.344 N 
ATOM     19  H   UNL     1      35.098 -17.651 -20.039  0.00  0.00    +0.144 HD
ATOM     20  H   UNL     1      35.698 -16.353 -20.967  0.00  0.00    +0.144 HD
ENDBRANCH   4  18
BRANCH   3  22
ATOM     21  O   UNL     1      35.558 -15.806 -24.764  0.00  0.00    -0.285 OA
ATOM     22  C   UNL     1      34.776 -15.976 -23.799  0.00  0.00    +0.213 C 
BRANCH  22  24
ATOM     23  N   UNL     1      33.608 -14.881 -21.922  0.00  0.00    -0.310 N 
ATOM     24  C   UNL     1      34.077 -14.879 -23.208  0.00  0.00    +0.088 C 
ATOM     25  C   UNL     1      32.979 -13.687 -21.644  0.00  0.00    +0.048 C 
ATOM     26  C   UNL     1      33.055 -12.905 -22.799  0.00  0.00    +0.015 C 
ATOM     27  C   UNL     1      33.750 -13.670 -23.777  0.00  0.00    +0.019 C 
ATOM     28  C   UNL     1      32.356 -13.245 -20.473  0.00  0.00    +0.015 C 
ATOM     29  C   UNL     1      32.482 -11.619 -22.784  0.00  0.00    +0.001 C 
ATOM     30  C   UNL     1      31.794 -11.966 -20.482  0.00  0.00    +0.001 C 
ATOM     31  C   UNL     1      31.855 -11.163 -21.619  0.00  0.00    +0.000 C 
ATOM     32  H   UNL     1      33.705 -15.627 -21.287  0.00  0.00    +0.152 HD
ENDBRANCH  22  24
ENDBRANCH   3  22
TORSDOF 4
ENDMDL
MODEL 3
REMARK VINA RESULT:     -12.1      2.883      5.582
REMARK  Name = 66555680
REMARK  4 active torsions:
REMARK  status: ('A' for Active; 'I' for Inactive)
REMARK    1  A    between atoms: N_1  and  C_8
REMARK    2  A    between atoms: C_3  and  C_22
REMARK    3  A    between atoms: C_4  and  N_18
REMARK    4  A    between atoms: C_22  and  C_24
REMARK                            x       y       z     vdW  Elec       q    Type
REMARK                         _______ _______ _______ _____ _____    ______ ____
ROOT
ATOM      1  N   UNL     1      35.278 -19.933 -20.577  0.00  0.00    -0.177 N 
ATOM      2  N   UNL     1      36.516 -20.223 -20.141  0.00  0.00    -0.171 NA
ATOM      3  C   UNL     1      34.962 -21.646 -19.259  0.00  0.00    +0.090 C 
ATOM      4  C   UNL     1      34.311 -20.756 -20.078  0.00  0.00    +0.122 C 
ATOM      5  C   UNL     1      36.316 -21.271 -19.337  0.00  0.00    +0.124 C 
ENDROOT
BRANCH   1   8
ATOM      6  N   UNL     1      34.623 -15.191 -21.738  0.00  0.00    -0.318 N 
ATOM      7  N   UNL     1      34.537 -15.576 -23.926  0.00  0.00    -0.318 N 
ATOM      8  C   UNL     1      35.093 -18.867 -21.460  0.00  0.00    +0.077 C 
ATOM      9  C   UNL     1      34.781 -16.546 -21.878  0.00  0.00    +0.060 C 
ATOM     10  C   UNL     1      34.965 -17.571 -20.950  0.00  0.00    +0.032 C 
ATOM     11  C   UNL     1      34.724 -16.761 -23.252  0.00  0.00    +0.059 C 
ATOM     12  C   UNL     1      35.039 -19.114 -22.833  0.00  0.00    +0.018 C 
ATOM     13  C   UNL     1      34.854 -18.069 -23.747  0.00  0.00    +0.017 C 
ATOM     14  C   UNL     1      34.481 -14.656 -22.988  0.00  0.00    +0.144 C 
ATOM     15  C   UNL     1      34.291 -13.207 -23.184  0.00  0.00    +0.044 C 
ATOM     16  H   UNL     1      34.614 -14.693 -20.889  0.00  0.00    +0.148 HD
ATOM     17  H   UNL     1      34.460 -15.444 -24.899  0.00  0.00    +0.148 HD
ENDBRANCH   1   8
BRANCH   4  18
ATOM     18  N   UNL     1      33.008 -20.615 -20.407  0.00  0.00    -0.344 N 
ATOM     19  H   UNL     1      32.620 -21.159 -21.129  0.00  0.00    +0.144 HD
ATOM     20  H   UNL     1      32.447 -19.966 -19.924  0.00  0.00    +0.144 HD
ENDBRANCH   4  18
BRANCH   3  22
ATOM     21  O   UNL     1      33.485 -23.452 -19.090  0.00  0.00    -0.285 OA
ATOM     22  C   UNL     1      34.330 -22.765 -18.469  0.00  0.00    +0.213 C 
BRANCH  22  24
ATOM     23  N   UNL     1      33.787 -23.625 -16.221  0.00  0.00    -0.310 N 
ATOM     24  C   UNL     1      34.654 -23.041 -17.105  0.00  0.00    +0.088 C 
ATOM     25  C   UNL     1      34.385 -23.758 -14.988  0.00  0.00    +0.048 C 
ATOM     26  C   UNL     1      35.677 -23.239 -15.099  0.00  0.00    +0.015 C 
ATOM     27  C   UNL     1      35.832 -22.790 -16.441  0.00  0.00    +0.019 C 
ATOM     28  C   UNL     1      33.886 -24.293 -13.795  0.00  0.00    +0.015 C 
ATOM     29  C   UNL     1      36.513 -23.255 -13.966  0.00  0.00    +0.001 C 
ATOM     30  C   UNL     1      34.734 -24.297 -12.685  0.00  0.00    +0.001 C 
ATOM     31  C   UNL     1      36.028 -23.786 -12.766  0.00  0.00    +0.000 C 
ATOM     32  H   UNL     1      32.869 -23.908 -16.436  0.00  0.00    +0.152 HD
ENDBRANCH  22  24
ENDBRANCH   3  22
TORSDOF 4
ENDMDL
MODEL 4
REMARK VINA RESULT:     -11.9      2.977     10.400
REMARK  Name = 66555680
REMARK  4 active torsions:
REMARK  status: ('A' for Active; 'I' for Inactive)
REMARK    1  A    between atoms: N_1  and  C_8
REMARK    2  A    between atoms: C_3  and  C_22
REMARK    3  A    between atoms: C_4  and  N_18
REMARK    4  A    between atoms: C_22  and  C_24
REMARK                            x       y       z     vdW  Elec       q    Type
REMARK                         _______ _______ _______ _____ _____    ______ ____
ROOT
ATOM      1  N   UNL     1      33.542 -13.447 -22.839  0.00  0.00    -0.177 N 
ATOM      2  N   UNL     1      34.040 -12.535 -23.692  0.00  0.00    -0.171 NA
ATOM      3  C   UNL     1      32.390 -11.647 -22.386  0.00  0.00    +0.090 C 
ATOM      4  C   UNL     1      32.550 -12.966 -22.035  0.00  0.00    +0.122 C 
ATOM      5  C   UNL     1      33.332 -11.438 -23.410  0.00  0.00    +0.124 C 
ENDROOT
BRANCH   1   8
ATOM      6  N   UNL     1      35.502 -17.461 -20.763  0.00  0.00    -0.318 N 
ATOM      7  N   UNL     1      35.606 -18.591 -22.674  0.00  0.00    -0.318 N 
ATOM      8  C   UNL     1      34.054 -14.746 -22.847  0.00  0.00    +0.077 C 
ATOM      9  C   UNL     1      34.996 -16.615 -21.717  0.00  0.00    +0.060 C 
ATOM     10  C   UNL     1      34.494 -15.316 -21.648  0.00  0.00    +0.032 C 
ATOM     11  C   UNL     1      35.072 -17.344 -22.900  0.00  0.00    +0.059 C 
ATOM     12  C   UNL     1      34.117 -15.452 -24.050  0.00  0.00    +0.018 C 
ATOM     13  C   UNL     1      34.625 -16.756 -24.096  0.00  0.00    +0.017 C 
ATOM     14  C   UNL     1      35.852 -18.628 -21.383  0.00  0.00    +0.144 C 
ATOM     15  C   UNL     1      36.432 -19.753 -20.627  0.00  0.00    +0.044 C 
ATOM     16  H   UNL     1      35.595 -17.263 -19.803  0.00  0.00    +0.148 HD
ATOM     17  H   UNL     1      35.769 -19.303 -23.335  0.00  0.00    +0.148 HD
ENDBRANCH   1   8
BRANCH   4  18
ATOM     18  N   UNL     1      31.933 -13.739 -21.116  0.00  0.00    -0.344 N 
ATOM     19  H   UNL     1      31.643 -13.351 -20.259  0.00  0.00    +0.144 HD
ATOM     20  H   UNL     1      31.772 -14.692 -21.303  0.00  0.00    +0.144 HD
ENDBRANCH   4  18
BRANCH   3  22
ATOM     21  O   UNL     1      30.456 -11.187 -21.154  0.00  0.00    -0.285 OA
ATOM     22  C   UNL     1      31.409 -10.673 -21.783  0.00  0.00    +0.213 C 
BRANCH  22  24
ATOM     23  N   UNL     1      31.206  -8.559 -23.041  0.00  0.00    -0.310 N 
ATOM     24  C   UNL     1      31.537  -9.255 -21.909  0.00  0.00    +0.088 C 
ATOM     25  C   UNL     1      31.440  -7.215 -22.857  0.00  0.00    +0.048 C 
ATOM     26  C   UNL     1      31.936  -7.057 -21.561  0.00  0.00    +0.015 C 
ATOM     27  C   UNL     1      31.992  -8.353 -20.975  0.00  0.00    +0.019 C 
ATOM     28  C   UNL     1      31.252  -6.137 -23.729  0.00  0.00    +0.015 C 
ATOM     29  C   UNL     1      32.260  -5.763 -21.111  0.00  0.00    +0.001 C 
ATOM     30  C   UNL     1      31.580  -4.862 -23.261  0.00  0.00    +0.001 C 
ATOM     31  C   UNL     1      32.077  -4.675 -21.973  0.00  0.00    +0.000 C 
ATOM     32  H   UNL     1      30.853  -8.962 -23.867  0.00  0.00    +0.152 HD
ENDBRANCH  22  24
ENDBRANCH   3  22
TORSDOF 4
ENDMDL
MODEL 5
REMARK VINA RESULT:     -11.8      2.863      5.609
REMARK  Name = 66555680
REMARK  4 active torsions:
REMARK  status: ('A' for Active; 'I' for Inactive)
REMARK    1  A    between atoms: N_1  and  C_8
REMARK    2  A    between atoms: C_3  and  C_22
REMARK    3  A    between atoms: C_4  and  N_18
REMARK    4  A    between atoms: C_22  and  C_24
REMARK                            x       y       z     vdW  Elec       q    Type
REMARK                         _______ _______ _______ _____ _____    ______ ____
ROOT
ATOM      1  N   UNL     1      35.173 -20.113 -20.485  0.00  0.00    -0.177 N 
ATOM      2  N   UNL     1      36.349 -20.402 -19.901  0.00  0.00    -0.171 NA
ATOM      3  C   UNL     1      34.764 -21.975 -19.419  0.00  0.00    +0.090 C 
ATOM      4  C   UNL     1      34.190 -21.023 -20.227  0.00  0.00    +0.122 C 
ATOM      5  C   UNL     1      36.092 -21.541 -19.252  0.00  0.00    +0.124 C 
ENDROOT
BRANCH   1   8
ATOM      6  N   UNL     1      34.545 -15.281 -21.211  0.00  0.00    -0.318 N 
ATOM      7  N   UNL     1      34.699 -15.434 -23.424  0.00  0.00    -0.318 N 
ATOM      8  C   UNL     1      35.060 -18.962 -21.267  0.00  0.00    +0.077 C 
ATOM      9  C   UNL     1      34.746 -16.612 -21.474  0.00  0.00    +0.060 C 
ATOM     10  C   UNL     1      34.852 -17.727 -20.642  0.00  0.00    +0.032 C 
ATOM     11  C   UNL     1      34.838 -16.681 -22.860  0.00  0.00    +0.059 C 
ATOM     12  C   UNL     1      35.157 -19.062 -22.656  0.00  0.00    +0.018 C 
ATOM     13  C   UNL     1      35.048 -17.930 -23.471  0.00  0.00    +0.017 C 
ATOM     14  C   UNL     1      34.525 -14.619 -22.407  0.00  0.00    +0.144 C 
ATOM     15  C   UNL     1      34.326 -13.159 -22.471  0.00  0.00    +0.044 C 
ATOM     16  H   UNL     1      34.436 -14.876 -20.321  0.00  0.00    +0.148 HD
ATOM     17  H   UNL     1      34.723 -15.201 -24.380  0.00  0.00    +0.148 HD
ENDBRANCH   1   8
BRANCH   4  18
ATOM     18  N   UNL     1      32.944 -20.896 -20.731  0.00  0.00    -0.344 N 
ATOM     19  H   UNL     1      32.812 -20.795 -21.701  0.00  0.00    +0.144 HD
ATOM     20  H   UNL     1      32.166 -20.904 -20.127  0.00  0.00    +0.144 HD
ENDBRANCH   4  18
BRANCH   3  22
ATOM     21  O   UNL     1      34.159 -24.230 -19.566  0.00  0.00    -0.285 OA
ATOM     22  C   UNL     1      34.086 -23.199 -18.856  0.00  0.00    +0.213 C 
BRANCH  22  24
ATOM     23  N   UNL     1      32.045 -23.056 -17.478  0.00  0.00    -0.310 N 
ATOM     24  C   UNL     1      33.399 -23.208 -17.603  0.00  0.00    +0.088 C 
ATOM     25  C   UNL     1      31.683 -23.108 -16.150  0.00  0.00    +0.048 C 
ATOM     26  C   UNL     1      32.852 -23.300 -15.412  0.00  0.00    +0.015 C 
ATOM     27  C   UNL     1      33.928 -23.362 -16.342  0.00  0.00    +0.019 C 
ATOM     28  C   UNL     1      30.422 -23.000 -15.552  0.00  0.00    +0.015 C 
ATOM     29  C   UNL     1      32.762 -23.391 -14.009  0.00  0.00    +0.001 C 
ATOM     30  C   UNL     1      30.357 -23.093 -14.160  0.00  0.00    +0.001 C 
ATOM     31  C   UNL     1      31.508 -23.285 -13.398  0.00  0.00    +0.000 C 
ATOM     32  H   UNL     1      31.420 -22.927 -18.227  0.00  0.00    +0.152 HD
ENDBRANCH  22  24
ENDBRANCH   3  22
TORSDOF 4
ENDMDL
MODEL 6
REMARK VINA RESULT:     -11.6      1.482      2.520
REMARK  Name = 66555680
REMARK  4 active torsions:
REMARK  status: ('A' for Active; 'I' for Inactive)
REMARK    1  A    between atoms: N_1  and  C_8
REMARK    2  A    between atoms: C_3  and  C_22
REMARK    3  A    between atoms: C_4  and  N_18
REMARK    4  A    between atoms: C_22  and  C_24
REMARK                            x       y       z     vdW  Elec       q    Type
REMARK                         _______ _______ _______ _____ _____    ______ ____
ROOT
ATOM      1  N   UNL     1      33.506 -13.721 -21.821  0.00  0.00    -0.177 N 
ATOM      2  N   UNL     1      34.012 -13.955 -20.597  0.00  0.00    -0.171 NA
ATOM      3  C   UNL     1      34.478 -15.666 -22.038  0.00  0.00    +0.090 C 
ATOM      4  C   UNL     1      33.757 -14.716 -22.721  0.00  0.00    +0.122 C 
ATOM      5  C   UNL     1      34.605 -15.144 -20.737  0.00  0.00    +0.124 C 
ENDROOT
BRANCH   1   8
ATOM      6  N   UNL     1      32.776  -9.332 -23.933  0.00  0.00    -0.318 N 
ATOM      7  N   UNL     1      30.848  -8.973 -22.886  0.00  0.00    -0.318 N 
ATOM      8  C   UNL     1      32.800 -12.540 -22.057  0.00  0.00    +0.077 C 
ATOM      9  C   UNL     1      32.573 -10.438 -23.148  0.00  0.00    +0.060 C 
ATOM     10  C   UNL     1      33.321 -11.599 -22.952  0.00  0.00    +0.032 C 
ATOM     11  C   UNL     1      31.364 -10.190 -22.506  0.00  0.00    +0.059 C 
ATOM     12  C   UNL     1      31.590 -12.319 -21.397  0.00  0.00    +0.018 C 
ATOM     13  C   UNL     1      30.856 -11.146 -21.610  0.00  0.00    +0.017 C 
ATOM     14  C   UNL     1      31.719  -8.486 -23.742  0.00  0.00    +0.144 C 
ATOM     15  C   UNL     1      31.634  -7.194 -24.448  0.00  0.00    +0.044 C 
ATOM     16  H   UNL     1      33.544  -9.175 -24.528  0.00  0.00    +0.148 HD
ATOM     17  H   UNL     1      30.009  -8.556 -22.584  0.00  0.00    +0.148 HD
ENDBRANCH   1   8
BRANCH   4  18
ATOM     18  N   UNL     1      33.326 -14.653 -23.999  0.00  0.00    -0.344 N 
ATOM     19  H   UNL     1      33.730 -14.009 -24.624  0.00  0.00    +0.144 HD
ATOM     20  H   UNL     1      32.607 -15.251 -24.306  0.00  0.00    +0.144 HD
ENDBRANCH   4  18
BRANCH   3  22
ATOM     21  O   UNL     1      35.256 -16.962 -23.822  0.00  0.00    -0.285 OA
ATOM     22  C   UNL     1      35.000 -16.966 -22.595  0.00  0.00    +0.213 C 
BRANCH  22  24
ATOM     23  N   UNL     1      34.179 -18.947 -21.376  0.00  0.00    -0.310 N 
ATOM     24  C   UNL     1      35.197 -18.136 -21.800  0.00  0.00    +0.088 C 
ATOM     25  C   UNL     1      34.681 -19.990 -20.630  0.00  0.00    +0.048 C 
ATOM     26  C   UNL     1      36.068 -19.830 -20.582  0.00  0.00    +0.015 C 
ATOM     27  C   UNL     1      36.379 -18.656 -21.324  0.00  0.00    +0.019 C 
ATOM     28  C   UNL     1      34.022 -21.051 -20.000  0.00  0.00    +0.015 C 
ATOM     29  C   UNL     1      36.835 -20.774 -19.872  0.00  0.00    +0.001 C 
ATOM     30  C   UNL     1      34.804 -21.975 -19.302  0.00  0.00    +0.001 C 
ATOM     31  C   UNL     1      36.189 -21.841 -19.238  0.00  0.00    +0.000 C 
ATOM     32  H   UNL     1      33.225 -18.806 -21.575  0.00  0.00    +0.152 HD
ENDBRANCH  22  24
ENDBRANCH   3  22
TORSDOF 4
ENDMDL
MODEL 7
REMARK VINA RESULT:     -11.4      2.537      9.659
REMARK  Name = 66555680
REMARK  4 active torsions:
REMARK  status: ('A' for Active; 'I' for Inactive)
REMARK    1  A    between atoms: N_1  and  C_8
REMARK    2  A    between atoms: C_3  and  C_22
REMARK    3  A    between atoms: C_4  and  N_18
REMARK    4  A    between atoms: C_22  and  C_24
REMARK                            x       y       z     vdW  Elec       q    Type
REMARK                         _______ _______ _______ _____ _____    ______ ____
ROOT
ATOM      1  N   UNL     1      34.488 -21.092 -19.600  0.00  0.00    -0.177 N 
ATOM      2  N   UNL     1      33.337 -20.888 -20.264  0.00  0.00    -0.171 NA
ATOM      3  C   UNL     1      35.051 -19.680 -21.169  0.00  0.00    +0.090 C 
ATOM      4  C   UNL     1      35.545 -20.391 -20.102  0.00  0.00    +0.122 C 
ATOM      5  C   UNL     1      33.688 -20.025 -21.221  0.00  0.00    +0.124 C 
ENDROOT
BRANCH   1   8
ATOM      6  N   UNL     1      36.544 -23.261 -15.684  0.00  0.00    -0.318 N 
ATOM      7  N   UNL     1      34.745 -24.481 -15.218  0.00  0.00    -0.318 N 
ATOM      8  C   UNL     1      34.505 -21.959 -18.506  0.00  0.00    +0.077 C 
ATOM      9  C   UNL     1      35.618 -22.930 -16.641  0.00  0.00    +0.060 C 
ATOM     10  C   UNL     1      35.659 -22.046 -17.719  0.00  0.00    +0.032 C 
ATOM     11  C   UNL     1      34.505 -23.704 -16.328  0.00  0.00    +0.059 C 
ATOM     12  C   UNL     1      33.373 -22.724 -18.217  0.00  0.00    +0.018 C 
ATOM     13  C   UNL     1      33.355 -23.604 -17.129  0.00  0.00    +0.017 C 
ATOM     14  C   UNL     1      35.975 -24.190 -14.858  0.00  0.00    +0.144 C 
ATOM     15  C   UNL     1      36.717 -24.755 -13.716  0.00  0.00    +0.044 C 
ATOM     16  H   UNL     1      37.454 -22.894 -15.606  0.00  0.00    +0.148 HD
ATOM     17  H   UNL     1      34.129 -25.117 -14.787  0.00  0.00    +0.148 HD
ENDBRANCH   1   8
BRANCH   4  18
ATOM     18  N   UNL     1      36.781 -20.472 -19.563  0.00  0.00    -0.344 N 
ATOM     19  H   UNL     1      37.295 -21.308 -19.632  0.00  0.00    +0.144 HD
ATOM     20  H   UNL     1      37.168 -19.693 -19.100  0.00  0.00    +0.144 HD
ENDBRANCH   4  18
BRANCH   3  22
ATOM     21  O   UNL     1      37.035 -19.046 -22.233  0.00  0.00    -0.285 OA
ATOM     22  C   UNL     1      35.830 -18.747 -22.062  0.00  0.00    +0.213 C 
BRANCH  22  24
ATOM     23  N   UNL     1      35.183 -16.367 -22.080  0.00  0.00    -0.310 N 
ATOM     24  C   UNL     1      35.256 -17.595 -22.681  0.00  0.00    +0.088 C 
ATOM     25  C   UNL     1      34.579 -15.461 -22.924  0.00  0.00    +0.048 C 
ATOM     26  C   UNL     1      34.259 -16.144 -24.099  0.00  0.00    +0.015 C 
ATOM     27  C   UNL     1      34.693 -17.490 -23.932  0.00  0.00    +0.019 C 
ATOM     28  C   UNL     1      34.293 -14.104 -22.738  0.00  0.00    +0.015 C 
ATOM     29  C   UNL     1      33.625 -15.440 -25.141  0.00  0.00    +0.001 C 
ATOM     30  C   UNL     1      33.664 -13.427 -23.785  0.00  0.00    +0.001 C 
ATOM     31  C   UNL     1      33.333 -14.083 -24.970  0.00  0.00    +0.000 C 
ATOM     32  H   UNL     1      35.514 -16.160 -21.177  0.00  0.00    +0.152 HD
ENDBRANCH  22  24
ENDBRANCH   3  22
TORSDOF 4
ENDMDL
MODEL 8
REMARK VINA RESULT:     -11.3      1.883      2.664
REMARK  Name = 66555680
REMARK  4 active torsions:
REMARK  status: ('A' for Active; 'I' for Inactive)
REMARK    1  A    between atoms: N_1  and  C_8
REMARK    2  A    between atoms: C_3  and  C_22
REMARK    3  A    between atoms: C_4  and  N_18
REMARK    4  A    between atoms: C_22  and  C_24
REMARK                            x       y       z     vdW  Elec       q    Type
REMARK                         _______ _______ _______ _____ _____    ______ ____
ROOT
ATOM      1  N   UNL     1      33.084 -13.805 -23.255  0.00  0.00    -0.177 N 
ATOM      2  N   UNL     1      32.639 -13.815 -24.523  0.00  0.00    -0.171 NA
ATOM      3  C   UNL     1      34.000 -15.600 -24.098  0.00  0.00    +0.090 C 
ATOM      4  C   UNL     1      33.903 -14.853 -22.949  0.00  0.00    +0.122 C 
ATOM      5  C   UNL     1      33.202 -14.915 -25.033  0.00  0.00    +0.124 C 
ENDROOT
BRANCH   1   8
ATOM      6  N   UNL     1      32.397  -9.091 -22.001  0.00  0.00    -0.318 N 
ATOM      7  N   UNL     1      31.581  -9.580 -19.992  0.00  0.00    -0.318 N 
ATOM      8  C   UNL     1      32.692 -12.775 -22.398  0.00  0.00    +0.077 C 
ATOM      9  C   UNL     1      32.413 -10.460 -21.923  0.00  0.00    +0.060 C 
ATOM     10  C   UNL     1      32.820 -11.447 -22.820  0.00  0.00    +0.032 C 
ATOM     11  C   UNL     1      31.899 -10.740 -20.660  0.00  0.00    +0.059 C 
ATOM     12  C   UNL     1      32.180 -13.087 -21.137  0.00  0.00    +0.018 C 
ATOM     13  C   UNL     1      31.778 -12.079 -20.252  0.00  0.00    +0.017 C 
ATOM     14  C   UNL     1      31.892  -8.612 -20.824  0.00  0.00    +0.144 C 
ATOM     15  C   UNL     1      31.743  -7.164 -20.589  0.00  0.00    +0.044 C 
ATOM     16  H   UNL     1      32.695  -8.550 -22.768  0.00  0.00    +0.148 HD
ATOM     17  H   UNL     1      31.203  -9.493 -19.087  0.00  0.00    +0.148 HD
ENDBRANCH   1   8
BRANCH   4  18
ATOM     18  N   UNL     1      34.444 -15.006 -21.721  0.00  0.00    -0.344 N 
ATOM     19  H   UNL     1      33.936 -14.739 -20.921  0.00  0.00    +0.144 HD
ATOM     20  H   UNL     1      35.347 -15.386 -21.625  0.00  0.00    +0.144 HD
ENDBRANCH   4  18
BRANCH   3  22
ATOM     21  O   UNL     1      35.245 -17.066 -25.429  0.00  0.00    -0.285 OA
ATOM     22  C   UNL     1      34.795 -16.869 -24.276  0.00  0.00    +0.213 C 
BRANCH  22  24
ATOM     23  N   UNL     1      36.199 -17.864 -22.508  0.00  0.00    -0.310 N 
ATOM     24  C   UNL     1      35.031 -17.801 -23.219  0.00  0.00    +0.088 C 
ATOM     25  C   UNL     1      36.125 -18.860 -21.560  0.00  0.00    +0.048 C 
ATOM     26  C   UNL     1      34.863 -19.447 -21.678  0.00  0.00    +0.015 C 
ATOM     27  C   UNL     1      34.184 -18.768 -22.729  0.00  0.00    +0.019 C 
ATOM     28  C   UNL     1      37.068 -19.283 -20.618  0.00  0.00    +0.015 C 
ATOM     29  C   UNL     1      34.524 -20.505 -20.814  0.00  0.00    +0.001 C 
ATOM     30  C   UNL     1      36.710 -20.335 -19.771  0.00  0.00    +0.001 C 
ATOM     31  C   UNL     1      35.458 -20.939 -19.866  0.00  0.00    +0.000 C 
ATOM     32  H   UNL     1      36.980 -17.282 -22.653  0.00  0.00    +0.152 HD
ENDBRANCH  22  24
ENDBRANCH   3  22
TORSDOF 4
ENDMDL
MODEL 9
REMARK VINA RESULT:     -11.3      1.895      8.762
REMARK  Name = 66555680
REMARK  4 active torsions:
REMARK  status: ('A' for Active; 'I' for Inactive)
REMARK    1  A    between atoms: N_1  and  C_8
REMARK    2  A    between atoms: C_3  and  C_22
REMARK    3  A    between atoms: C_4  and  N_18
REMARK    4  A    between atoms: C_22  and  C_24
REMARK                            x       y       z     vdW  Elec       q    Type
REMARK                         _______ _______ _______ _____ _____    ______ ____
ROOT
ATOM      1  N   UNL     1      34.694 -17.775 -23.141  0.00  0.00    -0.177 N 
ATOM      2  N   UNL     1      34.276 -18.319 -24.297  0.00  0.00    -0.171 NA
ATOM      3  C   UNL     1      34.042 -16.047 -24.308  0.00  0.00    +0.090 C 
ATOM      4  C   UNL     1      34.575 -16.416 -23.096  0.00  0.00    +0.122 C 
ATOM      5  C   UNL     1      33.879 -17.258 -25.005  0.00  0.00    +0.124 C 
ENDROOT
BRANCH   1   8
ATOM      6  N   UNL     1      34.327 -21.239 -19.659  0.00  0.00    -0.318 N 
ATOM      7  N   UNL     1      36.479 -21.139 -19.110  0.00  0.00    -0.318 N 
ATOM      8  C   UNL     1      35.190 -18.603 -22.132  0.00  0.00    +0.077 C 
ATOM      9  C   UNL     1      34.871 -20.287 -20.482  0.00  0.00    +0.060 C 
ATOM     10  C   UNL     1      34.320 -19.485 -21.481  0.00  0.00    +0.032 C 
ATOM     11  C   UNL     1      36.214 -20.243 -20.120  0.00  0.00    +0.059 C 
ATOM     12  C   UNL     1      36.542 -18.536 -21.791  0.00  0.00    +0.018 C 
ATOM     13  C   UNL     1      37.073 -19.351 -20.785  0.00  0.00    +0.017 C 
ATOM     14  C   UNL     1      35.327 -21.719 -18.858  0.00  0.00    +0.144 C 
ATOM     15  C   UNL     1      35.067 -22.765 -17.852  0.00  0.00    +0.044 C 
ATOM     16  H   UNL     1      33.386 -21.527 -19.647  0.00  0.00    +0.148 HD
ATOM     17  H   UNL     1      37.344 -21.309 -18.671  0.00  0.00    +0.148 HD
ENDBRANCH   1   8
BRANCH   4  18
ATOM     18  N   UNL     1      34.945 -15.698 -22.014  0.00  0.00    -0.344 N 
ATOM     19  H   UNL     1      34.281 -15.464 -21.327  0.00  0.00    +0.144 HD
ATOM     20  H   UNL     1      35.881 -15.409 -21.912  0.00  0.00    +0.144 HD
ENDBRANCH   4  18
BRANCH   3  22
ATOM     21  O   UNL     1      33.923 -14.401 -25.966  0.00  0.00    -0.285 OA
ATOM     22  C   UNL     1      33.719 -14.642 -24.753  0.00  0.00    +0.213 C 
BRANCH  22  24
ATOM     23  N   UNL     1      33.443 -12.298 -24.035  0.00  0.00    -0.310 N 
ATOM     24  C   UNL     1      33.214 -13.638 -23.871  0.00  0.00    +0.088 C 
ATOM     25  C   UNL     1      32.830 -11.585 -23.029  0.00  0.00    +0.048 C 
ATOM     26  C   UNL     1      32.192 -12.510 -22.199  0.00  0.00    +0.015 C 
ATOM     27  C   UNL     1      32.443 -13.802 -22.743  0.00  0.00    +0.019 C 
ATOM     28  C   UNL     1      32.792 -10.207 -22.791  0.00  0.00    +0.015 C 
ATOM     29  C   UNL     1      31.481 -12.039 -21.079  0.00  0.00    +0.001 C 
ATOM     30  C   UNL     1      32.081  -9.763 -21.674  0.00  0.00    +0.001 C 
ATOM     31  C   UNL     1      31.434 -10.663 -20.829  0.00  0.00    +0.000 C 
ATOM     32  H   UNL     1      33.968 -11.901 -24.767  0.00  0.00    +0.152 HD
ENDBRANCH  22  24
ENDBRANCH   3  22
TORSDOF 4
ENDMDL
