MODEL 1
REMARK VINA RESULT:     -12.0      0.000      0.000
REMARK  Name = 25065981
REMARK  7 active torsions:
REMARK  status: ('A' for Active; 'I' for Inactive)
REMARK    1  A    between atoms: C_1  and  C_3
REMARK    2  A    between atoms: C_1  and  C_16
REMARK    3  A    between atoms: C_11  and  O_13
REMARK    4  A    between atoms: C_16  and  O_17
REMARK    5  A    between atoms: O_17  and  C_18
REMARK    6  A    between atoms: C_21  and  C_25
REMARK    7  A    between atoms: C_25  and  N_26
REMARK                            x       y       z     vdW  Elec       q    Type
REMARK                         _______ _______ _______ _____ _____    ______ ____
ROOT
ATOM      1  C   UNL     1      35.495 -17.700 -22.601  0.00  0.00    +0.122 C 
ATOM      2  C   UNL     1      34.544 -17.975 -23.782  0.00  0.00    +0.016 C 
ENDROOT
BRANCH   1   3
ATOM      3  C   UNL     1      35.532 -18.807 -21.602  0.00  0.00    -0.012 C 
ATOM      4  C   UNL     1      34.365 -20.481 -20.277  0.00  0.00    -0.000 C 
ATOM      5  C   UNL     1      34.349 -19.437 -21.217  0.00  0.00    -0.004 C 
ATOM      6  C   UNL     1      35.600 -20.892 -19.721  0.00  0.00    +0.003 C 
ATOM      7  C   UNL     1      36.747 -19.210 -21.055  0.00  0.00    -0.004 C 
ATOM      8  C   UNL     1      36.782 -20.246 -20.121  0.00  0.00    -0.000 C 
ATOM      9  C   UNL     1      33.185 -21.127 -19.878  0.00  0.00    +0.003 C 
ATOM     10  C   UNL     1      35.618 -21.935 -18.781  0.00  0.00    +0.037 C 
ATOM     11  C   UNL     1      34.435 -22.566 -18.397  0.00  0.00    +0.139 C 
ATOM     12  C   UNL     1      33.220 -22.162 -18.944  0.00  0.00    +0.037 C 
BRANCH  11  13
ATOM     13  O   UNL     1      34.468 -23.577 -17.486  0.00  0.00    -0.471 OA
ATOM     14  C   UNL     1      33.454 -23.581 -16.483  0.00  0.00    +0.252 C 
ENDBRANCH  11  13
ENDBRANCH   1   3
BRANCH   1  16
ATOM     15  O   UNL     1      34.913 -16.177 -20.779  0.00  0.00    -0.249 OA
ATOM     16  C   UNL     1      35.146 -16.345 -21.970  0.00  0.00    +0.325 C 
BRANCH  16  17
ATOM     17  O   UNL     1      35.164 -15.353 -22.949  0.00  0.00    -0.424 OA
BRANCH  17  18
ATOM     18  C   UNL     1      34.247 -14.328 -22.707  0.00  0.00    +0.148 C 
ATOM     19  C   UNL     1      34.175 -13.237 -23.574  0.00  0.00    +0.038 C 
ATOM     20  C   UNL     1      33.405 -14.394 -21.597  0.00  0.00    +0.038 C 
ATOM     21  C   UNL     1      32.418 -12.278 -22.220  0.00  0.00    +0.020 C 
ATOM     22  C   UNL     1      33.261 -12.213 -23.330  0.00  0.00    +0.005 C 
ATOM     23  C   UNL     1      32.490 -13.369 -21.354  0.00  0.00    +0.005 C 
BRANCH  21  25
ATOM     24  S   UNL     1      31.588  -9.635 -22.576  0.00  0.00    -0.035 S 
ATOM     25  C   UNL     1      31.466 -11.210 -21.967  0.00  0.00    +0.078 C 
BRANCH  25  26
ATOM     26  N   UNL     1      30.377 -11.534 -21.167  0.00  0.00    -0.352 N 
ATOM     27  H   UNL     1      29.706 -10.848 -20.948  0.00  0.00    +0.143 HD
ATOM     28  H   UNL     1      30.277 -12.449 -20.818  0.00  0.00    +0.143 HD
ENDBRANCH  25  26
ENDBRANCH  21  25
ENDBRANCH  17  18
ENDBRANCH  16  17
ENDBRANCH   1  16
TORSDOF 7
ENDMDL
MODEL 2
REMARK VINA RESULT:     -11.6      1.127      1.980
REMARK  Name = 25065981
REMARK  7 active torsions:
REMARK  status: ('A' for Active; 'I' for Inactive)
REMARK    1  A    between atoms: C_1  and  C_3
REMARK    2  A    between atoms: C_1  and  C_16
REMARK    3  A    between atoms: C_11  and  O_13
REMARK    4  A    between atoms: C_16  and  O_17
REMARK    5  A    between atoms: O_17  and  C_18
REMARK    6  A    between atoms: C_21  and  C_25
REMARK    7  A    between atoms: C_25  and  N_26
REMARK                            x       y       z     vdW  Elec       q    Type
REMARK                         _______ _______ _______ _____ _____    ______ ____
ROOT
ATOM      1  C   UNL     1      35.245 -19.061 -22.160  0.00  0.00    +0.122 C 
ATOM      2  C   UNL     1      34.490 -19.168 -23.500  0.00  0.00    +0.016 C 
ENDROOT
BRANCH   1   3
ATOM      3  C   UNL     1      34.698 -19.956 -21.100  0.00  0.00    -0.012 C 
ATOM      4  C   UNL     1      35.065 -21.429 -19.199  0.00  0.00    -0.000 C 
ATOM      5  C   UNL     1      35.563 -20.583 -20.203  0.00  0.00    -0.004 C 
ATOM      6  C   UNL     1      33.669 -21.642 -19.104  0.00  0.00    +0.003 C 
ATOM      7  C   UNL     1      33.325 -20.165 -21.006  0.00  0.00    -0.004 C 
ATOM      8  C   UNL     1      32.812 -21.002 -20.015  0.00  0.00    -0.000 C 
ATOM      9  C   UNL     1      35.920 -22.068 -18.288  0.00  0.00    +0.003 C 
ATOM     10  C   UNL     1      33.170 -22.489 -18.100  0.00  0.00    +0.037 C 
ATOM     11  C   UNL     1      34.035 -23.115 -17.203  0.00  0.00    +0.139 C 
ATOM     12  C   UNL     1      35.407 -22.905 -17.297  0.00  0.00    +0.037 C 
BRANCH  11  13
ATOM     13  O   UNL     1      33.536 -23.932 -16.235  0.00  0.00    -0.471 OA
ATOM     14  C   UNL     1      34.383 -24.214 -15.123  0.00  0.00    +0.252 C 
ENDBRANCH  11  13
ENDBRANCH   1   3
BRANCH   1  16
ATOM     15  O   UNL     1      35.315 -17.217 -20.556  0.00  0.00    -0.249 OA
ATOM     16  C   UNL     1      35.300 -17.591 -21.722  0.00  0.00    +0.325 C 
BRANCH  16  17
ATOM     17  O   UNL     1      35.356 -16.768 -22.847  0.00  0.00    -0.424 OA
BRANCH  17  18
ATOM     18  C   UNL     1      34.575 -15.617 -22.723  0.00  0.00    +0.148 C 
ATOM     19  C   UNL     1      33.925 -15.091 -23.841  0.00  0.00    +0.038 C 
ATOM     20  C   UNL     1      34.446 -14.993 -21.483  0.00  0.00    +0.038 C 
ATOM     21  C   UNL     1      33.018 -13.315 -22.476  0.00  0.00    +0.020 C 
ATOM     22  C   UNL     1      33.147 -13.941 -23.717  0.00  0.00    +0.005 C 
ATOM     23  C   UNL     1      33.667 -13.842 -21.360  0.00  0.00    +0.005 C 
BRANCH  21  25
ATOM     24  S   UNL     1      32.560 -10.624 -23.065  0.00  0.00    -0.035 S 
ATOM     25  C   UNL     1      32.207 -12.116 -22.348  0.00  0.00    +0.078 C 
BRANCH  25  26
ATOM     26  N   UNL     1      31.055 -12.232 -21.580  0.00  0.00    -0.352 N 
ATOM     27  H   UNL     1      30.191 -12.422 -22.013  0.00  0.00    +0.143 HD
ATOM     28  H   UNL     1      31.102 -12.125 -20.603  0.00  0.00    +0.143 HD
ENDBRANCH  25  26
ENDBRANCH  21  25
ENDBRANCH  17  18
ENDBRANCH  16  17
ENDBRANCH   1  16
TORSDOF 7
ENDMDL
MODEL 3
REMARK VINA RESULT:     -11.3      2.001      3.043
REMARK  Name = 25065981
REMARK  7 active torsions:
REMARK  status: ('A' for Active; 'I' for Inactive)
REMARK    1  A    between atoms: C_1  and  C_3
REMARK    2  A    between atoms: C_1  and  C_16
REMARK    3  A    between atoms: C_11  and  O_13
REMARK    4  A    between atoms: C_16  and  O_17
REMARK    5  A    between atoms: O_17  and  C_18
REMARK    6  A    between atoms: C_21  and  C_25
REMARK    7  A    between atoms: C_25  and  N_26
REMARK                            x       y       z     vdW  Elec       q    Type
REMARK                         _______ _______ _______ _____ _____    ______ ____
ROOT
ATOM      1  C   UNL     1      35.395 -20.092 -21.343  0.00  0.00    +0.122 C 
ATOM      2  C   UNL     1      33.979 -19.755 -21.852  0.00  0.00    +0.016 C 
ENDROOT
BRANCH   1   3
ATOM      3  C   UNL     1      35.396 -20.870 -20.071  0.00  0.00    -0.012 C 
ATOM      4  C   UNL     1      34.197 -22.177 -18.406  0.00  0.00    -0.000 C 
ATOM      5  C   UNL     1      34.213 -21.441 -19.602  0.00  0.00    -0.004 C 
ATOM      6  C   UNL     1      35.398 -22.336 -17.675  0.00  0.00    +0.003 C 
ATOM      7  C   UNL     1      36.578 -21.026 -19.352  0.00  0.00    -0.004 C 
ATOM      8  C   UNL     1      36.580 -21.753 -18.162  0.00  0.00    -0.000 C 
ATOM      9  C   UNL     1      33.015 -22.759 -17.919  0.00  0.00    +0.003 C 
ATOM     10  C   UNL     1      35.382 -23.071 -16.478  0.00  0.00    +0.037 C 
ATOM     11  C   UNL     1      34.199 -23.642 -16.010  0.00  0.00    +0.139 C 
ATOM     12  C   UNL     1      33.018 -23.487 -16.729  0.00  0.00    +0.037 C 
BRANCH  11  13
ATOM     13  O   UNL     1      34.200 -24.353 -14.849  0.00  0.00    -0.471 OA
ATOM     14  C   UNL     1      35.303 -25.228 -14.624  0.00  0.00    +0.252 C 
ENDBRANCH  11  13
ENDBRANCH   1   3
BRANCH   1  16
ATOM     15  O   UNL     1      37.332 -18.657 -21.746  0.00  0.00    -0.249 OA
ATOM     16  C   UNL     1      36.222 -18.803 -21.249  0.00  0.00    +0.325 C 
BRANCH  16  17
ATOM     17  O   UNL     1      35.506 -17.836 -20.544  0.00  0.00    -0.424 OA
BRANCH  17  18
ATOM     18  C   UNL     1      35.072 -16.781 -21.350  0.00  0.00    +0.148 C 
ATOM     19  C   UNL     1      35.103 -16.906 -22.739  0.00  0.00    +0.038 C 
ATOM     20  C   UNL     1      34.608 -15.603 -20.765  0.00  0.00    +0.038 C 
ATOM     21  C   UNL     1      34.207 -14.673 -22.959  0.00  0.00    +0.020 C 
ATOM     22  C   UNL     1      34.670 -15.852 -23.543  0.00  0.00    +0.005 C 
ATOM     23  C   UNL     1      34.176 -14.548 -21.570  0.00  0.00    +0.005 C 
BRANCH  21  25
ATOM     24  S   UNL     1      33.544 -11.978 -23.277  0.00  0.00    -0.035 S 
ATOM     25  C   UNL     1      33.757 -13.574 -23.798  0.00  0.00    +0.078 C 
BRANCH  25  26
ATOM     26  N   UNL     1      33.494 -13.884 -25.126  0.00  0.00    -0.352 N 
ATOM     27  H   UNL     1      34.213 -14.235 -25.701  0.00  0.00    +0.143 HD
ATOM     28  H   UNL     1      32.590 -13.753 -25.494  0.00  0.00    +0.143 HD
ENDBRANCH  25  26
ENDBRANCH  21  25
ENDBRANCH  17  18
ENDBRANCH  16  17
ENDBRANCH   1  16
TORSDOF 7
ENDMDL
MODEL 4
REMARK VINA RESULT:     -11.2      4.645      9.310
REMARK  Name = 25065981
REMARK  7 active torsions:
REMARK  status: ('A' for Active; 'I' for Inactive)
REMARK    1  A    between atoms: C_1  and  C_3
REMARK    2  A    between atoms: C_1  and  C_16
REMARK    3  A    between atoms: C_11  and  O_13
REMARK    4  A    between atoms: C_16  and  O_17
REMARK    5  A    between atoms: O_17  and  C_18
REMARK    6  A    between atoms: C_21  and  C_25
REMARK    7  A    between atoms: C_25  and  N_26
REMARK                            x       y       z     vdW  Elec       q    Type
REMARK                         _______ _______ _______ _____ _____    ______ ____
ROOT
ATOM      1  C   UNL     1      36.018 -19.741 -21.287  0.00  0.00    +0.122 C 
ATOM      2  C   UNL     1      37.155 -19.377 -20.312  0.00  0.00    +0.016 C 
ENDROOT
BRANCH   1   3
ATOM      3  C   UNL     1      35.475 -18.566 -22.027  0.00  0.00    -0.012 C 
ATOM      4  C   UNL     1      34.845 -16.217 -22.068  0.00  0.00    -0.000 C 
ATOM      5  C   UNL     1      35.355 -17.333 -21.386  0.00  0.00    -0.004 C 
ATOM      6  C   UNL     1      34.452 -16.353 -23.421  0.00  0.00    +0.003 C 
ATOM      7  C   UNL     1      35.089 -18.700 -23.358  0.00  0.00    -0.004 C 
ATOM      8  C   UNL     1      34.581 -17.602 -24.052  0.00  0.00    -0.000 C 
ATOM      9  C   UNL     1      34.717 -14.969 -21.438  0.00  0.00    +0.003 C 
ATOM     10  C   UNL     1      33.942 -15.236 -24.104  0.00  0.00    +0.037 C 
ATOM     11  C   UNL     1      33.822 -14.004 -23.463  0.00  0.00    +0.139 C 
ATOM     12  C   UNL     1      34.209 -13.870 -22.132  0.00  0.00    +0.037 C 
BRANCH  11  13
ATOM     13  O   UNL     1      33.327 -12.931 -24.138  0.00  0.00    -0.471 OA
ATOM     14  C   UNL     1      33.086 -11.744 -23.385  0.00  0.00    +0.252 C 
ENDBRANCH  11  13
ENDBRANCH   1   3
BRANCH   1  16
ATOM     15  O   UNL     1      33.838 -20.059 -20.226  0.00  0.00    -0.249 OA
ATOM     16  C   UNL     1      34.931 -20.520 -20.534  0.00  0.00    +0.325 C 
BRANCH  16  17
ATOM     17  O   UNL     1      35.372 -21.820 -20.286  0.00  0.00    -0.424 OA
BRANCH  17  18
ATOM     18  C   UNL     1      35.238 -22.197 -18.948  0.00  0.00    +0.148 C 
ATOM     19  C   UNL     1      36.298 -22.004 -18.060  0.00  0.00    +0.038 C 
ATOM     20  C   UNL     1      34.048 -22.767 -18.499  0.00  0.00    +0.038 C 
ATOM     21  C   UNL     1      34.974 -22.954 -16.276  0.00  0.00    +0.020 C 
ATOM     22  C   UNL     1      36.165 -22.383 -16.725  0.00  0.00    +0.005 C 
ATOM     23  C   UNL     1      33.916 -23.146 -17.163  0.00  0.00    +0.005 C 
BRANCH  21  25
ATOM     24  S   UNL     1      36.067 -24.031 -13.942  0.00  0.00    -0.035 S 
ATOM     25  C   UNL     1      34.837 -23.348 -14.883  0.00  0.00    +0.078 C 
BRANCH  25  26
ATOM     26  N   UNL     1      33.594 -23.131 -14.303  0.00  0.00    -0.352 N 
ATOM     27  H   UNL     1      32.773 -23.334 -14.807  0.00  0.00    +0.143 HD
ATOM     28  H   UNL     1      33.533 -22.773 -13.388  0.00  0.00    +0.143 HD
ENDBRANCH  25  26
ENDBRANCH  21  25
ENDBRANCH  17  18
ENDBRANCH  16  17
ENDBRANCH   1  16
TORSDOF 7
ENDMDL
MODEL 5
REMARK VINA RESULT:     -11.2      5.007      9.430
REMARK  Name = 25065981
REMARK  7 active torsions:
REMARK  status: ('A' for Active; 'I' for Inactive)
REMARK    1  A    between atoms: C_1  and  C_3
REMARK    2  A    between atoms: C_1  and  C_16
REMARK    3  A    between atoms: C_11  and  O_13
REMARK    4  A    between atoms: C_16  and  O_17
REMARK    5  A    between atoms: O_17  and  C_18
REMARK    6  A    between atoms: C_21  and  C_25
REMARK    7  A    between atoms: C_25  and  N_26
REMARK                            x       y       z     vdW  Elec       q    Type
REMARK                         _______ _______ _______ _____ _____    ______ ____
ROOT
ATOM      1  C   UNL     1      35.523 -21.272 -20.088  0.00  0.00    +0.122 C 
ATOM      2  C   UNL     1      36.624 -21.138 -19.018  0.00  0.00    +0.016 C 
ENDROOT
BRANCH   1   3
ATOM      3  C   UNL     1      35.378 -20.059 -20.943  0.00  0.00    -0.012 C 
ATOM      4  C   UNL     1      34.545 -19.005 -22.971  0.00  0.00    -0.000 C 
ATOM      5  C   UNL     1      34.690 -20.137 -22.154  0.00  0.00    -0.004 C 
ATOM      6  C   UNL     1      35.106 -17.774 -22.554  0.00  0.00    +0.003 C 
ATOM      7  C   UNL     1      35.931 -18.849 -20.533  0.00  0.00    -0.004 C 
ATOM      8  C   UNL     1      35.796 -17.713 -21.332  0.00  0.00    -0.000 C 
ATOM      9  C   UNL     1      33.855 -19.065 -24.192  0.00  0.00    +0.003 C 
ATOM     10  C   UNL     1      34.961 -16.641 -23.371  0.00  0.00    +0.037 C 
ATOM     11  C   UNL     1      34.272 -16.720 -24.581  0.00  0.00    +0.139 C 
ATOM     12  C   UNL     1      33.720 -17.930 -24.991  0.00  0.00    +0.037 C 
BRANCH  11  13
ATOM     13  O   UNL     1      34.140 -15.612 -25.362  0.00  0.00    -0.471 OA
ATOM     14  C   UNL     1      33.363 -14.537 -24.838  0.00  0.00    +0.252 C 
ENDBRANCH  11  13
ENDBRANCH   1   3
BRANCH   1  16
ATOM     15  O   UNL     1      33.227 -20.953 -19.310  0.00  0.00    -0.249 OA
ATOM     16  C   UNL     1      34.206 -21.682 -19.416  0.00  0.00    +0.325 C 
BRANCH  16  17
ATOM     17  O   UNL     1      34.294 -23.004 -18.979  0.00  0.00    -0.424 OA
BRANCH  17  18
ATOM     18  C   UNL     1      33.883 -23.170 -17.654  0.00  0.00    +0.148 C 
ATOM     19  C   UNL     1      34.830 -23.201 -16.629  0.00  0.00    +0.038 C 
ATOM     20  C   UNL     1      32.528 -23.308 -17.357  0.00  0.00    +0.038 C 
ATOM     21  C   UNL     1      33.063 -23.508 -15.009  0.00  0.00    +0.020 C 
ATOM     22  C   UNL     1      34.420 -23.370 -15.307  0.00  0.00    +0.005 C 
ATOM     23  C   UNL     1      32.118 -23.477 -16.033  0.00  0.00    +0.005 C 
BRANCH  21  25
ATOM     24  S   UNL     1      31.034 -23.893 -13.128  0.00  0.00    -0.035 S 
ATOM     25  C   UNL     1      32.637 -23.684 -13.631  0.00  0.00    +0.078 C 
BRANCH  25  26
ATOM     26  N   UNL     1      33.643 -23.683 -12.672  0.00  0.00    -0.352 N 
ATOM     27  H   UNL     1      34.571 -23.485 -12.933  0.00  0.00    +0.143 HD
ATOM     28  H   UNL     1      33.428 -23.882 -11.732  0.00  0.00    +0.143 HD
ENDBRANCH  25  26
ENDBRANCH  21  25
ENDBRANCH  17  18
ENDBRANCH  16  17
ENDBRANCH   1  16
TORSDOF 7
ENDMDL
MODEL 6
REMARK VINA RESULT:     -11.1      5.313      8.419
REMARK  Name = 25065981
REMARK  7 active torsions:
REMARK  status: ('A' for Active; 'I' for Inactive)
REMARK    1  A    between atoms: C_1  and  C_3
REMARK    2  A    between atoms: C_1  and  C_16
REMARK    3  A    between atoms: C_11  and  O_13
REMARK    4  A    between atoms: C_16  and  O_17
REMARK    5  A    between atoms: O_17  and  C_18
REMARK    6  A    between atoms: C_21  and  C_25
REMARK    7  A    between atoms: C_25  and  N_26
REMARK                            x       y       z     vdW  Elec       q    Type
REMARK                         _______ _______ _______ _____ _____    ______ ____
ROOT
ATOM      1  C   UNL     1      32.741 -23.831 -15.656  0.00  0.00    +0.122 C 
ATOM      2  C   UNL     1      31.939 -23.083 -14.573  0.00  0.00    +0.016 C 
ENDROOT
BRANCH   1   3
ATOM      3  C   UNL     1      34.203 -23.897 -15.369  0.00  0.00    -0.012 C 
ATOM      4  C   UNL     1      36.172 -25.199 -14.779  0.00  0.00    -0.000 C 
ATOM      5  C   UNL     1      34.797 -25.119 -15.053  0.00  0.00    -0.004 C 
ATOM      6  C   UNL     1      36.956 -24.023 -14.828  0.00  0.00    +0.003 C 
ATOM      7  C   UNL     1      34.975 -22.740 -15.417  0.00  0.00    -0.004 C 
ATOM      8  C   UNL     1      36.342 -22.800 -15.149  0.00  0.00    -0.000 C 
ATOM      9  C   UNL     1      36.786 -26.420 -14.459  0.00  0.00    +0.003 C 
ATOM     10  C   UNL     1      38.332 -24.102 -14.555  0.00  0.00    +0.037 C 
ATOM     11  C   UNL     1      38.925 -25.324 -14.239  0.00  0.00    +0.139 C 
ATOM     12  C   UNL     1      38.153 -26.481 -14.191  0.00  0.00    +0.037 C 
BRANCH  11  13
ATOM     13  O   UNL     1      40.259 -25.385 -13.977  0.00  0.00    -0.471 OA
ATOM     14  C   UNL     1      40.842 -26.682 -13.873  0.00  0.00    +0.252 C 
ENDBRANCH  11  13
ENDBRANCH   1   3
BRANCH   1  16
ATOM     15  O   UNL     1      31.497 -22.465 -17.258  0.00  0.00    -0.249 OA
ATOM     16  C   UNL     1      32.435 -23.220 -17.030  0.00  0.00    +0.325 C 
BRANCH  16  17
ATOM     17  O   UNL     1      33.396 -23.634 -17.953  0.00  0.00    -0.424 OA
BRANCH  17  18
ATOM     18  C   UNL     1      33.869 -22.593 -18.755  0.00  0.00    +0.148 C 
ATOM     19  C   UNL     1      32.968 -21.745 -19.399  0.00  0.00    +0.038 C 
ATOM     20  C   UNL     1      35.241 -22.403 -18.913  0.00  0.00    +0.038 C 
ATOM     21  C   UNL     1      34.813 -20.517 -20.361  0.00  0.00    +0.020 C 
ATOM     22  C   UNL     1      33.440 -20.707 -20.202  0.00  0.00    +0.005 C 
ATOM     23  C   UNL     1      35.713 -21.364 -19.716  0.00  0.00    +0.005 C 
BRANCH  21  25
ATOM     24  S   UNL     1      34.773 -19.105 -22.771  0.00  0.00    -0.035 S 
ATOM     25  C   UNL     1      35.305 -19.435 -21.198  0.00  0.00    +0.078 C 
BRANCH  25  26
ATOM     26  N   UNL     1      36.280 -18.619 -20.638  0.00  0.00    -0.352 N 
ATOM     27  H   UNL     1      36.211 -18.347 -19.694  0.00  0.00    +0.143 HD
ATOM     28  H   UNL     1      37.039 -18.313 -21.184  0.00  0.00    +0.143 HD
ENDBRANCH  25  26
ENDBRANCH  21  25
ENDBRANCH  17  18
ENDBRANCH  16  17
ENDBRANCH   1  16
TORSDOF 7
ENDMDL
MODEL 7
REMARK VINA RESULT:     -11.0      5.886     10.398
REMARK  Name = 25065981
REMARK  7 active torsions:
REMARK  status: ('A' for Active; 'I' for Inactive)
REMARK    1  A    between atoms: C_1  and  C_3
REMARK    2  A    between atoms: C_1  and  C_16
REMARK    3  A    between atoms: C_11  and  O_13
REMARK    4  A    between atoms: C_16  and  O_17
REMARK    5  A    between atoms: O_17  and  C_18
REMARK    6  A    between atoms: C_21  and  C_25
REMARK    7  A    between atoms: C_25  and  N_26
REMARK                            x       y       z     vdW  Elec       q    Type
REMARK                         _______ _______ _______ _____ _____    ______ ____
ROOT
ATOM      1  C   UNL     1      34.782 -24.783 -14.638  0.00  0.00    +0.122 C 
ATOM      2  C   UNL     1      35.703 -26.016 -14.539  0.00  0.00    +0.016 C 
ENDROOT
BRANCH   1   3
ATOM      3  C   UNL     1      35.151 -23.856 -15.746  0.00  0.00    -0.012 C 
ATOM      4  C   UNL     1      34.538 -22.648 -17.767  0.00  0.00    -0.000 C 
ATOM      5  C   UNL     1      34.207 -23.520 -16.716  0.00  0.00    -0.004 C 
ATOM      6  C   UNL     1      35.845 -22.110 -17.833  0.00  0.00    +0.003 C 
ATOM      7  C   UNL     1      36.437 -23.327 -15.811  0.00  0.00    -0.004 C 
ATOM      8  C   UNL     1      36.783 -22.460 -16.847  0.00  0.00    -0.000 C 
ATOM      9  C   UNL     1      33.601 -22.298 -18.752  0.00  0.00    +0.003 C 
ATOM     10  C   UNL     1      36.178 -21.239 -18.883  0.00  0.00    +0.037 C 
ATOM     11  C   UNL     1      35.234 -20.902 -19.853  0.00  0.00    +0.139 C 
ATOM     12  C   UNL     1      33.948 -21.431 -19.788  0.00  0.00    +0.037 C 
BRANCH  11  13
ATOM     13  O   UNL     1      35.570 -20.055 -20.865  0.00  0.00    -0.471 OA
ATOM     14  C   UNL     1      34.553 -19.738 -21.812  0.00  0.00    +0.252 C 
ENDBRANCH  11  13
ENDBRANCH   1   3
BRANCH   1  16
ATOM     15  O   UNL     1      35.537 -23.254 -12.886  0.00  0.00    -0.249 OA
ATOM     16  C   UNL     1      34.721 -24.082 -13.274  0.00  0.00    +0.325 C 
BRANCH  16  17
ATOM     17  O   UNL     1      33.594 -24.512 -12.575  0.00  0.00    -0.424 OA
BRANCH  17  18
ATOM     18  C   UNL     1      32.412 -24.379 -13.307  0.00  0.00    +0.148 C 
ATOM     19  C   UNL     1      31.579 -25.483 -13.493  0.00  0.00    +0.038 C 
ATOM     20  C   UNL     1      32.065 -23.144 -13.852  0.00  0.00    +0.038 C 
ATOM     21  C   UNL     1      30.053 -24.115 -14.772  0.00  0.00    +0.020 C 
ATOM     22  C   UNL     1      30.400 -25.351 -14.226  0.00  0.00    +0.005 C 
ATOM     23  C   UNL     1      30.885 -23.012 -14.585  0.00  0.00    +0.005 C 
BRANCH  21  25
ATOM     24  S   UNL     1      27.781 -22.646 -15.468  0.00  0.00    -0.035 S 
ATOM     25  C   UNL     1      28.823 -23.978 -15.535  0.00  0.00    +0.078 C 
BRANCH  25  26
ATOM     26  N   UNL     1      28.506 -25.032 -16.383  0.00  0.00    -0.352 N 
ATOM     27  H   UNL     1      28.852 -25.044 -17.305  0.00  0.00    +0.143 HD
ATOM     28  H   UNL     1      27.935 -25.767 -16.062  0.00  0.00    +0.143 HD
ENDBRANCH  25  26
ENDBRANCH  21  25
ENDBRANCH  17  18
ENDBRANCH  16  17
ENDBRANCH   1  16
TORSDOF 7
ENDMDL
MODEL 8
REMARK VINA RESULT:     -10.9      5.373      9.894
REMARK  Name = 25065981
REMARK  7 active torsions:
REMARK  status: ('A' for Active; 'I' for Inactive)
REMARK    1  A    between atoms: C_1  and  C_3
REMARK    2  A    between atoms: C_1  and  C_16
REMARK    3  A    between atoms: C_11  and  O_13
REMARK    4  A    between atoms: C_16  and  O_17
REMARK    5  A    between atoms: O_17  and  C_18
REMARK    6  A    between atoms: C_21  and  C_25
REMARK    7  A    between atoms: C_25  and  N_26
REMARK                            x       y       z     vdW  Elec       q    Type
REMARK                         _______ _______ _______ _____ _____    ______ ____
ROOT
ATOM      1  C   UNL     1      36.621 -22.821 -16.532  0.00  0.00    +0.122 C 
ATOM      2  C   UNL     1      37.338 -21.832 -15.591  0.00  0.00    +0.016 C 
ENDROOT
BRANCH   1   3
ATOM      3  C   UNL     1      36.032 -22.170 -17.737  0.00  0.00    -0.012 C 
ATOM      4  C   UNL     1      36.227 -20.595 -19.582  0.00  0.00    -0.000 C 
ATOM      5  C   UNL     1      36.767 -21.219 -18.445  0.00  0.00    -0.004 C 
ATOM      6  C   UNL     1      34.923 -20.942 -20.006  0.00  0.00    +0.003 C 
ATOM      7  C   UNL     1      34.749 -22.510 -18.154  0.00  0.00    -0.004 C 
ATOM      8  C   UNL     1      34.196 -21.902 -19.281  0.00  0.00    -0.000 C 
ATOM      9  C   UNL     1      36.953 -19.637 -20.306  0.00  0.00    +0.003 C 
ATOM     10  C   UNL     1      34.381 -20.319 -21.143  0.00  0.00    +0.037 C 
ATOM     11  C   UNL     1      35.117 -19.369 -21.851  0.00  0.00    +0.139 C 
ATOM     12  C   UNL     1      36.400 -19.028 -21.433  0.00  0.00    +0.037 C 
BRANCH  11  13
ATOM     13  O   UNL     1      34.580 -18.774 -22.951  0.00  0.00    -0.471 OA
ATOM     14  C   UNL     1      34.969 -17.428 -23.217  0.00  0.00    +0.252 C 
ENDBRANCH  11  13
ENDBRANCH   1   3
BRANCH   1  16
ATOM     15  O   UNL     1      35.560 -24.853 -15.682  0.00  0.00    -0.249 OA
ATOM     16  C   UNL     1      35.591 -23.629 -15.732  0.00  0.00    +0.325 C 
BRANCH  16  17
ATOM     17  O   UNL     1      34.729 -22.760 -15.064  0.00  0.00    -0.424 OA
BRANCH  17  18
ATOM     18  C   UNL     1      33.416 -23.231 -15.002  0.00  0.00    +0.148 C 
ATOM     19  C   UNL     1      32.960 -23.877 -13.852  0.00  0.00    +0.038 C 
ATOM     20  C   UNL     1      32.561 -23.058 -16.090  0.00  0.00    +0.038 C 
ATOM     21  C   UNL     1      30.794 -24.176 -14.880  0.00  0.00    +0.020 C 
ATOM     22  C   UNL     1      31.649 -24.349 -13.791  0.00  0.00    +0.005 C 
ATOM     23  C   UNL     1      31.249 -23.531 -16.028  0.00  0.00    +0.005 C 
BRANCH  21  25
ATOM     24  S   UNL     1      28.120 -24.023 -15.674  0.00  0.00    -0.035 S 
ATOM     25  C   UNL     1      29.428 -24.669 -14.815  0.00  0.00    +0.078 C 
BRANCH  25  26
ATOM     26  N   UNL     1      29.207 -25.760 -13.984  0.00  0.00    -0.352 N 
ATOM     27  H   UNL     1      29.397 -25.690 -13.020  0.00  0.00    +0.143 HD
ATOM     28  H   UNL     1      28.862 -26.603 -14.357  0.00  0.00    +0.143 HD
ENDBRANCH  25  26
ENDBRANCH  21  25
ENDBRANCH  17  18
ENDBRANCH  16  17
ENDBRANCH   1  16
TORSDOF 7
ENDMDL
MODEL 9
REMARK VINA RESULT:     -10.8      4.613      9.242
REMARK  Name = 25065981
REMARK  7 active torsions:
REMARK  status: ('A' for Active; 'I' for Inactive)
REMARK    1  A    between atoms: C_1  and  C_3
REMARK    2  A    between atoms: C_1  and  C_16
REMARK    3  A    between atoms: C_11  and  O_13
REMARK    4  A    between atoms: C_16  and  O_17
REMARK    5  A    between atoms: O_17  and  C_18
REMARK    6  A    between atoms: C_21  and  C_25
REMARK    7  A    between atoms: C_25  and  N_26
REMARK                            x       y       z     vdW  Elec       q    Type
REMARK                         _______ _______ _______ _____ _____    ______ ____
ROOT
ATOM      1  C   UNL     1      35.849 -18.920 -21.834  0.00  0.00    +0.122 C 
ATOM      2  C   UNL     1      37.283 -18.970 -21.268  0.00  0.00    +0.016 C 
ENDROOT
BRANCH   1   3
ATOM      3  C   UNL     1      35.300 -17.537 -21.931  0.00  0.00    -0.012 C 
ATOM      4  C   UNL     1      34.391 -15.727 -23.279  0.00  0.00    -0.000 C 
ATOM      5  C   UNL     1      34.910 -17.027 -23.170  0.00  0.00    -0.004 C 
ATOM      6  C   UNL     1      34.266 -14.932 -22.115  0.00  0.00    +0.003 C 
ATOM      7  C   UNL     1      35.177 -16.755 -20.786  0.00  0.00    -0.004 C 
ATOM      8  C   UNL     1      34.663 -15.462 -20.875  0.00  0.00    -0.000 C 
ATOM      9  C   UNL     1      33.993 -15.198 -24.517  0.00  0.00    +0.003 C 
ATOM     10  C   UNL     1      33.747 -13.631 -22.223  0.00  0.00    +0.037 C 
ATOM     11  C   UNL     1      33.357 -13.122 -23.461  0.00  0.00    +0.139 C 
ATOM     12  C   UNL     1      33.480 -13.904 -24.606  0.00  0.00    +0.037 C 
BRANCH  11  13
ATOM     13  O   UNL     1      32.855 -11.860 -23.550  0.00  0.00    -0.471 OA
ATOM     14  C   UNL     1      32.152 -11.358 -22.416  0.00  0.00    +0.252 C 
ENDBRANCH  11  13
ENDBRANCH   1   3
BRANCH   1  16
ATOM     15  O   UNL     1      33.844 -19.553 -20.588  0.00  0.00    -0.249 OA
ATOM     16  C   UNL     1      34.947 -19.859 -21.022  0.00  0.00    +0.325 C 
BRANCH  16  17
ATOM     17  O   UNL     1      35.566 -21.102 -20.886  0.00  0.00    -0.424 OA
BRANCH  17  18
ATOM     18  C   UNL     1      35.466 -21.624 -19.595  0.00  0.00    +0.148 C 
ATOM     19  C   UNL     1      34.284 -22.239 -19.180  0.00  0.00    +0.038 C 
ATOM     20  C   UNL     1      36.548 -21.530 -18.720  0.00  0.00    +0.038 C 
ATOM     21  C   UNL     1      35.267 -22.664 -17.014  0.00  0.00    +0.020 C 
ATOM     22  C   UNL     1      34.185 -22.759 -17.890  0.00  0.00    +0.005 C 
ATOM     23  C   UNL     1      36.448 -22.050 -17.429  0.00  0.00    +0.005 C 
BRANCH  21  25
ATOM     24  S   UNL     1      33.729 -23.746 -14.948  0.00  0.00    -0.035 S 
ATOM     25  C   UNL     1      35.162 -23.206 -15.669  0.00  0.00    +0.078 C 
BRANCH  25  26
ATOM     26  N   UNL     1      36.344 -23.283 -14.944  0.00  0.00    -0.352 N 
ATOM     27  H   UNL     1      37.068 -22.637 -15.113  0.00  0.00    +0.143 HD
ATOM     28  H   UNL     1      36.459 -23.983 -14.261  0.00  0.00    +0.143 HD
ENDBRANCH  25  26
ENDBRANCH  21  25
ENDBRANCH  17  18
ENDBRANCH  16  17
ENDBRANCH   1  16
TORSDOF 7
ENDMDL
