MODEL 1
REMARK VINA RESULT:     -11.4      0.000      0.000
REMARK  Name = 9804992
REMARK  10 active torsions:
REMARK  status: ('A' for Active; 'I' for Inactive)
REMARK    1  A    between atoms: C_1  and  C_9
REMARK    2  A    between atoms: C_1  and  O_19
REMARK    3  A    between atoms: C_2  and  C_12
REMARK    4  A    between atoms: C_12  and  N_13
REMARK    5  A    between atoms: N_13  and  C_15
REMARK    6  A    between atoms: N_13  and  C_17
REMARK    7  A    between atoms: O_19  and  C_22
REMARK    8  A    between atoms: N_21  and  C_24
REMARK    9  A    between atoms: C_27  and  C_32
REMARK   10  A    between atoms: N_31  and  O_34
REMARK                            x       y       z     vdW  Elec       q    Type
REMARK                         _______ _______ _______ _____ _____    ______ ____
ROOT
ATOM      1  C   UNL     1      35.487 -16.881 -22.688  0.00  0.00    +0.237 C 
ENDROOT
BRANCH   1   9
ATOM      2  C   UNL     1      31.843 -11.662 -21.285  0.00  0.00    -0.043 C 
ATOM      3  C   UNL     1      33.157 -13.269 -22.553  0.00  0.00    -0.000 C 
ATOM      4  C   UNL     1      33.364 -14.022 -21.373  0.00  0.00    -0.000 C 
ATOM      5  C   UNL     1      32.394 -12.091 -22.492  0.00  0.00    -0.006 C 
ATOM      6  C   UNL     1      32.046 -12.403 -20.124  0.00  0.00    -0.006 C 
ATOM      7  C   UNL     1      32.801 -13.575 -20.166  0.00  0.00    -0.000 C 
ATOM      8  C   UNL     1      34.126 -15.199 -21.434  0.00  0.00    -0.001 C 
ATOM      9  C   UNL     1      34.679 -15.628 -22.642  0.00  0.00    +0.021 C 
ATOM     10  C   UNL     1      33.720 -13.715 -23.760  0.00  0.00    -0.000 C 
ATOM     11  C   UNL     1      34.475 -14.888 -23.803  0.00  0.00    -0.001 C 
BRANCH   2  12
ATOM     12  C   UNL     1      31.036 -10.409 -21.238  0.00  0.00    -0.050 C 
BRANCH  12  13
ATOM     13  N   UNL     1      31.865  -9.208 -21.346  0.00  0.00    +0.390 N 
ATOM     14  H   UNL     1      32.779  -9.476 -21.709  0.00  0.00    -0.079 HD
BRANCH  13  15
ATOM     15  C   UNL     1      31.260  -8.254 -22.275  0.00  0.00    -0.077 C 
ATOM     16  C   UNL     1      31.854  -8.391 -23.667  0.00  0.00    -0.025 C 
ENDBRANCH  13  15
BRANCH  13  17
ATOM     17  C   UNL     1      32.050  -8.596 -20.032  0.00  0.00    -0.077 C 
ATOM     18  C   UNL     1      32.892  -7.335 -20.126  0.00  0.00    -0.025 C 
ENDBRANCH  13  17
ENDBRANCH  12  13
ENDBRANCH   2  12
ENDBRANCH   1   9
BRANCH   1  19
ATOM     19  O   UNL     1      34.809 -17.851 -23.477  0.00  0.00    -0.429 OA
BRANCH  19  22
ATOM     20  O   UNL     1      34.796 -20.132 -23.646  0.00  0.00    -0.226 OA
ATOM     21  N   UNL     1      34.598 -19.040 -21.585  0.00  0.00    -0.250 N 
ATOM     22  C   UNL     1      34.738 -19.121 -22.956  0.00  0.00    +0.406 C 
ATOM     23  H   UNL     1      34.571 -18.131 -21.206  0.00  0.00    +0.158 HD
BRANCH  21  24
ATOM     24  C   UNL     1      34.488 -20.101 -20.657  0.00  0.00    +0.053 C 
ATOM     25  C   UNL     1      35.639 -20.704 -20.148  0.00  0.00    +0.015 C 
ATOM     26  C   UNL     1      33.229 -20.545 -20.251  0.00  0.00    +0.015 C 
ATOM     27  C   UNL     1      34.271 -22.196 -18.827  0.00  0.00    +0.055 C 
ATOM     28  C   UNL     1      35.530 -21.751 -19.233  0.00  0.00    +0.006 C 
ATOM     29  C   UNL     1      33.121 -21.593 -19.336  0.00  0.00    +0.006 C 
BRANCH  27  32
ATOM     30  O   UNL     1      33.531 -24.323 -18.162  0.00  0.00    -0.268 OA
ATOM     31  N   UNL     1      34.768 -23.115 -16.639  0.00  0.00    -0.193 N 
ATOM     32  C   UNL     1      34.159 -23.288 -17.874  0.00  0.00    +0.268 C 
ATOM     33  H   UNL     1      35.264 -22.293 -16.419  0.00  0.00    +0.183 HD
BRANCH  31  34
ATOM     34  O   UNL     1      34.646 -24.167 -15.720  0.00  0.00    -0.295 OA
ATOM     35  H   UNL     1      34.954 -24.991 -16.127  0.00  0.00    +0.241 HD
ENDBRANCH  31  34
ENDBRANCH  27  32
ENDBRANCH  21  24
ENDBRANCH  19  22
ENDBRANCH   1  19
TORSDOF 10
ENDMDL
MODEL 2
REMARK VINA RESULT:     -11.3      3.777     12.104
REMARK  Name = 9804992
REMARK  10 active torsions:
REMARK  status: ('A' for Active; 'I' for Inactive)
REMARK    1  A    between atoms: C_1  and  C_9
REMARK    2  A    between atoms: C_1  and  O_19
REMARK    3  A    between atoms: C_2  and  C_12
REMARK    4  A    between atoms: C_12  and  N_13
REMARK    5  A    between atoms: N_13  and  C_15
REMARK    6  A    between atoms: N_13  and  C_17
REMARK    7  A    between atoms: O_19  and  C_22
REMARK    8  A    between atoms: N_21  and  C_24
REMARK    9  A    between atoms: C_27  and  C_32
REMARK   10  A    between atoms: N_31  and  O_34
REMARK                            x       y       z     vdW  Elec       q    Type
REMARK                         _______ _______ _______ _____ _____    ______ ____
ROOT
ATOM      1  C   UNL     1      35.470 -20.929 -20.172  0.00  0.00    +0.237 C 
ENDROOT
BRANCH   1   9
ATOM      2  C   UNL     1      35.833 -23.951 -14.409  0.00  0.00    -0.043 C 
ATOM      3  C   UNL     1      34.938 -23.132 -16.517  0.00  0.00    -0.000 C 
ATOM      4  C   UNL     1      36.180 -22.513 -16.796  0.00  0.00    -0.000 C 
ATOM      5  C   UNL     1      34.781 -23.848 -15.319  0.00  0.00    -0.006 C 
ATOM      6  C   UNL     1      37.054 -23.343 -14.683  0.00  0.00    -0.006 C 
ATOM      7  C   UNL     1      37.228 -22.629 -15.868  0.00  0.00    -0.000 C 
ATOM      8  C   UNL     1      36.337 -21.798 -17.994  0.00  0.00    -0.001 C 
ATOM      9  C   UNL     1      35.284 -21.694 -18.905  0.00  0.00    +0.021 C 
ATOM     10  C   UNL     1      33.890 -23.017 -17.445  0.00  0.00    -0.000 C 
ATOM     11  C   UNL     1      34.064 -22.303 -18.631  0.00  0.00    -0.001 C 
BRANCH   2  12
ATOM     12  C   UNL     1      35.648 -24.715 -13.140  0.00  0.00    -0.050 C 
BRANCH  12  13
ATOM     13  N   UNL     1      36.921 -25.127 -12.548  0.00  0.00    +0.390 N 
ATOM     14  H   UNL     1      37.678 -24.665 -13.051  0.00  0.00    -0.079 HD
BRANCH  13  15
ATOM     15  C   UNL     1      36.985 -24.721 -11.145  0.00  0.00    -0.077 C 
ATOM     16  C   UNL     1      37.013 -23.208 -11.011  0.00  0.00    -0.025 C 
ENDBRANCH  13  15
BRANCH  13  17
ATOM     17  C   UNL     1      37.097 -26.572 -12.672  0.00  0.00    -0.077 C 
ATOM     18  C   UNL     1      37.815 -26.930 -13.962  0.00  0.00    -0.025 C 
ENDBRANCH  13  17
ENDBRANCH  12  13
ENDBRANCH   2  12
ENDBRANCH   1   9
BRANCH   1  19
ATOM     19  O   UNL     1      36.729 -20.271 -20.147  0.00  0.00    -0.429 OA
BRANCH  19  22
ATOM     20  O   UNL     1      37.879 -18.646 -21.273  0.00  0.00    -0.226 OA
ATOM     21  N   UNL     1      35.557 -18.552 -20.989  0.00  0.00    -0.250 N 
ATOM     22  C   UNL     1      36.819 -19.095 -20.852  0.00  0.00    +0.406 C 
ATOM     23  H   UNL     1      34.820 -19.064 -20.580  0.00  0.00    +0.158 HD
BRANCH  21  24
ATOM     24  C   UNL     1      35.191 -17.353 -21.642  0.00  0.00    +0.053 C 
ATOM     25  C   UNL     1      34.914 -16.209 -20.893  0.00  0.00    +0.015 C 
ATOM     26  C   UNL     1      35.104 -17.315 -23.033  0.00  0.00    +0.015 C 
ATOM     27  C   UNL     1      34.465 -14.988 -22.930  0.00  0.00    +0.055 C 
ATOM     28  C   UNL     1      34.552 -15.026 -21.538  0.00  0.00    +0.006 C 
ATOM     29  C   UNL     1      34.742 -16.132 -23.677  0.00  0.00    +0.006 C 
BRANCH  27  32
ATOM     30  O   UNL     1      33.593 -13.776 -24.743  0.00  0.00    -0.268 OA
ATOM     31  N   UNL     1      34.312 -12.568 -22.918  0.00  0.00    -0.193 N 
ATOM     32  C   UNL     1      34.087 -13.754 -23.601  0.00  0.00    +0.268 C 
ATOM     33  H   UNL     1      34.704 -12.559 -22.014  0.00  0.00    +0.183 HD
BRANCH  31  34
ATOM     34  O   UNL     1      33.957 -11.381 -23.576  0.00  0.00    -0.295 OA
ATOM     35  H   UNL     1      34.759 -10.894 -23.822  0.00  0.00    +0.241 HD
ENDBRANCH  31  34
ENDBRANCH  27  32
ENDBRANCH  21  24
ENDBRANCH  19  22
ENDBRANCH   1  19
TORSDOF 10
ENDMDL
MODEL 3
REMARK VINA RESULT:     -11.3      2.946     10.815
REMARK  Name = 9804992
REMARK  10 active torsions:
REMARK  status: ('A' for Active; 'I' for Inactive)
REMARK    1  A    between atoms: C_1  and  C_9
REMARK    2  A    between atoms: C_1  and  O_19
REMARK    3  A    between atoms: C_2  and  C_12
REMARK    4  A    between atoms: C_12  and  N_13
REMARK    5  A    between atoms: N_13  and  C_15
REMARK    6  A    between atoms: N_13  and  C_17
REMARK    7  A    between atoms: O_19  and  C_22
REMARK    8  A    between atoms: N_21  and  C_24
REMARK    9  A    between atoms: C_27  and  C_32
REMARK   10  A    between atoms: N_31  and  O_34
REMARK                            x       y       z     vdW  Elec       q    Type
REMARK                         _______ _______ _______ _____ _____    ______ ____
ROOT
ATOM      1  C   UNL     1      36.005 -17.528 -22.436  0.00  0.00    +0.237 C 
ENDROOT
BRANCH   1   9
ATOM      2  C   UNL     1      33.887 -22.432 -18.701  0.00  0.00    -0.043 C 
ATOM      3  C   UNL     1      35.396 -20.882 -19.813  0.00  0.00    -0.000 C 
ATOM      4  C   UNL     1      34.286 -20.242 -20.413  0.00  0.00    -0.000 C 
ATOM      5  C   UNL     1      35.180 -21.975 -18.959  0.00  0.00    -0.006 C 
ATOM      6  C   UNL     1      32.796 -21.803 -19.291  0.00  0.00    -0.006 C 
ATOM      7  C   UNL     1      32.991 -20.715 -20.142  0.00  0.00    -0.000 C 
ATOM      8  C   UNL     1      34.502 -19.148 -21.267  0.00  0.00    -0.001 C 
ATOM      9  C   UNL     1      35.795 -18.691 -21.526  0.00  0.00    +0.021 C 
ATOM     10  C   UNL     1      36.690 -20.408 -20.084  0.00  0.00    -0.000 C 
ATOM     11  C   UNL     1      36.887 -19.320 -20.935  0.00  0.00    -0.001 C 
BRANCH   2  12
ATOM     12  C   UNL     1      33.676 -23.596 -17.792  0.00  0.00    -0.050 C 
BRANCH  12  13
ATOM     13  N   UNL     1      33.386 -23.184 -16.418  0.00  0.00    +0.390 N 
ATOM     14  H   UNL     1      33.487 -22.171 -16.354  0.00  0.00    -0.079 HD
BRANCH  13  15
ATOM     15  C   UNL     1      32.012 -23.534 -16.061  0.00  0.00    -0.077 C 
ATOM     16  C   UNL     1      31.705 -23.155 -14.622  0.00  0.00    -0.025 C 
ENDBRANCH  13  15
BRANCH  13  17
ATOM     17  C   UNL     1      34.330 -23.802 -15.490  0.00  0.00    -0.077 C 
ATOM     18  C   UNL     1      35.559 -22.930 -15.293  0.00  0.00    -0.025 C 
ENDBRANCH  13  17
ENDBRANCH  12  13
ENDBRANCH   2  12
ENDBRANCH   1   9
BRANCH   1  19
ATOM     19  O   UNL     1      35.122 -17.630 -23.545  0.00  0.00    -0.429 OA
BRANCH  19  22
ATOM     20  O   UNL     1      34.040 -16.283 -25.044  0.00  0.00    -0.226 OA
ATOM     21  N   UNL     1      34.376 -15.643 -22.817  0.00  0.00    -0.250 N 
ATOM     22  C   UNL     1      34.464 -16.481 -23.911  0.00  0.00    +0.406 C 
ATOM     23  H   UNL     1      34.778 -15.978 -21.982  0.00  0.00    +0.158 HD
BRANCH  21  24
ATOM     24  C   UNL     1      33.780 -14.363 -22.746  0.00  0.00    +0.053 C 
ATOM     25  C   UNL     1      32.876 -14.071 -21.724  0.00  0.00    +0.015 C 
ATOM     26  C   UNL     1      34.093 -13.394 -23.699  0.00  0.00    +0.015 C 
ATOM     27  C   UNL     1      32.601 -11.838 -22.607  0.00  0.00    +0.055 C 
ATOM     28  C   UNL     1      32.287 -12.808 -21.654  0.00  0.00    +0.006 C 
ATOM     29  C   UNL     1      33.504 -12.131 -23.629  0.00  0.00    +0.006 C 
BRANCH  27  32
ATOM     30  O   UNL     1      31.192 -10.241 -21.619  0.00  0.00    -0.268 OA
ATOM     31  N   UNL     1      32.316  -9.614 -23.530  0.00  0.00    -0.193 N 
ATOM     32  C   UNL     1      31.986 -10.523 -22.534  0.00  0.00    +0.268 C 
ATOM     33  H   UNL     1      32.946  -9.845 -24.251  0.00  0.00    +0.183 HD
BRANCH  31  34
ATOM     34  O   UNL     1      31.710  -8.351 -23.461  0.00  0.00    -0.295 OA
ATOM     35  H   UNL     1      31.643  -7.975 -24.352  0.00  0.00    +0.241 HD
ENDBRANCH  31  34
ENDBRANCH  27  32
ENDBRANCH  21  24
ENDBRANCH  19  22
ENDBRANCH   1  19
TORSDOF 10
ENDMDL
MODEL 4
REMARK VINA RESULT:     -11.2      3.987     12.194
REMARK  Name = 9804992
REMARK  10 active torsions:
REMARK  status: ('A' for Active; 'I' for Inactive)
REMARK    1  A    between atoms: C_1  and  C_9
REMARK    2  A    between atoms: C_1  and  O_19
REMARK    3  A    between atoms: C_2  and  C_12
REMARK    4  A    between atoms: C_12  and  N_13
REMARK    5  A    between atoms: N_13  and  C_15
REMARK    6  A    between atoms: N_13  and  C_17
REMARK    7  A    between atoms: O_19  and  C_22
REMARK    8  A    between atoms: N_21  and  C_24
REMARK    9  A    between atoms: C_27  and  C_32
REMARK   10  A    between atoms: N_31  and  O_34
REMARK                            x       y       z     vdW  Elec       q    Type
REMARK                         _______ _______ _______ _____ _____    ______ ____
ROOT
ATOM      1  C   UNL     1      35.659 -21.010 -20.092  0.00  0.00    +0.237 C 
ENDROOT
BRANCH   1   9
ATOM      2  C   UNL     1      35.973 -23.938 -14.277  0.00  0.00    -0.043 C 
ATOM      3  C   UNL     1      35.099 -23.161 -16.409  0.00  0.00    -0.000 C 
ATOM      4  C   UNL     1      36.339 -22.535 -16.682  0.00  0.00    -0.000 C 
ATOM      5  C   UNL     1      34.932 -23.858 -15.202  0.00  0.00    -0.006 C 
ATOM      6  C   UNL     1      37.192 -23.323 -14.545  0.00  0.00    -0.006 C 
ATOM      7  C   UNL     1      37.376 -22.626 -15.739  0.00  0.00    -0.000 C 
ATOM      8  C   UNL     1      36.505 -21.837 -17.889  0.00  0.00    -0.001 C 
ATOM      9  C   UNL     1      35.464 -21.756 -18.815  0.00  0.00    +0.021 C 
ATOM     10  C   UNL     1      34.062 -23.070 -17.352  0.00  0.00    -0.000 C 
ATOM     11  C   UNL     1      34.245 -22.372 -18.547  0.00  0.00    -0.001 C 
BRANCH   2  12
ATOM     12  C   UNL     1      35.778 -24.683 -12.999  0.00  0.00    -0.050 C 
BRANCH  12  13
ATOM     13  N   UNL     1      37.002 -24.747 -12.200  0.00  0.00    +0.390 N 
ATOM     14  H   UNL     1      37.748 -24.271 -12.708  0.00  0.00    -0.079 HD
BRANCH  13  15
ATOM     15  C   UNL     1      36.810 -24.068 -10.919  0.00  0.00    -0.077 C 
ATOM     16  C   UNL     1      35.669 -24.690 -10.133  0.00  0.00    -0.025 C 
ENDBRANCH  13  15
BRANCH  13  17
ATOM     17  C   UNL     1      37.401 -26.137 -11.988  0.00  0.00    -0.077 C 
ATOM     18  C   UNL     1      37.142 -26.978 -13.226  0.00  0.00    -0.025 C 
ENDBRANCH  13  17
ENDBRANCH  12  13
ENDBRANCH   2  12
ENDBRANCH   1   9
BRANCH   1  19
ATOM     19  O   UNL     1      36.804 -20.175 -19.981  0.00  0.00    -0.429 OA
BRANCH  19  22
ATOM     20  O   UNL     1      37.900 -18.667 -21.305  0.00  0.00    -0.226 OA
ATOM     21  N   UNL     1      35.577 -18.608 -21.018  0.00  0.00    -0.250 N 
ATOM     22  C   UNL     1      36.856 -19.093 -20.825  0.00  0.00    +0.406 C 
ATOM     23  H   UNL     1      34.858 -19.088 -20.545  0.00  0.00    +0.158 HD
BRANCH  21  24
ATOM     24  C   UNL     1      35.172 -17.510 -21.811  0.00  0.00    +0.053 C 
ATOM     25  C   UNL     1      35.027 -17.662 -23.190  0.00  0.00    +0.015 C 
ATOM     26  C   UNL     1      34.920 -16.275 -21.214  0.00  0.00    +0.015 C 
ATOM     27  C   UNL     1      34.376 -15.343 -23.376  0.00  0.00    +0.055 C 
ATOM     28  C   UNL     1      34.628 -16.579 -23.973  0.00  0.00    +0.006 C 
ATOM     29  C   UNL     1      34.522 -15.191 -21.997  0.00  0.00    +0.006 C 
BRANCH  27  32
ATOM     30  O   UNL     1      34.051 -13.049 -23.761  0.00  0.00    -0.268 OA
ATOM     31  N   UNL     1      33.455 -14.495 -25.453  0.00  0.00    -0.193 N 
ATOM     32  C   UNL     1      33.961 -14.213 -24.192  0.00  0.00    +0.268 C 
ATOM     33  H   UNL     1      33.387 -15.420 -25.786  0.00  0.00    +0.183 HD
BRANCH  31  34
ATOM     34  O   UNL     1      33.045 -13.403 -26.230  0.00  0.00    -0.295 OA
ATOM     35  H   UNL     1      33.487 -12.598 -25.918  0.00  0.00    +0.241 HD
ENDBRANCH  31  34
ENDBRANCH  27  32
ENDBRANCH  21  24
ENDBRANCH  19  22
ENDBRANCH   1  19
TORSDOF 10
ENDMDL
MODEL 5
REMARK VINA RESULT:     -10.7      4.653      8.413
REMARK  Name = 9804992
REMARK  10 active torsions:
REMARK  status: ('A' for Active; 'I' for Inactive)
REMARK    1  A    between atoms: C_1  and  C_9
REMARK    2  A    between atoms: C_1  and  O_19
REMARK    3  A    between atoms: C_2  and  C_12
REMARK    4  A    between atoms: C_12  and  N_13
REMARK    5  A    between atoms: N_13  and  C_15
REMARK    6  A    between atoms: N_13  and  C_17
REMARK    7  A    between atoms: O_19  and  C_22
REMARK    8  A    between atoms: N_21  and  C_24
REMARK    9  A    between atoms: C_27  and  C_32
REMARK   10  A    between atoms: N_31  and  O_34
REMARK                            x       y       z     vdW  Elec       q    Type
REMARK                         _______ _______ _______ _____ _____    ______ ____
ROOT
ATOM      1  C   UNL     1      33.106 -23.727 -17.358  0.00  0.00    +0.237 C 
ENDROOT
BRANCH   1   9
ATOM      2  C   UNL     1      35.728 -19.195 -21.240  0.00  0.00    -0.043 C 
ATOM      3  C   UNL     1      34.065 -20.521 -20.060  0.00  0.00    -0.000 C 
ATOM      4  C   UNL     1      35.101 -21.288 -19.475  0.00  0.00    -0.000 C 
ATOM      5  C   UNL     1      34.395 -19.478 -20.940  0.00  0.00    -0.006 C 
ATOM      6  C   UNL     1      36.747 -19.948 -20.664  0.00  0.00    -0.006 C 
ATOM      7  C   UNL     1      36.438 -20.988 -19.788  0.00  0.00    -0.000 C 
ATOM      8  C   UNL     1      34.772 -22.331 -18.595  0.00  0.00    -0.001 C 
ATOM      9  C   UNL     1      33.438 -22.615 -18.295  0.00  0.00    +0.021 C 
ATOM     10  C   UNL     1      32.729 -20.821 -19.747  0.00  0.00    -0.000 C 
ATOM     11  C   UNL     1      32.419 -21.861 -18.869  0.00  0.00    -0.001 C 
BRANCH   2  12
ATOM     12  C   UNL     1      36.060 -18.083 -22.177  0.00  0.00    -0.050 C 
BRANCH  12  13
ATOM     13  N   UNL     1      34.875 -17.335 -22.597  0.00  0.00    +0.390 N 
ATOM     14  H   UNL     1      34.059 -17.729 -22.129  0.00  0.00    -0.079 HD
BRANCH  13  15
ATOM     15  C   UNL     1      34.996 -15.930 -22.209  0.00  0.00    -0.077 C 
ATOM     16  C   UNL     1      34.608 -15.726 -20.755  0.00  0.00    -0.025 C 
ENDBRANCH  13  15
BRANCH  13  17
ATOM     17  C   UNL     1      34.682 -17.453 -24.041  0.00  0.00    -0.077 C 
ATOM     18  C   UNL     1      34.005 -18.765 -24.399  0.00  0.00    -0.025 C 
ENDBRANCH  13  17
ENDBRANCH  12  13
ENDBRANCH   2  12
ENDBRANCH   1   9
BRANCH   1  19
ATOM     19  O   UNL     1      32.985 -23.212 -16.038  0.00  0.00    -0.429 OA
BRANCH  19  22
ATOM     20  O   UNL     1      33.825 -23.544 -13.937  0.00  0.00    -0.226 OA
ATOM     21  N   UNL     1      35.111 -23.908 -15.859  0.00  0.00    -0.250 N 
ATOM     22  C   UNL     1      33.977 -23.558 -15.153  0.00  0.00    +0.406 C 
ATOM     23  H   UNL     1      35.041 -23.859 -16.841  0.00  0.00    +0.158 HD
BRANCH  21  24
ATOM     24  C   UNL     1      36.360 -24.328 -15.348  0.00  0.00    +0.053 C 
ATOM     25  C   UNL     1      37.469 -23.487 -15.439  0.00  0.00    +0.015 C 
ATOM     26  C   UNL     1      36.484 -25.584 -14.753  0.00  0.00    +0.015 C 
ATOM     27  C   UNL     1      38.826 -25.158 -14.341  0.00  0.00    +0.055 C 
ATOM     28  C   UNL     1      38.702 -23.902 -14.935  0.00  0.00    +0.006 C 
ATOM     29  C   UNL     1      37.717 -25.999 -14.250  0.00  0.00    +0.006 C 
BRANCH  27  32
ATOM     30  O   UNL     1      40.903 -24.771 -13.315  0.00  0.00    -0.268 OA
ATOM     31  N   UNL     1      40.413 -26.941 -13.913  0.00  0.00    -0.193 N 
ATOM     32  C   UNL     1      40.111 -25.590 -13.816  0.00  0.00    +0.268 C 
ATOM     33  H   UNL     1      39.780 -27.583 -14.311  0.00  0.00    +0.183 HD
BRANCH  31  34
ATOM     34  O   UNL     1      41.659 -27.349 -13.417  0.00  0.00    -0.295 OA
ATOM     35  H   UNL     1      41.609 -28.277 -13.139  0.00  0.00    +0.241 HD
ENDBRANCH  31  34
ENDBRANCH  27  32
ENDBRANCH  21  24
ENDBRANCH  19  22
ENDBRANCH   1  19
TORSDOF 10
ENDMDL
MODEL 6
REMARK VINA RESULT:     -10.6      1.521      2.537
REMARK  Name = 9804992
REMARK  10 active torsions:
REMARK  status: ('A' for Active; 'I' for Inactive)
REMARK    1  A    between atoms: C_1  and  C_9
REMARK    2  A    between atoms: C_1  and  O_19
REMARK    3  A    between atoms: C_2  and  C_12
REMARK    4  A    between atoms: C_12  and  N_13
REMARK    5  A    between atoms: N_13  and  C_15
REMARK    6  A    between atoms: N_13  and  C_17
REMARK    7  A    between atoms: O_19  and  C_22
REMARK    8  A    between atoms: N_21  and  C_24
REMARK    9  A    between atoms: C_27  and  C_32
REMARK   10  A    between atoms: N_31  and  O_34
REMARK                            x       y       z     vdW  Elec       q    Type
REMARK                         _______ _______ _______ _____ _____    ______ ____
ROOT
ATOM      1  C   UNL     1      35.415 -18.363 -22.914  0.00  0.00    +0.237 C 
ENDROOT
BRANCH   1   9
ATOM      2  C   UNL     1      33.200 -12.234 -22.799  0.00  0.00    -0.043 C 
ATOM      3  C   UNL     1      34.099 -14.363 -22.040  0.00  0.00    -0.000 C 
ATOM      4  C   UNL     1      34.060 -14.846 -23.370  0.00  0.00    -0.000 C 
ATOM      5  C   UNL     1      33.666 -13.055 -21.771  0.00  0.00    -0.006 C 
ATOM      6  C   UNL     1      33.162 -12.709 -24.106  0.00  0.00    -0.006 C 
ATOM      7  C   UNL     1      33.588 -14.006 -24.392  0.00  0.00    -0.000 C 
ATOM      8  C   UNL     1      34.494 -16.154 -23.638  0.00  0.00    -0.001 C 
ATOM      9  C   UNL     1      34.959 -16.976 -22.610  0.00  0.00    +0.021 C 
ATOM     10  C   UNL     1      34.571 -15.203 -21.018  0.00  0.00    -0.000 C 
ATOM     11  C   UNL     1      34.998 -16.501 -21.303  0.00  0.00    -0.001 C 
BRANCH   2  12
ATOM     12  C   UNL     1      32.743 -10.847 -22.495  0.00  0.00    -0.050 C 
BRANCH  12  13
ATOM     13  N   UNL     1      31.285 -10.744 -22.422  0.00  0.00    +0.390 N 
ATOM     14  H   UNL     1      30.879 -11.385 -23.103  0.00  0.00    -0.079 HD
BRANCH  13  15
ATOM     15  C   UNL     1      30.814 -11.127 -21.091  0.00  0.00    -0.077 C 
ATOM     16  C   UNL     1      31.607 -10.423 -20.004  0.00  0.00    -0.025 C 
ENDBRANCH  13  15
BRANCH  13  17
ATOM     17  C   UNL     1      30.852  -9.387 -22.747  0.00  0.00    -0.077 C 
ATOM     18  C   UNL     1      32.017  -8.541 -23.236  0.00  0.00    -0.025 C 
ENDBRANCH  13  17
ENDBRANCH  12  13
ENDBRANCH   2  12
ENDBRANCH   1   9
BRANCH   1  19
ATOM     19  O   UNL     1      36.631 -18.622 -22.225  0.00  0.00    -0.429 OA
BRANCH  19  22
ATOM     20  O   UNL     1      37.304 -19.073 -20.087  0.00  0.00    -0.226 OA
ATOM     21  N   UNL     1      35.428 -20.099 -21.039  0.00  0.00    -0.250 N 
ATOM     22  C   UNL     1      36.524 -19.259 -21.013  0.00  0.00    +0.406 C 
ATOM     23  H   UNL     1      34.915 -20.114 -21.880  0.00  0.00    +0.158 HD
BRANCH  21  24
ATOM     24  C   UNL     1      34.950 -20.940 -20.008  0.00  0.00    +0.053 C 
ATOM     25  C   UNL     1      35.853 -21.621 -19.190  0.00  0.00    +0.015 C 
ATOM     26  C   UNL     1      33.578 -21.090 -19.810  0.00  0.00    +0.015 C 
ATOM     27  C   UNL     1      34.008 -22.602 -17.975  0.00  0.00    +0.055 C 
ATOM     28  C   UNL     1      35.382 -22.452 -18.174  0.00  0.00    +0.006 C 
ATOM     29  C   UNL     1      33.107 -21.921 -18.793  0.00  0.00    +0.006 C 
BRANCH  27  32
ATOM     30  O   UNL     1      34.262 -24.319 -16.393  0.00  0.00    -0.268 OA
ATOM     31  N   UNL     1      32.195 -23.311 -16.530  0.00  0.00    -0.193 N 
ATOM     32  C   UNL     1      33.518 -23.469 -16.916  0.00  0.00    +0.268 C 
ATOM     33  H   UNL     1      31.613 -22.635 -16.949  0.00  0.00    +0.183 HD
BRANCH  31  34
ATOM     34  O   UNL     1      31.725 -24.158 -15.517  0.00  0.00    -0.295 OA
ATOM     35  H   UNL     1      31.495 -25.021 -15.896  0.00  0.00    +0.241 HD
ENDBRANCH  31  34
ENDBRANCH  27  32
ENDBRANCH  21  24
ENDBRANCH  19  22
ENDBRANCH   1  19
TORSDOF 10
ENDMDL
MODEL 7
REMARK VINA RESULT:     -10.6      1.655      2.684
REMARK  Name = 9804992
REMARK  10 active torsions:
REMARK  status: ('A' for Active; 'I' for Inactive)
REMARK    1  A    between atoms: C_1  and  C_9
REMARK    2  A    between atoms: C_1  and  O_19
REMARK    3  A    between atoms: C_2  and  C_12
REMARK    4  A    between atoms: C_12  and  N_13
REMARK    5  A    between atoms: N_13  and  C_15
REMARK    6  A    between atoms: N_13  and  C_17
REMARK    7  A    between atoms: O_19  and  C_22
REMARK    8  A    between atoms: N_21  and  C_24
REMARK    9  A    between atoms: C_27  and  C_32
REMARK   10  A    between atoms: N_31  and  O_34
REMARK                            x       y       z     vdW  Elec       q    Type
REMARK                         _______ _______ _______ _____ _____    ______ ____
ROOT
ATOM      1  C   UNL     1      34.215 -15.357 -23.730  0.00  0.00    +0.237 C 
ENDROOT
BRANCH   1   9
ATOM      2  C   UNL     1      32.498  -9.208 -22.416  0.00  0.00    -0.043 C 
ATOM      3  C   UNL     1      32.486 -11.640 -22.427  0.00  0.00    -0.000 C 
ATOM      4  C   UNL     1      33.627 -11.635 -23.266  0.00  0.00    -0.000 C 
ATOM      5  C   UNL     1      31.934 -10.418 -22.011  0.00  0.00    -0.006 C 
ATOM      6  C   UNL     1      33.619  -9.203 -23.240  0.00  0.00    -0.006 C 
ATOM      7  C   UNL     1      34.181 -10.407 -23.663  0.00  0.00    -0.000 C 
ATOM      8  C   UNL     1      34.179 -12.857 -23.682  0.00  0.00    -0.001 C 
ATOM      9  C   UNL     1      33.615 -14.068 -23.278  0.00  0.00    +0.021 C 
ATOM     10  C   UNL     1      31.932 -12.868 -22.030  0.00  0.00    -0.000 C 
ATOM     11  C   UNL     1      32.494 -14.073 -22.453  0.00  0.00    -0.001 C 
BRANCH   2  12
ATOM     12  C   UNL     1      31.898  -7.919 -21.965  0.00  0.00    -0.050 C 
BRANCH  12  13
ATOM     13  N   UNL     1      32.885  -7.029 -21.353  0.00  0.00    +0.390 N 
ATOM     14  H   UNL     1      33.759  -7.107 -21.872  0.00  0.00    -0.079 HD
BRANCH  13  15
ATOM     15  C   UNL     1      32.431  -5.640 -21.421  0.00  0.00    -0.077 C 
ATOM     16  C   UNL     1      30.976  -5.559 -21.850  0.00  0.00    -0.025 C 
ENDBRANCH  13  15
BRANCH  13  17
ATOM     17  C   UNL     1      33.133  -7.419 -19.966  0.00  0.00    -0.077 C 
ATOM     18  C   UNL     1      31.907  -8.073 -19.352  0.00  0.00    -0.025 C 
ENDBRANCH  13  17
ENDBRANCH  12  13
ENDBRANCH   2  12
ENDBRANCH   1   9
BRANCH   1  19
ATOM     19  O   UNL     1      35.353 -15.654 -22.931  0.00  0.00    -0.429 OA
BRANCH  19  22
ATOM     20  O   UNL     1      34.826 -15.988 -20.731  0.00  0.00    -0.226 OA
ATOM     21  N   UNL     1      35.322 -17.766 -22.171  0.00  0.00    -0.250 N 
ATOM     22  C   UNL     1      35.136 -16.441 -21.826  0.00  0.00    +0.406 C 
ATOM     23  H   UNL     1      35.570 -17.936 -23.110  0.00  0.00    +0.158 HD
BRANCH  21  24
ATOM     24  C   UNL     1      35.201 -18.906 -21.345  0.00  0.00    +0.053 C 
ATOM     25  C   UNL     1      36.334 -19.456 -20.746  0.00  0.00    +0.015 C 
ATOM     26  C   UNL     1      33.949 -19.482 -21.131  0.00  0.00    +0.015 C 
ATOM     27  C   UNL     1      34.962 -21.158 -19.717  0.00  0.00    +0.055 C 
ATOM     28  C   UNL     1      36.215 -20.582 -19.932  0.00  0.00    +0.006 C 
ATOM     29  C   UNL     1      33.829 -20.608 -20.316  0.00  0.00    +0.006 C 
BRANCH  27  32
ATOM     30  O   UNL     1      35.666 -22.556 -17.965  0.00  0.00    -0.268 OA
ATOM     31  N   UNL     1      33.774 -23.186 -19.119  0.00  0.00    -0.193 N 
ATOM     32  C   UNL     1      34.839 -22.332 -18.868  0.00  0.00    +0.268 C 
ATOM     33  H   UNL     1      33.123 -23.001 -19.835  0.00  0.00    +0.183 HD
BRANCH  31  34
ATOM     34  O   UNL     1      33.667 -24.323 -18.305  0.00  0.00    -0.295 OA
ATOM     35  H   UNL     1      34.441 -24.892 -18.440  0.00  0.00    +0.241 HD
ENDBRANCH  31  34
ENDBRANCH  27  32
ENDBRANCH  21  24
ENDBRANCH  19  22
ENDBRANCH   1  19
TORSDOF 10
ENDMDL
MODEL 8
REMARK VINA RESULT:     -10.5      1.595      2.268
REMARK  Name = 9804992
REMARK  10 active torsions:
REMARK  status: ('A' for Active; 'I' for Inactive)
REMARK    1  A    between atoms: C_1  and  C_9
REMARK    2  A    between atoms: C_1  and  O_19
REMARK    3  A    between atoms: C_2  and  C_12
REMARK    4  A    between atoms: C_12  and  N_13
REMARK    5  A    between atoms: N_13  and  C_15
REMARK    6  A    between atoms: N_13  and  C_17
REMARK    7  A    between atoms: O_19  and  C_22
REMARK    8  A    between atoms: N_21  and  C_24
REMARK    9  A    between atoms: C_27  and  C_32
REMARK   10  A    between atoms: N_31  and  O_34
REMARK                            x       y       z     vdW  Elec       q    Type
REMARK                         _______ _______ _______ _____ _____    ______ ____
ROOT
ATOM      1  C   UNL     1      36.060 -18.527 -22.584  0.00  0.00    +0.237 C 
ENDROOT
BRANCH   1   9
ATOM      2  C   UNL     1      32.715 -12.951 -22.142  0.00  0.00    -0.043 C 
ATOM      3  C   UNL     1      33.769 -14.924 -23.097  0.00  0.00    -0.000 C 
ATOM      4  C   UNL     1      34.210 -15.304 -21.807  0.00  0.00    -0.000 C 
ATOM      5  C   UNL     1      33.023 -13.744 -23.247  0.00  0.00    -0.006 C 
ATOM      6  C   UNL     1      33.147 -13.326 -20.873  0.00  0.00    -0.006 C 
ATOM      7  C   UNL     1      33.890 -14.494 -20.705  0.00  0.00    -0.000 C 
ATOM      8  C   UNL     1      34.956 -16.484 -21.657  0.00  0.00    -0.001 C 
ATOM      9  C   UNL     1      35.265 -17.277 -22.763  0.00  0.00    +0.021 C 
ATOM     10  C   UNL     1      34.089 -15.734 -24.199  0.00  0.00    -0.000 C 
ATOM     11  C   UNL     1      34.832 -16.904 -24.031  0.00  0.00    -0.001 C 
BRANCH   2  12
ATOM     12  C   UNL     1      31.921 -11.700 -22.320  0.00  0.00    -0.050 C 
BRANCH  12  13
ATOM     13  N   UNL     1      32.122 -10.752 -21.224  0.00  0.00    +0.390 N 
ATOM     14  H   UNL     1      32.952 -11.031 -20.701  0.00  0.00    -0.079 HD
BRANCH  13  15
ATOM     15  C   UNL     1      32.341  -9.405 -21.751  0.00  0.00    -0.077 C 
ATOM     16  C   UNL     1      31.314  -9.059 -22.816  0.00  0.00    -0.025 C 
ENDBRANCH  13  15
BRANCH  13  17
ATOM     17  C   UNL     1      30.976 -10.768 -20.318  0.00  0.00    -0.077 C 
ATOM     18  C   UNL     1      31.370 -10.302 -18.926  0.00  0.00    -0.025 C 
ENDBRANCH  13  17
ENDBRANCH  12  13
ENDBRANCH   2  12
ENDBRANCH   1   9
BRANCH   1  19
ATOM     19  O   UNL     1      35.247 -19.521 -21.974  0.00  0.00    -0.429 OA
BRANCH  19  22
ATOM     20  O   UNL     1      36.573 -19.453 -20.112  0.00  0.00    -0.226 OA
ATOM     21  N   UNL     1      34.787 -20.954 -20.309  0.00  0.00    -0.250 N 
ATOM     22  C   UNL     1      35.628 -19.940 -20.722  0.00  0.00    +0.406 C 
ATOM     23  H   UNL     1      34.078 -21.211 -20.942  0.00  0.00    +0.158 HD
BRANCH  21  24
ATOM     24  C   UNL     1      34.819 -21.669 -19.090  0.00  0.00    +0.053 C 
ATOM     25  C   UNL     1      36.000 -21.734 -18.350  0.00  0.00    +0.015 C 
ATOM     26  C   UNL     1      33.670 -22.310 -18.627  0.00  0.00    +0.015 C 
ATOM     27  C   UNL     1      34.882 -23.082 -16.685  0.00  0.00    +0.055 C 
ATOM     28  C   UNL     1      36.032 -22.440 -17.148  0.00  0.00    +0.006 C 
ATOM     29  C   UNL     1      33.701 -23.017 -17.425  0.00  0.00    +0.006 C 
BRANCH  27  32
ATOM     30  O   UNL     1      35.195 -25.031 -15.413  0.00  0.00    -0.268 OA
ATOM     31  N   UNL     1      34.613 -23.114 -14.276  0.00  0.00    -0.193 N 
ATOM     32  C   UNL     1      34.916 -23.818 -15.432  0.00  0.00    +0.268 C 
ATOM     33  H   UNL     1      34.393 -22.154 -14.299  0.00  0.00    +0.183 HD
BRANCH  31  34
ATOM     34  O   UNL     1      34.635 -23.833 -13.072  0.00  0.00    -0.295 OA
ATOM     35  H   UNL     1      35.013 -24.713 -13.226  0.00  0.00    +0.241 HD
ENDBRANCH  31  34
ENDBRANCH  27  32
ENDBRANCH  21  24
ENDBRANCH  19  22
ENDBRANCH   1  19
TORSDOF 10
ENDMDL
MODEL 9
REMARK VINA RESULT:     -10.4      4.659     12.275
REMARK  Name = 9804992
REMARK  10 active torsions:
REMARK  status: ('A' for Active; 'I' for Inactive)
REMARK    1  A    between atoms: C_1  and  C_9
REMARK    2  A    between atoms: C_1  and  O_19
REMARK    3  A    between atoms: C_2  and  C_12
REMARK    4  A    between atoms: C_12  and  N_13
REMARK    5  A    between atoms: N_13  and  C_15
REMARK    6  A    between atoms: N_13  and  C_17
REMARK    7  A    between atoms: O_19  and  C_22
REMARK    8  A    between atoms: N_21  and  C_24
REMARK    9  A    between atoms: C_27  and  C_32
REMARK   10  A    between atoms: N_31  and  O_34
REMARK                            x       y       z     vdW  Elec       q    Type
REMARK                         _______ _______ _______ _____ _____    ______ ____
ROOT
ATOM      1  C   UNL     1      33.428 -12.811 -23.630  0.00  0.00    +0.237 C 
ENDROOT
BRANCH   1   9
ATOM      2  C   UNL     1      35.632 -18.591 -21.575  0.00  0.00    -0.043 C 
ATOM      3  C   UNL     1      34.854 -16.287 -21.536  0.00  0.00    -0.000 C 
ATOM      4  C   UNL     1      34.701 -16.321 -22.942  0.00  0.00    -0.000 C 
ATOM      5  C   UNL     1      35.321 -17.430 -20.867  0.00  0.00    -0.006 C 
ATOM      6  C   UNL     1      35.481 -18.625 -22.958  0.00  0.00    -0.006 C 
ATOM      7  C   UNL     1      35.019 -17.499 -23.639  0.00  0.00    -0.000 C 
ATOM      8  C   UNL     1      34.234 -15.179 -23.611  0.00  0.00    -0.001 C 
ATOM      9  C   UNL     1      33.923 -14.016 -22.903  0.00  0.00    +0.021 C 
ATOM     10  C   UNL     1      34.535 -15.109 -20.840  0.00  0.00    -0.000 C 
ATOM     11  C   UNL     1      34.072 -13.982 -21.520  0.00  0.00    -0.001 C 
BRANCH   2  12
ATOM     12  C   UNL     1      36.127 -19.796 -20.848  0.00  0.00    -0.050 C 
BRANCH  12  13
ATOM     13  N   UNL     1      35.108 -20.376 -19.973  0.00  0.00    +0.390 N 
ATOM     14  H   UNL     1      35.021 -19.791 -19.143  0.00  0.00    -0.079 HD
BRANCH  13  15
ATOM     15  C   UNL     1      33.814 -20.412 -20.652  0.00  0.00    -0.077 C 
ATOM     16  C   UNL     1      32.709 -20.845 -19.705  0.00  0.00    -0.025 C 
ENDBRANCH  13  15
BRANCH  13  17
ATOM     17  C   UNL     1      35.503 -21.719 -19.552  0.00  0.00    -0.077 C 
ATOM     18  C   UNL     1      36.514 -21.665 -18.420  0.00  0.00    -0.025 C 
ENDBRANCH  13  17
ENDBRANCH  12  13
ENDBRANCH   2  12
ENDBRANCH   1   9
BRANCH   1  19
ATOM     19  O   UNL     1      32.842 -11.907 -22.703  0.00  0.00    -0.429 OA
BRANCH  19  22
ATOM     20  O   UNL     1      34.131 -10.153 -23.404  0.00  0.00    -0.226 OA
ATOM     21  N   UNL     1      32.004  -9.837 -22.479  0.00  0.00    -0.250 N 
ATOM     22  C   UNL     1      33.091 -10.572 -22.909  0.00  0.00    +0.406 C 
ATOM     23  H   UNL     1      31.253 -10.355 -22.108  0.00  0.00    +0.158 HD
BRANCH  21  24
ATOM     24  C   UNL     1      31.835  -8.434 -22.506  0.00  0.00    +0.053 C 
ATOM     25  C   UNL     1      32.053  -7.684 -21.350  0.00  0.00    +0.015 C 
ATOM     26  C   UNL     1      31.450  -7.800 -23.687  0.00  0.00    +0.015 C 
ATOM     27  C   UNL     1      31.501  -5.665 -22.558  0.00  0.00    +0.055 C 
ATOM     28  C   UNL     1      31.886  -6.299 -21.376  0.00  0.00    +0.006 C 
ATOM     29  C   UNL     1      31.283  -6.416 -23.713  0.00  0.00    +0.006 C 
BRANCH  27  32
ATOM     30  O   UNL     1      30.860  -3.655 -23.589  0.00  0.00    -0.268 OA
ATOM     31  N   UNL     1      31.710  -3.517 -21.452  0.00  0.00    -0.193 N 
ATOM     32  C   UNL     1      31.326  -4.222 -22.584  0.00  0.00    +0.268 C 
ATOM     33  H   UNL     1      32.078  -3.974 -20.660  0.00  0.00    +0.183 HD
BRANCH  31  34
ATOM     34  O   UNL     1      31.551  -2.124 -21.488  0.00  0.00    -0.295 OA
ATOM     35  H   UNL     1      31.077  -1.873 -22.296  0.00  0.00    +0.241 HD
ENDBRANCH  31  34
ENDBRANCH  27  32
ENDBRANCH  21  24
ENDBRANCH  19  22
ENDBRANCH   1  19
TORSDOF 10
ENDMDL
