MODEL 1
REMARK VINA RESULT:     -11.8      0.000      0.000
REMARK  Name = 71616860
REMARK  5 active torsions:
REMARK  status: ('A' for Active; 'I' for Inactive)
REMARK    1  A    between atoms: C_10  and  C_17
REMARK    2  A    between atoms: C_15  and  O_21
REMARK    3  A    between atoms: C_16  and  C_18
REMARK    4  A    between atoms: O_21  and  C_22
REMARK    5  A    between atoms: C_22  and  C_25
REMARK                            x       y       z     vdW  Elec       q    Type
REMARK                         _______ _______ _______ _____ _____    ______ ____
ROOT
ATOM      1  O   UNL     1      37.266 -24.707 -13.231  0.00  0.00    -0.193 OA
ATOM      2  N   UNL     1      36.182 -23.742 -15.034  0.00  0.00    -0.205 N 
ATOM      3  N   UNL     1      35.000 -24.797 -13.230  0.00  0.00    -0.284 NA
ATOM      4  C   UNL     1      37.358 -22.010 -16.365  0.00  0.00    +0.049 C 
ATOM      5  C   UNL     1      36.210 -22.032 -17.335  0.00  0.00    -0.019 C 
ATOM      6  C   UNL     1      37.451 -23.357 -15.662  0.00  0.00    +0.114 C 
ATOM      7  C   UNL     1      35.045 -22.757 -17.012  0.00  0.00    +0.011 C 
ATOM      8  C   UNL     1      34.985 -23.477 -15.708  0.00  0.00    +0.068 C 
ATOM      9  C   UNL     1      36.290 -21.310 -18.535  0.00  0.00    +0.004 C 
ATOM     10  C   UNL     1      35.234 -21.333 -19.441  0.00  0.00    +0.041 C 
ATOM     11  C   UNL     1      33.998 -22.781 -17.948  0.00  0.00    +0.002 C 
ATOM     12  C   UNL     1      33.815 -23.832 -15.157  0.00  0.00    +0.088 C 
ATOM     13  C   UNL     1      34.092 -22.073 -19.150  0.00  0.00    +0.008 C 
ATOM     14  C   UNL     1      36.206 -24.431 -13.798  0.00  0.00    +0.275 C 
ATOM     15  C   UNL     1      33.918 -24.514 -13.867  0.00  0.00    +0.291 C 
ENDROOT
BRANCH  10  17
ATOM     16  C   UNL     1      35.399 -19.991 -21.695  0.00  0.00    -0.087 C 
ATOM     17  C   UNL     1      35.323 -20.603 -20.665  0.00  0.00    -0.064 C 
BRANCH  16  18
ATOM     18  C   UNL     1      35.489 -19.258 -22.932  0.00  0.00    +0.065 C 
ATOM     19  C   UNL     1      34.896 -17.880 -22.995  0.00  0.00    +0.014 C 
ATOM     20  C   UNL     1      34.231 -19.015 -23.716  0.00  0.00    +0.014 C 
ENDBRANCH  16  18
ENDBRANCH  10  17
BRANCH  15  21
ATOM     21  O   UNL     1      32.716 -24.853 -13.348  0.00  0.00    -0.448 OA
BRANCH  21  22
ATOM     22  C   UNL     1      31.912 -23.738 -12.990  0.00  0.00    +0.240 C 
BRANCH  22  25
ATOM     23  O   UNL     1      30.353 -23.087 -14.685  0.00  0.00    -0.347 OA
ATOM     24  O   UNL     1      28.971 -25.525 -14.527  0.00  0.00    -0.348 OA
ATOM     25  C   UNL     1      30.511 -23.941 -13.546  0.00  0.00    +0.188 C 
ATOM     26  C   UNL     1      30.280 -25.390 -13.967  0.00  0.00    +0.175 C 
ATOM     27  C   UNL     1      29.047 -23.226 -15.249  0.00  0.00    +0.174 C 
ATOM     28  C   UNL     1      28.818 -24.670 -15.662  0.00  0.00    +0.174 C 
ENDBRANCH  22  25
ENDBRANCH  21  22
ENDBRANCH  15  21
TORSDOF 5
ENDMDL
MODEL 2
REMARK VINA RESULT:     -11.3      5.276      9.748
REMARK  Name = 71616860
REMARK  5 active torsions:
REMARK  status: ('A' for Active; 'I' for Inactive)
REMARK    1  A    between atoms: C_10  and  C_17
REMARK    2  A    between atoms: C_15  and  O_21
REMARK    3  A    between atoms: C_16  and  C_18
REMARK    4  A    between atoms: O_21  and  C_22
REMARK    5  A    between atoms: C_22  and  C_25
REMARK                            x       y       z     vdW  Elec       q    Type
REMARK                         _______ _______ _______ _____ _____    ______ ____
ROOT
ATOM      1  O   UNL     1      38.209 -18.772 -21.470  0.00  0.00    -0.193 OA
ATOM      2  N   UNL     1      36.285 -19.806 -20.705  0.00  0.00    -0.205 N 
ATOM      3  N   UNL     1      36.348 -18.545 -22.747  0.00  0.00    -0.284 NA
ATOM      4  C   UNL     1      36.483 -21.704 -19.119  0.00  0.00    +0.049 C 
ATOM      5  C   UNL     1      34.986 -21.688 -18.974  0.00  0.00    -0.019 C 
ATOM      6  C   UNL     1      36.968 -20.314 -19.510  0.00  0.00    +0.114 C 
ATOM      7  C   UNL     1      34.217 -20.870 -19.828  0.00  0.00    +0.011 C 
ATOM      8  C   UNL     1      34.916 -20.049 -20.858  0.00  0.00    +0.068 C 
ATOM      9  C   UNL     1      34.364 -22.504 -18.018  0.00  0.00    +0.004 C 
ATOM     10  C   UNL     1      32.980 -22.487 -17.874  0.00  0.00    +0.041 C 
ATOM     11  C   UNL     1      32.824 -20.856 -19.653  0.00  0.00    +0.002 C 
ATOM     12  C   UNL     1      34.271 -19.582 -21.937  0.00  0.00    +0.088 C 
ATOM     13  C   UNL     1      32.212 -21.659 -18.686  0.00  0.00    +0.008 C 
ATOM     14  C   UNL     1      37.013 -19.026 -21.634  0.00  0.00    +0.275 C 
ATOM     15  C   UNL     1      35.095 -18.810 -22.867  0.00  0.00    +0.291 C 
ENDROOT
BRANCH  10  17
ATOM     16  C   UNL     1      31.821 -24.008 -16.070  0.00  0.00    -0.087 C 
ATOM     17  C   UNL     1      32.351 -23.314 -16.893  0.00  0.00    -0.064 C 
BRANCH  16  18
ATOM     18  C   UNL     1      31.184 -24.841 -15.083  0.00  0.00    +0.065 C 
ATOM     19  C   UNL     1      29.686 -24.948 -15.092  0.00  0.00    +0.014 C 
ATOM     20  C   UNL     1      30.374 -24.182 -14.002  0.00  0.00    +0.014 C 
ENDBRANCH  16  18
ENDBRANCH  10  17
BRANCH  15  21
ATOM     21  O   UNL     1      34.405 -18.360 -23.940  0.00  0.00    -0.448 OA
BRANCH  21  22
ATOM     22  C   UNL     1      34.872 -17.117 -24.442  0.00  0.00    +0.240 C 
BRANCH  22  25
ATOM     23  O   UNL     1      35.129 -15.271 -22.942  0.00  0.00    -0.347 OA
ATOM     24  O   UNL     1      32.866 -13.963 -23.965  0.00  0.00    -0.348 OA
ATOM     25  C   UNL     1      34.158 -15.990 -23.712  0.00  0.00    +0.188 C 
ATOM     26  C   UNL     1      33.481 -15.032 -24.689  0.00  0.00    +0.175 C 
ATOM     27  C   UNL     1      34.516 -14.198 -22.222  0.00  0.00    +0.174 C 
ATOM     28  C   UNL     1      33.838 -13.250 -23.196  0.00  0.00    +0.174 C 
ENDBRANCH  22  25
ENDBRANCH  21  22
ENDBRANCH  15  21
TORSDOF 5
ENDMDL
MODEL 3
REMARK VINA RESULT:     -10.6      7.378     11.199
REMARK  Name = 71616860
REMARK  5 active torsions:
REMARK  status: ('A' for Active; 'I' for Inactive)
REMARK    1  A    between atoms: C_10  and  C_17
REMARK    2  A    between atoms: C_15  and  O_21
REMARK    3  A    between atoms: C_16  and  C_18
REMARK    4  A    between atoms: O_21  and  C_22
REMARK    5  A    between atoms: C_22  and  C_25
REMARK                            x       y       z     vdW  Elec       q    Type
REMARK                         _______ _______ _______ _____ _____    ______ ____
ROOT
ATOM      1  O   UNL     1      34.562 -17.222 -25.209  0.00  0.00    -0.193 OA
ATOM      2  N   UNL     1      34.040 -15.458 -23.805  0.00  0.00    -0.205 N 
ATOM      3  N   UNL     1      35.015 -17.501 -23.004  0.00  0.00    -0.284 NA
ATOM      4  C   UNL     1      33.840 -13.175 -24.756  0.00  0.00    +0.049 C 
ATOM      5  C   UNL     1      33.351 -12.702 -23.415  0.00  0.00    -0.019 C 
ATOM      6  C   UNL     1      33.519 -14.655 -24.917  0.00  0.00    +0.114 C 
ATOM      7  C   UNL     1      33.408 -13.576 -22.309  0.00  0.00    +0.011 C 
ATOM      8  C   UNL     1      33.962 -14.946 -22.505  0.00  0.00    +0.068 C 
ATOM      9  C   UNL     1      32.873 -11.393 -23.263  0.00  0.00    +0.004 C 
ATOM     10  C   UNL     1      32.412 -10.952 -22.027  0.00  0.00    +0.041 C 
ATOM     11  C   UNL     1      32.922 -13.116 -21.075  0.00  0.00    +0.002 C 
ATOM     12  C   UNL     1      34.421 -15.670 -21.473  0.00  0.00    +0.088 C 
ATOM     13  C   UNL     1      32.430 -11.814 -20.936  0.00  0.00    +0.008 C 
ATOM     14  C   UNL     1      34.542 -16.755 -24.068  0.00  0.00    +0.275 C 
ATOM     15  C   UNL     1      34.951 -16.988 -21.826  0.00  0.00    +0.291 C 
ENDROOT
BRANCH  10  17
ATOM     16  C   UNL     1      31.504  -8.499 -21.756  0.00  0.00    -0.087 C 
ATOM     17  C   UNL     1      31.917  -9.619 -21.879  0.00  0.00    -0.064 C 
BRANCH  16  18
ATOM     18  C   UNL     1      31.009  -7.154 -21.608  0.00  0.00    +0.065 C 
ATOM     19  C   UNL     1      31.328  -6.150 -22.678  0.00  0.00    +0.014 C 
ATOM     20  C   UNL     1      31.994  -6.053 -21.337  0.00  0.00    +0.014 C 
ENDBRANCH  16  18
ENDBRANCH  10  17
BRANCH  15  21
ATOM     21  O   UNL     1      35.403 -17.681 -20.757  0.00  0.00    -0.448 OA
BRANCH  21  22
ATOM     22  C   UNL     1      36.325 -18.709 -21.088  0.00  0.00    +0.240 C 
BRANCH  22  25
ATOM     23  O   UNL     1      36.299 -20.554 -19.565  0.00  0.00    -0.347 OA
ATOM     24  O   UNL     1      33.652 -21.219 -20.222  0.00  0.00    -0.348 OA
ATOM     25  C   UNL     1      35.700 -20.057 -20.769  0.00  0.00    +0.188 C 
ATOM     26  C   UNL     1      34.190 -19.940 -20.569  0.00  0.00    +0.175 C 
ATOM     27  C   UNL     1      35.755 -21.830 -19.216  0.00  0.00    +0.174 C 
ATOM     28  C   UNL     1      34.253 -21.712 -19.023  0.00  0.00    +0.174 C 
ENDBRANCH  22  25
ENDBRANCH  21  22
ENDBRANCH  15  21
TORSDOF 5
ENDMDL
MODEL 4
REMARK VINA RESULT:     -10.6      1.908      5.314
REMARK  Name = 71616860
REMARK  5 active torsions:
REMARK  status: ('A' for Active; 'I' for Inactive)
REMARK    1  A    between atoms: C_10  and  C_17
REMARK    2  A    between atoms: C_15  and  O_21
REMARK    3  A    between atoms: C_16  and  C_18
REMARK    4  A    between atoms: O_21  and  C_22
REMARK    5  A    between atoms: C_22  and  C_25
REMARK                            x       y       z     vdW  Elec       q    Type
REMARK                         _______ _______ _______ _____ _____    ______ ____
ROOT
ATOM      1  O   UNL     1      31.576 -24.483 -13.061  0.00  0.00    -0.193 OA
ATOM      2  N   UNL     1      33.007 -23.780 -14.739  0.00  0.00    -0.205 N 
ATOM      3  N   UNL     1      33.773 -24.986 -12.809  0.00  0.00    -0.284 NA
ATOM      4  C   UNL     1      32.087 -23.316 -16.995  0.00  0.00    +0.049 C 
ATOM      5  C   UNL     1      33.438 -22.791 -17.395  0.00  0.00    -0.019 C 
ATOM      6  C   UNL     1      31.910 -23.161 -15.491  0.00  0.00    +0.114 C 
ATOM      7  C   UNL     1      34.531 -22.957 -16.521  0.00  0.00    +0.011 C 
ATOM      8  C   UNL     1      34.313 -23.659 -15.223  0.00  0.00    +0.068 C 
ATOM      9  C   UNL     1      33.610 -22.170 -18.641  0.00  0.00    +0.004 C 
ATOM     10  C   UNL     1      34.856 -21.675 -19.013  0.00  0.00    +0.041 C 
ATOM     11  C   UNL     1      35.776 -22.434 -16.909  0.00  0.00    +0.002 C 
ATOM     12  C   UNL     1      35.332 -24.206 -14.544  0.00  0.00    +0.088 C 
ATOM     13  C   UNL     1      35.935 -21.801 -18.146  0.00  0.00    +0.008 C 
ATOM     14  C   UNL     1      32.723 -24.421 -13.509  0.00  0.00    +0.275 C 
ATOM     15  C   UNL     1      34.958 -24.877 -13.298  0.00  0.00    +0.291 C 
ENDROOT
BRANCH  10  17
ATOM     16  C   UNL     1      35.168 -20.499 -21.344  0.00  0.00    -0.087 C 
ATOM     17  C   UNL     1      35.024 -21.036 -20.280  0.00  0.00    -0.064 C 
BRANCH  16  18
ATOM     18  C   UNL     1      35.341 -19.854 -22.620  0.00  0.00    +0.065 C 
ATOM     19  C   UNL     1      35.235 -18.358 -22.688  0.00  0.00    +0.014 C 
ATOM     20  C   UNL     1      34.147 -19.212 -23.268  0.00  0.00    +0.014 C 
ENDBRANCH  16  18
ENDBRANCH  10  17
BRANCH  15  21
ATOM     21  O   UNL     1      36.015 -25.415 -12.648  0.00  0.00    -0.448 OA
BRANCH  21  22
ATOM     22  C   UNL     1      37.154 -24.569 -12.607  0.00  0.00    +0.240 C 
BRANCH  22  25
ATOM     23  O   UNL     1      39.494 -24.696 -13.091  0.00  0.00    -0.347 OA
ATOM     24  O   UNL     1      39.199 -27.103 -14.504  0.00  0.00    -0.348 OA
ATOM     25  C   UNL     1      38.206 -25.111 -13.562  0.00  0.00    +0.188 C 
ATOM     26  C   UNL     1      38.164 -26.635 -13.635  0.00  0.00    +0.175 C 
ATOM     27  C   UNL     1      40.530 -25.169 -13.956  0.00  0.00    +0.174 C 
ATOM     28  C   UNL     1      40.481 -26.685 -14.032  0.00  0.00    +0.174 C 
ENDBRANCH  22  25
ENDBRANCH  21  22
ENDBRANCH  15  21
TORSDOF 5
ENDMDL
MODEL 5
REMARK VINA RESULT:     -10.2      2.529      4.907
REMARK  Name = 71616860
REMARK  5 active torsions:
REMARK  status: ('A' for Active; 'I' for Inactive)
REMARK    1  A    between atoms: C_10  and  C_17
REMARK    2  A    between atoms: C_15  and  O_21
REMARK    3  A    between atoms: C_16  and  C_18
REMARK    4  A    between atoms: O_21  and  C_22
REMARK    5  A    between atoms: C_22  and  C_25
REMARK                            x       y       z     vdW  Elec       q    Type
REMARK                         _______ _______ _______ _____ _____    ______ ____
ROOT
ATOM      1  O   UNL     1      33.654 -24.295 -15.225  0.00  0.00    -0.193 OA
ATOM      2  N   UNL     1      34.637 -22.990 -16.865  0.00  0.00    -0.205 N 
ATOM      3  N   UNL     1      35.901 -24.016 -15.101  0.00  0.00    -0.284 NA
ATOM      4  C   UNL     1      33.462 -22.681 -19.028  0.00  0.00    +0.049 C 
ATOM      5  C   UNL     1      34.518 -21.683 -19.414  0.00  0.00    -0.019 C 
ATOM      6  C   UNL     1      33.345 -22.732 -17.511  0.00  0.00    +0.114 C 
ATOM      7  C   UNL     1      35.658 -21.531 -18.599  0.00  0.00    +0.011 C 
ATOM      8  C   UNL     1      35.785 -22.376 -17.377  0.00  0.00    +0.068 C 
ATOM      9  C   UNL     1      34.379 -20.934 -20.592  0.00  0.00    +0.004 C 
ATOM     10  C   UNL     1      35.349 -20.002 -20.950  0.00  0.00    +0.041 C 
ATOM     11  C   UNL     1      36.615 -20.573 -18.970  0.00  0.00    +0.002 C 
ATOM     12  C   UNL     1      36.974 -22.589 -16.793  0.00  0.00    +0.088 C 
ATOM     13  C   UNL     1      36.462 -19.818 -20.137  0.00  0.00    +0.008 C 
ATOM     14  C   UNL     1      34.676 -23.796 -15.702  0.00  0.00    +0.275 C 
ATOM     15  C   UNL     1      36.940 -23.456 -15.615  0.00  0.00    +0.291 C 
ENDROOT
BRANCH  10  17
ATOM     16  C   UNL     1      35.073 -18.591 -23.151  0.00  0.00    -0.087 C 
ATOM     17  C   UNL     1      35.200 -19.236 -22.147  0.00  0.00    -0.064 C 
BRANCH  16  18
ATOM     18  C   UNL     1      34.920 -17.817 -24.356  0.00  0.00    +0.065 C 
ATOM     19  C   UNL     1      34.670 -16.341 -24.234  0.00  0.00    +0.014 C 
ATOM     20  C   UNL     1      33.565 -17.253 -24.679  0.00  0.00    +0.014 C 
ENDBRANCH  16  18
ENDBRANCH  10  17
BRANCH  15  21
ATOM     21  O   UNL     1      38.159 -23.644 -15.060  0.00  0.00    -0.448 OA
BRANCH  21  22
ATOM     22  C   UNL     1      38.386 -24.973 -14.614  0.00  0.00    +0.240 C 
BRANCH  22  25
ATOM     23  O   UNL     1      37.839 -23.717 -12.652  0.00  0.00    -0.347 OA
ATOM     24  O   UNL     1      36.874 -25.989 -11.315  0.00  0.00    -0.348 OA
ATOM     25  C   UNL     1      38.182 -25.031 -13.108  0.00  0.00    +0.188 C 
ATOM     26  C   UNL     1      37.065 -26.002 -12.733  0.00  0.00    +0.175 C 
ATOM     27  C   UNL     1      37.642 -23.705 -11.236  0.00  0.00    +0.174 C 
ATOM     28  C   UNL     1      36.534 -24.675 -10.865  0.00  0.00    +0.174 C 
ENDBRANCH  22  25
ENDBRANCH  21  22
ENDBRANCH  15  21
TORSDOF 5
ENDMDL
MODEL 6
REMARK VINA RESULT:     -10.1      1.777      4.665
REMARK  Name = 71616860
REMARK  5 active torsions:
REMARK  status: ('A' for Active; 'I' for Inactive)
REMARK    1  A    between atoms: C_10  and  C_17
REMARK    2  A    between atoms: C_15  and  O_21
REMARK    3  A    between atoms: C_16  and  C_18
REMARK    4  A    between atoms: O_21  and  C_22
REMARK    5  A    between atoms: C_22  and  C_25
REMARK                            x       y       z     vdW  Elec       q    Type
REMARK                         _______ _______ _______ _____ _____    ______ ____
ROOT
ATOM      1  O   UNL     1      31.786 -24.465 -13.875  0.00  0.00    -0.193 OA
ATOM      2  N   UNL     1      33.168 -23.703 -15.568  0.00  0.00    -0.205 N 
ATOM      3  N   UNL     1      33.906 -25.268 -13.904  0.00  0.00    -0.284 NA
ATOM      4  C   UNL     1      32.152 -22.798 -17.642  0.00  0.00    +0.049 C 
ATOM      5  C   UNL     1      33.527 -22.391 -18.092  0.00  0.00    -0.019 C 
ATOM      6  C   UNL     1      32.112 -22.848 -16.121  0.00  0.00    +0.114 C 
ATOM      7  C   UNL     1      34.651 -22.819 -17.356  0.00  0.00    +0.011 C 
ATOM      8  C   UNL     1      34.439 -23.674 -16.153  0.00  0.00    +0.068 C 
ATOM      9  C   UNL     1      33.688 -21.618 -19.251  0.00  0.00    +0.004 C 
ATOM     10  C   UNL     1      34.958 -21.231 -19.668  0.00  0.00    +0.041 C 
ATOM     11  C   UNL     1      35.922 -22.403 -17.785  0.00  0.00    +0.002 C 
ATOM     12  C   UNL     1      35.422 -24.439 -15.654  0.00  0.00    +0.088 C 
ATOM     13  C   UNL     1      36.073 -21.618 -18.931  0.00  0.00    +0.008 C 
ATOM     14  C   UNL     1      32.893 -24.480 -14.417  0.00  0.00    +0.275 C 
ATOM     15  C   UNL     1      35.055 -25.235 -14.483  0.00  0.00    +0.291 C 
ENDROOT
BRANCH  10  17
ATOM     16  C   UNL     1      35.248 -19.768 -21.833  0.00  0.00    -0.087 C 
ATOM     17  C   UNL     1      35.116 -20.437 -20.845  0.00  0.00    -0.064 C 
BRANCH  16  18
ATOM     18  C   UNL     1      35.406 -18.964 -23.017  0.00  0.00    +0.065 C 
ATOM     19  C   UNL     1      34.872 -17.560 -23.009  0.00  0.00    +0.014 C 
ATOM     20  C   UNL     1      34.184 -18.618 -23.819  0.00  0.00    +0.014 C 
ENDBRANCH  16  18
ENDBRANCH  10  17
BRANCH  15  21
ATOM     21  O   UNL     1      36.074 -25.991 -14.015  0.00  0.00    -0.448 OA
BRANCH  21  22
ATOM     22  C   UNL     1      37.339 -25.347 -14.072  0.00  0.00    +0.240 C 
BRANCH  22  25
ATOM     23  O   UNL     1      37.438 -23.348 -12.761  0.00  0.00    -0.347 OA
ATOM     24  O   UNL     1      37.075 -24.757 -10.360  0.00  0.00    -0.348 OA
ATOM     25  C   UNL     1      37.659 -24.763 -12.706  0.00  0.00    +0.188 C 
ATOM     26  C   UNL     1      36.775 -25.369 -11.618  0.00  0.00    +0.175 C 
ATOM     27  C   UNL     1      37.731 -22.738 -11.502  0.00  0.00    +0.174 C 
ATOM     28  C   UNL     1      36.855 -23.346 -10.421  0.00  0.00    +0.174 C 
ENDBRANCH  22  25
ENDBRANCH  21  22
ENDBRANCH  15  21
TORSDOF 5
ENDMDL
MODEL 7
REMARK VINA RESULT:      -9.7      9.542     13.772
REMARK  Name = 71616860
REMARK  5 active torsions:
REMARK  status: ('A' for Active; 'I' for Inactive)
REMARK    1  A    between atoms: C_10  and  C_17
REMARK    2  A    between atoms: C_15  and  O_21
REMARK    3  A    between atoms: C_16  and  C_18
REMARK    4  A    between atoms: O_21  and  C_22
REMARK    5  A    between atoms: C_22  and  C_25
REMARK                            x       y       z     vdW  Elec       q    Type
REMARK                         _______ _______ _______ _____ _____    ______ ____
ROOT
ATOM      1  O   UNL     1      31.965 -14.339 -19.921  0.00  0.00    -0.193 OA
ATOM      2  N   UNL     1      32.316 -12.520 -21.309  0.00  0.00    -0.205 N 
ATOM      3  N   UNL     1      33.414 -14.630 -21.642  0.00  0.00    -0.284 NA
ATOM      4  C   UNL     1      30.599 -10.733 -21.416  0.00  0.00    +0.049 C 
ATOM      5  C   UNL     1      31.542  -9.932 -22.271  0.00  0.00    -0.019 C 
ATOM      6  C   UNL     1      31.399 -11.680 -20.532  0.00  0.00    +0.114 C 
ATOM      7  C   UNL     1      32.726 -10.534 -22.745  0.00  0.00    +0.011 C 
ATOM      8  C   UNL     1      33.002 -11.955 -22.389  0.00  0.00    +0.068 C 
ATOM      9  C   UNL     1      31.228  -8.610 -22.615  0.00  0.00    +0.004 C 
ATOM     10  C   UNL     1      32.101  -7.861 -23.399  0.00  0.00    +0.041 C 
ATOM     11  C   UNL     1      33.601  -9.754 -23.520  0.00  0.00    +0.002 C 
ATOM     12  C   UNL     1      33.856 -12.703 -23.105  0.00  0.00    +0.088 C 
ATOM     13  C   UNL     1      33.288  -8.431 -23.845  0.00  0.00    +0.008 C 
ATOM     14  C   UNL     1      32.535 -13.859 -20.904  0.00  0.00    +0.275 C 
ATOM     15  C   UNL     1      34.008 -14.083 -22.645  0.00  0.00    +0.291 C 
ENDROOT
BRANCH  10  17
ATOM     16  C   UNL     1      31.511  -5.378 -24.029  0.00  0.00    -0.087 C 
ATOM     17  C   UNL     1      31.779  -6.511 -23.740  0.00  0.00    -0.064 C 
BRANCH  16  18
ATOM     18  C   UNL     1      31.190  -4.017 -24.376  0.00  0.00    +0.065 C 
ATOM     19  C   UNL     1      32.208  -3.208 -25.125  0.00  0.00    +0.014 C 
ATOM     20  C   UNL     1      31.926  -2.906 -23.683  0.00  0.00    +0.014 C 
ENDBRANCH  16  18
ENDBRANCH  10  17
BRANCH  15  21
ATOM     21  O   UNL     1      34.874 -14.801 -23.395  0.00  0.00    -0.448 OA
BRANCH  21  22
ATOM     22  C   UNL     1      34.251 -15.777 -24.216  0.00  0.00    +0.240 C 
BRANCH  22  25
ATOM     23  O   UNL     1      35.155 -17.217 -22.531  0.00  0.00    -0.347 OA
ATOM     24  O   UNL     1      34.552 -19.527 -24.007  0.00  0.00    -0.348 OA
ATOM     25  C   UNL     1      34.878 -17.133 -23.935  0.00  0.00    +0.188 C 
ATOM     26  C   UNL     1      33.945 -18.274 -24.333  0.00  0.00    +0.175 C 
ATOM     27  C   UNL     1      35.756 -18.472 -22.205  0.00  0.00    +0.174 C 
ATOM     28  C   UNL     1      34.828 -19.605 -22.607  0.00  0.00    +0.174 C 
ENDBRANCH  22  25
ENDBRANCH  21  22
ENDBRANCH  15  21
TORSDOF 5
ENDMDL
MODEL 8
REMARK VINA RESULT:      -9.3      7.994     12.246
REMARK  Name = 71616860
REMARK  5 active torsions:
REMARK  status: ('A' for Active; 'I' for Inactive)
REMARK    1  A    between atoms: C_10  and  C_17
REMARK    2  A    between atoms: C_15  and  O_21
REMARK    3  A    between atoms: C_16  and  C_18
REMARK    4  A    between atoms: O_21  and  C_22
REMARK    5  A    between atoms: C_22  and  C_25
REMARK                            x       y       z     vdW  Elec       q    Type
REMARK                         _______ _______ _______ _____ _____    ______ ____
ROOT
ATOM      1  O   UNL     1      33.784 -13.846 -26.657  0.00  0.00    -0.193 OA
ATOM      2  N   UNL     1      34.093 -14.968 -24.656  0.00  0.00    -0.205 N 
ATOM      3  N   UNL     1      33.244 -12.725 -24.761  0.00  0.00    -0.284 NA
ATOM      4  C   UNL     1      34.158 -17.448 -24.659  0.00  0.00    +0.049 C 
ATOM      5  C   UNL     1      34.538 -17.401 -23.205  0.00  0.00    -0.019 C 
ATOM      6  C   UNL     1      34.604 -16.161 -25.340  0.00  0.00    +0.114 C 
ATOM      7  C   UNL     1      34.495 -16.170 -22.518  0.00  0.00    +0.011 C 
ATOM      8  C   UNL     1      34.062 -14.949 -23.258  0.00  0.00    +0.068 C 
ATOM      9  C   UNL     1      34.902 -18.578 -22.536  0.00  0.00    +0.004 C 
ATOM     10  C   UNL     1      35.263 -18.539 -21.192  0.00  0.00    +0.041 C 
ATOM     11  C   UNL     1      34.879 -16.151 -21.168  0.00  0.00    +0.002 C 
ATOM     12  C   UNL     1      33.611 -13.863 -22.613  0.00  0.00    +0.088 C 
ATOM     13  C   UNL     1      35.258 -17.326 -20.511  0.00  0.00    +0.008 C 
ATOM     14  C   UNL     1      33.710 -13.844 -25.426  0.00  0.00    +0.275 C 
ATOM     15  C   UNL     1      33.206 -12.753 -23.475  0.00  0.00    +0.291 C 
ENDROOT
BRANCH  10  17
ATOM     16  C   UNL     1      35.957 -20.749 -19.948  0.00  0.00    -0.087 C 
ATOM     17  C   UNL     1      35.642 -19.739 -20.516  0.00  0.00    -0.064 C 
BRANCH  16  18
ATOM     18  C   UNL     1      36.335 -21.960 -19.266  0.00  0.00    +0.065 C 
ATOM     19  C   UNL     1      35.395 -22.531 -18.244  0.00  0.00    +0.014 C 
ATOM     20  C   UNL     1      36.675 -21.885 -17.805  0.00  0.00    +0.014 C 
ENDBRANCH  16  18
ENDBRANCH  10  17
BRANCH  15  21
ATOM     21  O   UNL     1      32.757 -11.681 -22.785  0.00  0.00    -0.448 OA
BRANCH  21  22
ATOM     22  C   UNL     1      31.706 -11.982 -21.879  0.00  0.00    +0.240 C 
BRANCH  22  25
ATOM     23  O   UNL     1      31.759 -10.873 -19.759  0.00  0.00    -0.347 OA
ATOM     24  O   UNL     1      31.659  -8.331 -20.946  0.00  0.00    -0.348 OA
ATOM     25  C   UNL     1      31.331 -10.720 -21.118  0.00  0.00    +0.188 C 
ATOM     26  C   UNL     1      31.998  -9.485 -21.720  0.00  0.00    +0.175 C 
ATOM     27  C   UNL     1      31.425  -9.717 -18.987  0.00  0.00    +0.174 C 
ATOM     28  C   UNL     1      32.085  -8.489 -19.591  0.00  0.00    +0.174 C 
ENDBRANCH  22  25
ENDBRANCH  21  22
ENDBRANCH  15  21
TORSDOF 5
ENDMDL
