MODEL 1
REMARK VINA RESULT:     -12.7      0.000      0.000
REMARK  Name = 24882195
REMARK  2 active torsions:
REMARK  status: ('A' for Active; 'I' for Inactive)
REMARK    1  A    between atoms: C_5  and  N_15
REMARK    2  A    between atoms: N_15  and  C_21
REMARK                            x       y       z     vdW  Elec       q    Type
REMARK                         _______ _______ _______ _____ _____    ______ ____
ROOT
ATOM      1  C   UNL     1      35.027 -22.242 -17.897  0.00  0.00    +0.001 C 
ATOM      2  C   UNL     1      33.732 -22.126 -18.448  0.00  0.00    +0.000 C 
ATOM      3  C   UNL     1      35.909 -20.793 -19.664  0.00  0.00    +0.000 C 
ATOM      4  C   UNL     1      34.614 -20.676 -20.216  0.00  0.00    +0.000 C 
ATOM      5  C   UNL     1      34.142 -23.682 -16.146  0.00  0.00    +0.049 C 
ATOM      6  C   UNL     1      36.098 -21.574 -18.513  0.00  0.00    +0.000 C 
ATOM      7  C   UNL     1      35.216 -23.025 -16.746  0.00  0.00    +0.015 C 
ATOM      8  C   UNL     1      33.542 -21.345 -19.600  0.00  0.00    +0.000 C 
ATOM      9  C   UNL     1      32.661 -22.794 -17.832  0.00  0.00    +0.001 C 
ATOM     10  C   UNL     1      32.865 -23.567 -16.688  0.00  0.00    +0.015 C 
ATOM     11  C   UNL     1      36.979 -20.125 -20.281  0.00  0.00    +0.000 C 
ATOM     12  C   UNL     1      34.424 -19.894 -21.367  0.00  0.00    +0.000 C 
ATOM     13  C   UNL     1      36.775 -19.352 -21.424  0.00  0.00    +0.000 C 
ATOM     14  C   UNL     1      35.500 -19.237 -21.966  0.00  0.00    +0.000 C 
ENDROOT
BRANCH   5  15
ATOM     15  N   UNL     1      34.349 -24.463 -14.989  0.00  0.00    -0.299 N 
ATOM     16  H   UNL     1      33.574 -24.987 -14.683  0.00  0.00    +0.153 HD
BRANCH  15  21
ATOM     17  N   UNL     1      36.275 -25.709 -14.466  0.00  0.00    -0.106 N 
ATOM     18  N   UNL     1      37.874 -25.051 -12.795  0.00  0.00    -0.340 NA
ATOM     19  N   UNL     1      36.095 -26.730 -15.345  0.00  0.00    -0.139 NA
ATOM     20  N   UNL     1      38.010 -27.054 -14.157  0.00  0.00    -0.145 NA
ATOM     21  C   UNL     1      35.469 -24.585 -14.245  0.00  0.00    +0.138 C 
ATOM     22  C   UNL     1      35.854 -23.700 -13.312  0.00  0.00    +0.061 C 
ATOM     23  C   UNL     1      37.455 -25.929 -13.750  0.00  0.00    +0.174 C 
ATOM     24  C   UNL     1      37.126 -24.007 -12.590  0.00  0.00    +0.125 C 
ATOM     25  C   UNL     1      37.570 -23.022 -11.539  0.00  0.00    +0.068 C 
ATOM     26  C   UNL     1      37.157 -27.495 -15.115  0.00  0.00    +0.230 C 
ENDBRANCH  15  21
ENDBRANCH   5  15
TORSDOF 2
ENDMDL
MODEL 2
REMARK VINA RESULT:     -12.4      1.196      2.351
REMARK  Name = 24882195
REMARK  2 active torsions:
REMARK  status: ('A' for Active; 'I' for Inactive)
REMARK    1  A    between atoms: C_5  and  N_15
REMARK    2  A    between atoms: N_15  and  C_21
REMARK                            x       y       z     vdW  Elec       q    Type
REMARK                         _______ _______ _______ _____ _____    ______ ____
ROOT
ATOM      1  C   UNL     1      35.397 -22.403 -17.583  0.00  0.00    +0.001 C 
ATOM      2  C   UNL     1      34.054 -22.489 -18.011  0.00  0.00    +0.000 C 
ATOM      3  C   UNL     1      35.894 -20.892 -19.446  0.00  0.00    +0.000 C 
ATOM      4  C   UNL     1      34.551 -20.977 -19.875  0.00  0.00    +0.000 C 
ATOM      5  C   UNL     1      34.893 -23.905 -15.736  0.00  0.00    +0.049 C 
ATOM      6  C   UNL     1      36.299 -21.606 -18.307  0.00  0.00    +0.000 C 
ATOM      7  C   UNL     1      35.802 -23.118 -16.444  0.00  0.00    +0.015 C 
ATOM      8  C   UNL     1      33.648 -21.775 -19.151  0.00  0.00    +0.000 C 
ATOM      9  C   UNL     1      33.152 -23.286 -17.287  0.00  0.00    +0.001 C 
ATOM     10  C   UNL     1      33.570 -23.989 -16.157  0.00  0.00    +0.015 C 
ATOM     11  C   UNL     1      36.796 -20.095 -20.171  0.00  0.00    +0.000 C 
ATOM     12  C   UNL     1      34.146 -20.263 -21.014  0.00  0.00    +0.000 C 
ATOM     13  C   UNL     1      36.378 -19.392 -21.301  0.00  0.00    +0.000 C 
ATOM     14  C   UNL     1      35.055 -19.476 -21.722  0.00  0.00    +0.000 C 
ENDROOT
BRANCH   5  15
ATOM     15  N   UNL     1      35.316 -24.616 -14.593  0.00  0.00    -0.299 N 
ATOM     16  H   UNL     1      34.610 -25.092 -14.100  0.00  0.00    +0.153 HD
BRANCH  15  21
ATOM     17  N   UNL     1      36.796 -24.181 -12.815  0.00  0.00    -0.106 N 
ATOM     18  N   UNL     1      39.107 -24.846 -12.814  0.00  0.00    -0.340 NA
ATOM     19  N   UNL     1      35.931 -23.534 -11.991  0.00  0.00    -0.139 NA
ATOM     20  N   UNL     1      37.987 -23.656 -11.021  0.00  0.00    -0.145 NA
ATOM     21  C   UNL     1      36.563 -24.728 -14.084  0.00  0.00    +0.138 C 
ATOM     22  C   UNL     1      37.583 -25.327 -14.716  0.00  0.00    +0.061 C 
ATOM     23  C   UNL     1      38.050 -24.245 -12.199  0.00  0.00    +0.174 C 
ATOM     24  C   UNL     1      38.890 -25.353 -13.991  0.00  0.00    +0.125 C 
ATOM     25  C   UNL     1      40.046 -26.023 -14.690  0.00  0.00    +0.068 C 
ATOM     26  C   UNL     1      36.696 -23.248 -10.943  0.00  0.00    +0.230 C 
ENDBRANCH  15  21
ENDBRANCH   5  15
TORSDOF 2
ENDMDL
MODEL 3
REMARK VINA RESULT:     -12.3      5.808     10.132
REMARK  Name = 24882195
REMARK  2 active torsions:
REMARK  status: ('A' for Active; 'I' for Inactive)
REMARK    1  A    between atoms: C_5  and  N_15
REMARK    2  A    between atoms: N_15  and  C_21
REMARK                            x       y       z     vdW  Elec       q    Type
REMARK                         _______ _______ _______ _____ _____    ______ ____
ROOT
ATOM      1  C   UNL     1      34.800 -20.216 -20.646  0.00  0.00    +0.001 C 
ATOM      2  C   UNL     1      36.098 -20.313 -20.101  0.00  0.00    +0.000 C 
ATOM      3  C   UNL     1      33.969 -21.772 -18.947  0.00  0.00    +0.000 C 
ATOM      4  C   UNL     1      35.268 -21.870 -18.400  0.00  0.00    +0.000 C 
ATOM      5  C   UNL     1      35.634 -18.670 -22.331  0.00  0.00    +0.049 C 
ATOM      6  C   UNL     1      33.752 -20.947 -20.062  0.00  0.00    +0.000 C 
ATOM      7  C   UNL     1      34.584 -19.391 -21.762  0.00  0.00    +0.015 C 
ATOM      8  C   UNL     1      36.316 -21.139 -18.985  0.00  0.00    +0.000 C 
ATOM      9  C   UNL     1      37.146 -19.582 -20.685  0.00  0.00    +0.001 C 
ATOM     10  C   UNL     1      36.914 -18.765 -21.793  0.00  0.00    +0.015 C 
ATOM     11  C   UNL     1      32.923 -22.505 -18.362  0.00  0.00    +0.000 C 
ATOM     12  C   UNL     1      35.485 -22.695 -17.285  0.00  0.00    +0.000 C 
ATOM     13  C   UNL     1      33.154 -23.320 -17.254  0.00  0.00    +0.000 C 
ATOM     14  C   UNL     1      34.433 -23.415 -16.716  0.00  0.00    +0.000 C 
ENDROOT
BRANCH   5  15
ATOM     15  N   UNL     1      35.400 -17.846 -23.451  0.00  0.00    -0.299 N 
ATOM     16  H   UNL     1      35.725 -18.192 -24.313  0.00  0.00    +0.153 HD
BRANCH  15  21
ATOM     17  N   UNL     1      34.623 -15.951 -22.291  0.00  0.00    -0.106 N 
ATOM     18  N   UNL     1      33.530 -14.093 -23.355  0.00  0.00    -0.340 NA
ATOM     19  N   UNL     1      34.997 -16.320 -21.037  0.00  0.00    -0.139 NA
ATOM     20  N   UNL     1      33.982 -14.283 -20.980  0.00  0.00    -0.145 NA
ATOM     21  C   UNL     1      34.788 -16.642 -23.498  0.00  0.00    +0.138 C 
ATOM     22  C   UNL     1      34.333 -16.072 -24.624  0.00  0.00    +0.061 C 
ATOM     23  C   UNL     1      34.004 -14.699 -22.230  0.00  0.00    +0.174 C 
ATOM     24  C   UNL     1      33.684 -14.734 -24.476  0.00  0.00    +0.125 C 
ATOM     25  C   UNL     1      33.167 -14.082 -25.733  0.00  0.00    +0.068 C 
ATOM     26  C   UNL     1      34.590 -15.290 -20.304  0.00  0.00    +0.230 C 
ENDBRANCH  15  21
ENDBRANCH   5  15
TORSDOF 2
ENDMDL
MODEL 4
REMARK VINA RESULT:     -11.8      1.126      2.050
REMARK  Name = 24882195
REMARK  2 active torsions:
REMARK  status: ('A' for Active; 'I' for Inactive)
REMARK    1  A    between atoms: C_5  and  N_15
REMARK    2  A    between atoms: N_15  and  C_21
REMARK                            x       y       z     vdW  Elec       q    Type
REMARK                         _______ _______ _______ _____ _____    ______ ____
ROOT
ATOM      1  C   UNL     1      35.015 -22.111 -18.056  0.00  0.00    +0.001 C 
ATOM      2  C   UNL     1      36.353 -21.677 -17.942  0.00  0.00    +0.000 C 
ATOM      3  C   UNL     1      34.770 -20.815 -20.121  0.00  0.00    +0.000 C 
ATOM      4  C   UNL     1      36.109 -20.381 -20.008  0.00  0.00    +0.000 C 
ATOM      5  C   UNL     1      35.267 -23.394 -16.004  0.00  0.00    +0.049 C 
ATOM      6  C   UNL     1      34.241 -21.674 -19.144  0.00  0.00    +0.000 C 
ATOM      7  C   UNL     1      34.486 -22.969 -17.078  0.00  0.00    +0.015 C 
ATOM      8  C   UNL     1      36.884 -20.817 -18.919  0.00  0.00    +0.000 C 
ATOM      9  C   UNL     1      37.127 -22.114 -16.854  0.00  0.00    +0.001 C 
ATOM     10  C   UNL     1      36.587 -22.967 -15.891  0.00  0.00    +0.015 C 
ATOM     11  C   UNL     1      33.997 -20.377 -21.209  0.00  0.00    +0.000 C 
ATOM     12  C   UNL     1      36.639 -19.522 -20.985  0.00  0.00    +0.000 C 
ATOM     13  C   UNL     1      34.537 -19.525 -22.171  0.00  0.00    +0.000 C 
ATOM     14  C   UNL     1      35.857 -19.098 -22.059  0.00  0.00    +0.000 C 
ENDROOT
BRANCH   5  15
ATOM     15  N   UNL     1      34.720 -24.257 -15.031  0.00  0.00    -0.299 N 
ATOM     16  H   UNL     1      33.786 -24.532 -15.180  0.00  0.00    +0.153 HD
BRANCH  15  21
ATOM     17  N   UNL     1      36.187 -25.833 -14.081  0.00  0.00    -0.106 N 
ATOM     18  N   UNL     1      36.656 -25.966 -11.727  0.00  0.00    -0.340 NA
ATOM     19  N   UNL     1      36.553 -26.475 -15.222  0.00  0.00    -0.139 NA
ATOM     20  N   UNL     1      37.607 -27.406 -13.431  0.00  0.00    -0.145 NA
ATOM     21  C   UNL     1      35.307 -24.756 -13.921  0.00  0.00    +0.138 C 
ATOM     22  C   UNL     1      35.098 -24.283 -12.682  0.00  0.00    +0.061 C 
ATOM     23  C   UNL     1      36.846 -26.421 -12.997  0.00  0.00    +0.174 C 
ATOM     24  C   UNL     1      35.839 -24.965 -11.578  0.00  0.00    +0.125 C 
ATOM     25  C   UNL     1      35.613 -24.446 -10.181  0.00  0.00    +0.068 C 
ATOM     26  C   UNL     1      37.397 -27.397 -14.771  0.00  0.00    +0.230 C 
ENDBRANCH  15  21
ENDBRANCH   5  15
TORSDOF 2
ENDMDL
MODEL 5
REMARK VINA RESULT:     -11.8      2.432      4.348
REMARK  Name = 24882195
REMARK  2 active torsions:
REMARK  status: ('A' for Active; 'I' for Inactive)
REMARK    1  A    between atoms: C_5  and  N_15
REMARK    2  A    between atoms: N_15  and  C_21
REMARK                            x       y       z     vdW  Elec       q    Type
REMARK                         _______ _______ _______ _____ _____    ______ ____
ROOT
ATOM      1  C   UNL     1      34.283 -21.469 -19.523  0.00  0.00    +0.001 C 
ATOM      2  C   UNL     1      35.618 -21.280 -19.103  0.00  0.00    +0.000 C 
ATOM      3  C   UNL     1      34.616 -19.835 -21.318  0.00  0.00    +0.000 C 
ATOM      4  C   UNL     1      35.951 -19.645 -20.898  0.00  0.00    +0.000 C 
ATOM      5  C   UNL     1      33.962 -23.091 -17.737  0.00  0.00    +0.049 C 
ATOM      6  C   UNL     1      33.800 -20.744 -20.625  0.00  0.00    +0.000 C 
ATOM      7  C   UNL     1      33.468 -22.378 -18.829  0.00  0.00    +0.015 C 
ATOM      8  C   UNL     1      36.435 -20.370 -19.796  0.00  0.00    +0.000 C 
ATOM      9  C   UNL     1      36.101 -22.005 -18.001  0.00  0.00    +0.001 C 
ATOM     10  C   UNL     1      35.278 -22.905 -17.323  0.00  0.00    +0.015 C 
ATOM     11  C   UNL     1      34.134 -19.109 -22.419  0.00  0.00    +0.000 C 
ATOM     12  C   UNL     1      36.768 -18.736 -21.591  0.00  0.00    +0.000 C 
ATOM     13  C   UNL     1      34.957 -18.210 -23.098  0.00  0.00    +0.000 C 
ATOM     14  C   UNL     1      36.272 -18.024 -22.684  0.00  0.00    +0.000 C 
ENDROOT
BRANCH   5  15
ATOM     15  N   UNL     1      33.129 -24.000 -17.052  0.00  0.00    -0.299 N 
ATOM     16  H   UNL     1      33.164 -24.932 -17.367  0.00  0.00    +0.153 HD
BRANCH  15  21
ATOM     17  N   UNL     1      32.782 -23.959 -14.725  0.00  0.00    -0.106 N 
ATOM     18  N   UNL     1      30.702 -23.321 -13.701  0.00  0.00    -0.340 NA
ATOM     19  N   UNL     1      34.017 -24.367 -14.333  0.00  0.00    -0.139 NA
ATOM     20  N   UNL     1      32.703 -24.000 -12.510  0.00  0.00    -0.145 NA
ATOM     21  C   UNL     1      32.289 -23.762 -16.021  0.00  0.00    +0.138 C 
ATOM     22  C   UNL     1      31.020 -23.350 -16.164  0.00  0.00    +0.061 C 
ATOM     23  C   UNL     1      31.994 -23.739 -13.590  0.00  0.00    +0.174 C 
ATOM     24  C   UNL     1      30.245 -23.138 -14.904  0.00  0.00    +0.125 C 
ATOM     25  C   UNL     1      28.817 -22.677 -15.050  0.00  0.00    +0.068 C 
ATOM     26  C   UNL     1      33.909 -24.371 -13.009  0.00  0.00    +0.230 C 
ENDBRANCH  15  21
ENDBRANCH   5  15
TORSDOF 2
ENDMDL
MODEL 6
REMARK VINA RESULT:     -11.5      2.270      3.707
REMARK  Name = 24882195
REMARK  2 active torsions:
REMARK  status: ('A' for Active; 'I' for Inactive)
REMARK    1  A    between atoms: C_5  and  N_15
REMARK    2  A    between atoms: N_15  and  C_21
REMARK                            x       y       z     vdW  Elec       q    Type
REMARK                         _______ _______ _______ _____ _____    ______ ____
ROOT
ATOM      1  C   UNL     1      34.504 -21.517 -19.314  0.00  0.00    +0.001 C 
ATOM      2  C   UNL     1      35.853 -21.236 -19.006  0.00  0.00    +0.000 C 
ATOM      3  C   UNL     1      34.622 -19.989 -21.226  0.00  0.00    +0.000 C 
ATOM      4  C   UNL     1      35.971 -19.707 -20.918  0.00  0.00    +0.000 C 
ATOM      5  C   UNL     1      34.397 -23.033 -17.413  0.00  0.00    +0.049 C 
ATOM      6  C   UNL     1      33.906 -20.889 -20.420  0.00  0.00    +0.000 C 
ATOM      7  C   UNL     1      33.789 -22.417 -18.508  0.00  0.00    +0.015 C 
ATOM      8  C   UNL     1      36.570 -20.334 -19.812  0.00  0.00    +0.000 C 
ATOM      9  C   UNL     1      36.451 -21.863 -17.901  0.00  0.00    +0.001 C 
ATOM     10  C   UNL     1      35.727 -22.756 -17.109  0.00  0.00    +0.015 C 
ATOM     11  C   UNL     1      34.025 -19.360 -22.331  0.00  0.00    +0.000 C 
ATOM     12  C   UNL     1      36.687 -18.807 -21.724  0.00  0.00    +0.000 C 
ATOM     13  C   UNL     1      34.749 -18.468 -23.122  0.00  0.00    +0.000 C 
ATOM     14  C   UNL     1      36.078 -18.192 -22.819  0.00  0.00    +0.000 C 
ENDROOT
BRANCH   5  15
ATOM     15  N   UNL     1      33.664 -23.935 -16.614  0.00  0.00    -0.299 N 
ATOM     16  H   UNL     1      33.049 -24.533 -17.098  0.00  0.00    +0.153 HD
BRANCH  15  21
ATOM     17  N   UNL     1      32.502 -23.865 -14.569  0.00  0.00    -0.106 N 
ATOM     18  N   UNL     1      33.517 -24.348 -12.443  0.00  0.00    -0.340 NA
ATOM     19  N   UNL     1      31.281 -23.508 -15.047  0.00  0.00    -0.139 NA
ATOM     20  N   UNL     1      31.196 -23.731 -12.783  0.00  0.00    -0.145 NA
ATOM     21  C   UNL     1      33.693 -24.087 -15.272  0.00  0.00    +0.138 C 
ATOM     22  C   UNL     1      34.786 -24.436 -14.577  0.00  0.00    +0.061 C 
ATOM     23  C   UNL     1      32.425 -23.996 -13.179  0.00  0.00    +0.174 C 
ATOM     24  C   UNL     1      34.622 -24.555 -13.096  0.00  0.00    +0.125 C 
ATOM     25  C   UNL     1      35.843 -24.945 -12.302  0.00  0.00    +0.068 C 
ATOM     26  C   UNL     1      30.548 -23.444 -13.940  0.00  0.00    +0.230 C 
ENDBRANCH  15  21
ENDBRANCH   5  15
TORSDOF 2
ENDMDL
MODEL 7
REMARK VINA RESULT:     -11.5      6.482     10.494
REMARK  Name = 24882195
REMARK  2 active torsions:
REMARK  status: ('A' for Active; 'I' for Inactive)
REMARK    1  A    between atoms: C_5  and  N_15
REMARK    2  A    between atoms: N_15  and  C_21
REMARK                            x       y       z     vdW  Elec       q    Type
REMARK                         _______ _______ _______ _____ _____    ______ ____
ROOT
ATOM      1  C   UNL     1      34.737 -19.862 -20.595  0.00  0.00    +0.001 C 
ATOM      2  C   UNL     1      36.059 -20.165 -20.202  0.00  0.00    +0.000 C 
ATOM      3  C   UNL     1      33.890 -21.586 -19.074  0.00  0.00    +0.000 C 
ATOM      4  C   UNL     1      35.212 -21.890 -18.681  0.00  0.00    +0.000 C 
ATOM      5  C   UNL     1      35.588 -18.151 -22.103  0.00  0.00    +0.049 C 
ATOM      6  C   UNL     1      33.670 -20.577 -20.026  0.00  0.00    +0.000 C 
ATOM      7  C   UNL     1      34.518 -18.853 -21.547  0.00  0.00    +0.015 C 
ATOM      8  C   UNL     1      36.280 -21.175 -19.250  0.00  0.00    +0.000 C 
ATOM      9  C   UNL     1      37.126 -19.450 -20.771  0.00  0.00    +0.001 C 
ATOM     10  C   UNL     1      36.891 -18.450 -21.716  0.00  0.00    +0.015 C 
ATOM     11  C   UNL     1      32.824 -22.302 -18.505  0.00  0.00    +0.000 C 
ATOM     12  C   UNL     1      35.433 -22.899 -17.729  0.00  0.00    +0.000 C 
ATOM     13  C   UNL     1      33.059 -23.301 -17.561  0.00  0.00    +0.000 C 
ATOM     14  C   UNL     1      34.361 -23.599 -17.174  0.00  0.00    +0.000 C 
ENDROOT
BRANCH   5  15
ATOM     15  N   UNL     1      35.350 -17.140 -23.057  0.00  0.00    -0.299 N 
ATOM     16  H   UNL     1      35.757 -17.283 -23.942  0.00  0.00    +0.153 HD
BRANCH  15  21
ATOM     17  N   UNL     1      34.144 -15.398 -24.082  0.00  0.00    -0.106 N 
ATOM     18  N   UNL     1      33.114 -13.598 -22.866  0.00  0.00    -0.340 NA
ATOM     19  N   UNL     1      34.275 -15.800 -25.373  0.00  0.00    -0.139 NA
ATOM     20  N   UNL     1      33.061 -13.877 -25.275  0.00  0.00    -0.145 NA
ATOM     21  C   UNL     1      34.638 -16.001 -22.918  0.00  0.00    +0.138 C 
ATOM     22  C   UNL     1      34.379 -15.415 -21.739  0.00  0.00    +0.061 C 
ATOM     23  C   UNL     1      33.395 -14.218 -24.047  0.00  0.00    +0.174 C 
ATOM     24  C   UNL     1      33.573 -14.157 -21.786  0.00  0.00    +0.125 C 
ATOM     25  C   UNL     1      33.275 -13.487 -20.468  0.00  0.00    +0.068 C 
ATOM     26  C   UNL     1      33.611 -14.858 -26.034  0.00  0.00    +0.230 C 
ENDBRANCH  15  21
ENDBRANCH   5  15
TORSDOF 2
ENDMDL
MODEL 8
REMARK VINA RESULT:     -11.4      1.686      2.774
REMARK  Name = 24882195
REMARK  2 active torsions:
REMARK  status: ('A' for Active; 'I' for Inactive)
REMARK    1  A    between atoms: C_5  and  N_15
REMARK    2  A    between atoms: N_15  and  C_21
REMARK                            x       y       z     vdW  Elec       q    Type
REMARK                         _______ _______ _______ _____ _____    ______ ____
ROOT
ATOM      1  C   UNL     1      35.373 -21.581 -18.839  0.00  0.00    +0.001 C 
ATOM      2  C   UNL     1      34.061 -21.509 -19.355  0.00  0.00    +0.000 C 
ATOM      3  C   UNL     1      36.134 -20.006 -20.554  0.00  0.00    +0.000 C 
ATOM      4  C   UNL     1      34.822 -19.934 -21.071  0.00  0.00    +0.000 C 
ATOM      5  C   UNL     1      34.607 -23.144 -17.138  0.00  0.00    +0.049 C 
ATOM      6  C   UNL     1      36.392 -20.829 -19.446  0.00  0.00    +0.000 C 
ATOM      7  C   UNL     1      35.630 -22.404 -17.730  0.00  0.00    +0.015 C 
ATOM      8  C   UNL     1      33.801 -20.686 -20.465  0.00  0.00    +0.000 C 
ATOM      9  C   UNL     1      33.041 -22.261 -18.748  0.00  0.00    +0.001 C 
ATOM     10  C   UNL     1      33.313 -23.074 -17.646  0.00  0.00    +0.015 C 
ATOM     11  C   UNL     1      37.153 -19.254 -21.162  0.00  0.00    +0.000 C 
ATOM     12  C   UNL     1      34.563 -19.111 -22.180  0.00  0.00    +0.000 C 
ATOM     13  C   UNL     1      36.880 -18.442 -22.263  0.00  0.00    +0.000 C 
ATOM     14  C   UNL     1      35.587 -18.370 -22.771  0.00  0.00    +0.000 C 
ENDROOT
BRANCH   5  15
ATOM     15  N   UNL     1      34.883 -23.966 -16.025  0.00  0.00    -0.299 N 
ATOM     16  H   UNL     1      35.703 -24.508 -16.087  0.00  0.00    +0.153 HD
BRANCH  15  21
ATOM     17  N   UNL     1      34.860 -24.523 -13.739  0.00  0.00    -0.106 N 
ATOM     18  N   UNL     1      32.880 -24.474 -12.376  0.00  0.00    -0.340 NA
ATOM     19  N   UNL     1      36.180 -24.814 -13.593  0.00  0.00    -0.139 NA
ATOM     20  N   UNL     1      35.097 -25.091 -11.609  0.00  0.00    -0.145 NA
ATOM     21  C   UNL     1      34.172 -24.108 -14.886  0.00  0.00    +0.138 C 
ATOM     22  C   UNL     1      32.854 -23.876 -14.787  0.00  0.00    +0.061 C 
ATOM     23  C   UNL     1      34.217 -24.699 -12.510  0.00  0.00    +0.174 C 
ATOM     24  C   UNL     1      32.241 -24.088 -13.441  0.00  0.00    +0.125 C 
ATOM     25  C   UNL     1      30.760 -23.833 -13.316  0.00  0.00    +0.068 C 
ATOM     26  C   UNL     1      36.258 -25.144 -12.308  0.00  0.00    +0.230 C 
ENDBRANCH  15  21
ENDBRANCH   5  15
TORSDOF 2
ENDMDL
MODEL 9
REMARK VINA RESULT:     -11.3      9.773     13.674
REMARK  Name = 24882195
REMARK  2 active torsions:
REMARK  status: ('A' for Active; 'I' for Inactive)
REMARK    1  A    between atoms: C_5  and  N_15
REMARK    2  A    between atoms: N_15  and  C_21
REMARK                            x       y       z     vdW  Elec       q    Type
REMARK                         _______ _______ _______ _____ _____    ______ ____
ROOT
ATOM      1  C   UNL     1      34.381 -14.966 -23.166  0.00  0.00    +0.001 C 
ATOM      2  C   UNL     1      33.987 -15.611 -24.359  0.00  0.00    +0.000 C 
ATOM      3  C   UNL     1      35.023 -17.128 -22.209  0.00  0.00    +0.000 C 
ATOM      4  C   UNL     1      34.630 -17.774 -23.402  0.00  0.00    +0.000 C 
ATOM      5  C   UNL     1      33.739 -12.823 -24.125  0.00  0.00    +0.049 C 
ATOM      6  C   UNL     1      34.893 -15.733 -22.107  0.00  0.00    +0.000 C 
ATOM      7  C   UNL     1      34.250 -13.571 -23.064  0.00  0.00    +0.015 C 
ATOM      8  C   UNL     1      34.116 -17.007 -24.462  0.00  0.00    +0.000 C 
ATOM      9  C   UNL     1      33.474 -14.844 -25.418  0.00  0.00    +0.001 C 
ATOM     10  C   UNL     1      33.351 -13.458 -25.301  0.00  0.00    +0.015 C 
ATOM     11  C   UNL     1      35.535 -17.896 -21.151  0.00  0.00    +0.000 C 
ATOM     12  C   UNL     1      34.760 -19.168 -23.504  0.00  0.00    +0.000 C 
ATOM     13  C   UNL     1      35.658 -19.280 -21.267  0.00  0.00    +0.000 C 
ATOM     14  C   UNL     1      35.271 -19.915 -22.443  0.00  0.00    +0.000 C 
ENDROOT
BRANCH   5  15
ATOM     15  N   UNL     1      33.615 -11.423 -24.006  0.00  0.00    -0.299 N 
ATOM     16  H   UNL     1      33.970 -10.897 -24.759  0.00  0.00    +0.153 HD
BRANCH  15  21
ATOM     17  N   UNL     1      33.492  -9.378 -22.848  0.00  0.00    -0.106 N 
ATOM     18  N   UNL     1      32.076  -9.012 -20.940  0.00  0.00    -0.340 NA
ATOM     19  N   UNL     1      34.386  -8.675 -23.592  0.00  0.00    -0.139 NA
ATOM     20  N   UNL     1      33.553  -7.362 -21.929  0.00  0.00    -0.145 NA
ATOM     21  C   UNL     1      33.076 -10.708 -22.995  0.00  0.00    +0.138 C 
ATOM     22  C   UNL     1      32.171 -11.191 -22.130  0.00  0.00    +0.061 C 
ATOM     23  C   UNL     1      32.995  -8.552 -21.835  0.00  0.00    +0.174 C 
ATOM     24  C   UNL     1      31.690 -10.246 -21.077  0.00  0.00    +0.125 C 
ATOM     25  C   UNL     1      30.674 -10.776 -20.096  0.00  0.00    +0.068 C 
ATOM     26  C   UNL     1      34.378  -7.486 -22.999  0.00  0.00    +0.230 C 
ENDBRANCH  15  21
ENDBRANCH   5  15
TORSDOF 2
ENDMDL
