MODEL 1
REMARK VINA RESULT:     -11.4      0.000      0.000
REMARK  Name = 9820008
REMARK  6 active torsions:
REMARK  status: ('A' for Active; 'I' for Inactive)
REMARK    1  A    between atoms: C_2  and  N_17
REMARK    2  A    between atoms: C_3  and  C_8
REMARK    3  A    between atoms: C_11  and  O_14
REMARK    4  A    between atoms: C_18  and  C_23
REMARK    5  A    between atoms: C_24  and  C_26
REMARK    6  A    between atoms: C_26  and  O_27
REMARK                            x       y       z     vdW  Elec       q    Type
REMARK                         _______ _______ _______ _____ _____    ______ ____
ROOT
ATOM      1  F   UNL     1      33.516 -22.073 -18.947  0.00  0.00    -0.203 F 
ATOM      2  C   UNL     1      35.798 -21.417 -18.992  0.00  0.00    +0.078 C 
ATOM      3  C   UNL     1      35.252 -19.733 -21.121  0.00  0.00    +0.002 C 
ATOM      4  C   UNL     1      34.505 -21.345 -19.484  0.00  0.00    +0.153 C 
ATOM      5  C   UNL     1      36.823 -20.665 -19.541  0.00  0.00    +0.017 C 
ATOM      6  C   UNL     1      34.230 -20.496 -20.556  0.00  0.00    +0.031 C 
ATOM      7  C   UNL     1      36.549 -19.817 -20.613  0.00  0.00    +0.001 C 
ENDROOT
BRANCH   3   8
ATOM      8  C   UNL     1      34.967 -18.852 -22.233  0.00  0.00    +0.003 C 
ATOM      9  C   UNL     1      35.273 -17.494 -22.143  0.00  0.00    +0.037 C 
ATOM     10  C   UNL     1      34.386 -19.360 -23.394  0.00  0.00    +0.000 C 
ATOM     11  C   UNL     1      34.998 -16.645 -23.214  0.00  0.00    +0.139 C 
ATOM     12  C   UNL     1      34.112 -18.512 -24.466  0.00  0.00    +0.003 C 
ATOM     13  C   UNL     1      34.417 -17.154 -24.376  0.00  0.00    +0.037 C 
BRANCH  11  14
ATOM     14  O   UNL     1      35.295 -15.320 -23.128  0.00  0.00    -0.471 OA
ATOM     15  C   UNL     1      34.200 -14.415 -22.995  0.00  0.00    +0.252 C 
ENDBRANCH  11  14
ENDBRANCH   3   8
BRANCH   2  17
ATOM     16  O   UNL     1      37.403 -20.944 -16.484  0.00  0.00    -0.270 OA
ATOM     17  N   UNL     1      36.080 -22.278 -17.905  0.00  0.00    -0.279 N 
ATOM     18  C   UNL     1      36.833 -22.003 -16.766  0.00  0.00    +0.245 C 
ATOM     19  H   UNL     1      35.696 -23.183 -17.960  0.00  0.00    +0.155 HD
BRANCH  18  23
ATOM     20  C   UNL     1      37.810 -24.559 -14.206  0.00  0.00    +0.010 C 
ATOM     21  C   UNL     1      38.221 -23.660 -15.372  0.00  0.00    +0.031 C 
ATOM     22  C   UNL     1      36.347 -24.934 -14.456  0.00  0.00    +0.033 C 
ATOM     23  C   UNL     1      36.907 -23.139 -15.856  0.00  0.00    +0.034 C 
ATOM     24  C   UNL     1      35.883 -23.836 -15.355  0.00  0.00    +0.054 C 
BRANCH  24  26
ATOM     25  O   UNL     1      33.874 -23.963 -16.619  0.00  0.00    -0.245 OA
ATOM     26  C   UNL     1      34.465 -23.616 -15.607  0.00  0.00    +0.334 C 
BRANCH  26  27
ATOM     27  O   UNL     1      33.905 -22.972 -14.558  0.00  0.00    -0.477 OA
ATOM     28  H   UNL     1      33.409 -23.452 -13.924  0.00  0.00    +0.295 HD
ENDBRANCH  26  27
ENDBRANCH  24  26
ENDBRANCH  18  23
ENDBRANCH   2  17
TORSDOF 6
ENDMDL
MODEL 2
REMARK VINA RESULT:     -10.7      2.024      8.953
REMARK  Name = 9820008
REMARK  6 active torsions:
REMARK  status: ('A' for Active; 'I' for Inactive)
REMARK    1  A    between atoms: C_2  and  N_17
REMARK    2  A    between atoms: C_3  and  C_8
REMARK    3  A    between atoms: C_11  and  O_14
REMARK    4  A    between atoms: C_18  and  C_23
REMARK    5  A    between atoms: C_24  and  C_26
REMARK    6  A    between atoms: C_26  and  O_27
REMARK                            x       y       z     vdW  Elec       q    Type
REMARK                         _______ _______ _______ _____ _____    ______ ____
ROOT
ATOM      1  F   UNL     1      32.832 -21.981 -19.512  0.00  0.00    -0.203 F 
ATOM      2  C   UNL     1      35.098 -21.271 -19.468  0.00  0.00    +0.078 C 
ATOM      3  C   UNL     1      35.484 -22.714 -17.136  0.00  0.00    +0.002 C 
ATOM      4  C   UNL     1      34.038 -21.980 -18.927  0.00  0.00    +0.153 C 
ATOM      5  C   UNL     1      36.346 -21.268 -18.869  0.00  0.00    +0.017 C 
ATOM      6  C   UNL     1      34.233 -22.707 -17.752  0.00  0.00    +0.031 C 
ATOM      7  C   UNL     1      36.541 -21.994 -17.694  0.00  0.00    +0.001 C 
ENDROOT
BRANCH   3   8
ATOM      8  C   UNL     1      35.687 -23.468 -15.918  0.00  0.00    +0.003 C 
ATOM      9  C   UNL     1      36.953 -23.524 -15.335  0.00  0.00    +0.037 C 
ATOM     10  C   UNL     1      34.617 -24.139 -15.327  0.00  0.00    +0.000 C 
ATOM     11  C   UNL     1      37.148 -24.251 -14.161  0.00  0.00    +0.139 C 
ATOM     12  C   UNL     1      34.812 -24.865 -14.152  0.00  0.00    +0.003 C 
ATOM     13  C   UNL     1      36.078 -24.922 -13.570  0.00  0.00    +0.037 C 
BRANCH  11  14
ATOM     14  O   UNL     1      38.383 -24.307 -13.591  0.00  0.00    -0.471 OA
ATOM     15  C   UNL     1      38.808 -25.569 -13.082  0.00  0.00    +0.252 C 
ENDBRANCH  11  14
ENDBRANCH   3   8
BRANCH   2  17
ATOM     16  O   UNL     1      36.664 -18.968 -20.621  0.00  0.00    -0.270 OA
ATOM     17  N   UNL     1      34.903 -20.532 -20.659  0.00  0.00    -0.279 N 
ATOM     18  C   UNL     1      35.664 -19.470 -21.143  0.00  0.00    +0.245 C 
ATOM     19  H   UNL     1      34.136 -20.802 -21.214  0.00  0.00    +0.155 HD
BRANCH  18  23
ATOM     20  C   UNL     1      34.051 -18.972 -24.488  0.00  0.00    +0.010 C 
ATOM     21  C   UNL     1      34.876 -19.863 -23.560  0.00  0.00    +0.031 C 
ATOM     22  C   UNL     1      34.396 -17.531 -24.108  0.00  0.00    +0.033 C 
ATOM     23  C   UNL     1      35.161 -18.954 -22.409  0.00  0.00    +0.034 C 
ATOM     24  C   UNL     1      34.898 -17.678 -22.710  0.00  0.00    +0.054 C 
BRANCH  24  26
ATOM     25  O   UNL     1      34.976 -16.549 -20.619  0.00  0.00    -0.245 OA
ATOM     26  C   UNL     1      35.058 -16.521 -21.839  0.00  0.00    +0.334 C 
BRANCH  26  27
ATOM     27  O   UNL     1      35.309 -15.418 -22.580  0.00  0.00    -0.477 OA
ATOM     28  H   UNL     1      34.923 -14.597 -22.343  0.00  0.00    +0.295 HD
ENDBRANCH  26  27
ENDBRANCH  24  26
ENDBRANCH  18  23
ENDBRANCH   2  17
TORSDOF 6
ENDMDL
MODEL 3
REMARK VINA RESULT:     -10.5      1.310      2.085
REMARK  Name = 9820008
REMARK  6 active torsions:
REMARK  status: ('A' for Active; 'I' for Inactive)
REMARK    1  A    between atoms: C_2  and  N_17
REMARK    2  A    between atoms: C_3  and  C_8
REMARK    3  A    between atoms: C_11  and  O_14
REMARK    4  A    between atoms: C_18  and  C_23
REMARK    5  A    between atoms: C_24  and  C_26
REMARK    6  A    between atoms: C_26  and  O_27
REMARK                            x       y       z     vdW  Elec       q    Type
REMARK                         _______ _______ _______ _____ _____    ______ ____
ROOT
ATOM      1  F   UNL     1      32.877 -22.195 -18.543  0.00  0.00    -0.203 F 
ATOM      2  C   UNL     1      35.237 -21.926 -18.547  0.00  0.00    +0.078 C 
ATOM      3  C   UNL     1      35.016 -20.196 -20.698  0.00  0.00    +0.002 C 
ATOM      4  C   UNL     1      33.983 -21.645 -19.065  0.00  0.00    +0.153 C 
ATOM      5  C   UNL     1      36.382 -21.360 -19.081  0.00  0.00    +0.017 C 
ATOM      6  C   UNL     1      33.872 -20.774 -20.148  0.00  0.00    +0.031 C 
ATOM      7  C   UNL     1      36.272 -20.489 -20.165  0.00  0.00    +0.001 C 
ENDROOT
BRANCH   3   8
ATOM      8  C   UNL     1      34.902 -19.292 -21.822  0.00  0.00    +0.003 C 
ATOM      9  C   UNL     1      35.200 -17.938 -21.661  0.00  0.00    +0.037 C 
ATOM     10  C   UNL     1      34.493 -19.772 -23.065  0.00  0.00    +0.000 C 
ATOM     11  C   UNL     1      35.089 -17.066 -22.744  0.00  0.00    +0.139 C 
ATOM     12  C   UNL     1      34.383 -18.901 -24.149  0.00  0.00    +0.003 C 
ATOM     13  C   UNL     1      34.680 -17.548 -23.988  0.00  0.00    +0.037 C 
BRANCH  11  14
ATOM     14  O   UNL     1      35.378 -15.746 -22.588  0.00  0.00    -0.471 OA
ATOM     15  C   UNL     1      34.446 -14.808 -23.121  0.00  0.00    +0.252 C 
ENDBRANCH  11  14
ENDBRANCH   3   8
BRANCH   2  17
ATOM     16  O   UNL     1      36.688 -21.611 -15.924  0.00  0.00    -0.270 OA
ATOM     17  N   UNL     1      35.353 -22.811 -17.449  0.00  0.00    -0.279 N 
ATOM     18  C   UNL     1      36.041 -22.610 -16.255  0.00  0.00    +0.245 C 
ATOM     19  H   UNL     1      34.889 -23.674 -17.540  0.00  0.00    +0.155 HD
BRANCH  18  23
ATOM     20  C   UNL     1      34.991 -25.658 -14.346  0.00  0.00    +0.010 C 
ATOM     21  C   UNL     1      34.609 -24.314 -14.967  0.00  0.00    +0.031 C 
ATOM     22  C   UNL     1      36.450 -25.522 -13.907  0.00  0.00    +0.033 C 
ATOM     23  C   UNL     1      35.937 -23.748 -15.352  0.00  0.00    +0.034 C 
ATOM     24  C   UNL     1      36.944 -24.410 -14.771  0.00  0.00    +0.054 C 
BRANCH  24  26
ATOM     25  O   UNL     1      39.232 -24.519 -14.136  0.00  0.00    -0.245 OA
ATOM     26  C   UNL     1      38.368 -24.139 -14.913  0.00  0.00    +0.334 C 
BRANCH  26  27
ATOM     27  O   UNL     1      38.589 -23.406 -16.028  0.00  0.00    -0.477 OA
ATOM     28  H   UNL     1      38.074 -22.641 -16.196  0.00  0.00    +0.295 HD
ENDBRANCH  26  27
ENDBRANCH  24  26
ENDBRANCH  18  23
ENDBRANCH   2  17
TORSDOF 6
ENDMDL
MODEL 4
REMARK VINA RESULT:     -10.3      5.952     12.186
REMARK  Name = 9820008
REMARK  6 active torsions:
REMARK  status: ('A' for Active; 'I' for Inactive)
REMARK    1  A    between atoms: C_2  and  N_17
REMARK    2  A    between atoms: C_3  and  C_8
REMARK    3  A    between atoms: C_11  and  O_14
REMARK    4  A    between atoms: C_18  and  C_23
REMARK    5  A    between atoms: C_24  and  C_26
REMARK    6  A    between atoms: C_26  and  O_27
REMARK                            x       y       z     vdW  Elec       q    Type
REMARK                         _______ _______ _______ _____ _____    ______ ____
ROOT
ATOM      1  F   UNL     1      31.958 -12.180 -20.406  0.00  0.00    -0.203 F 
ATOM      2  C   UNL     1      32.959 -11.623 -22.486  0.00  0.00    +0.078 C 
ATOM      3  C   UNL     1      33.849 -14.233 -22.734  0.00  0.00    +0.002 C 
ATOM      4  C   UNL     1      32.665 -12.536 -21.487  0.00  0.00    +0.153 C 
ATOM      5  C   UNL     1      33.688 -11.986 -23.606  0.00  0.00    +0.017 C 
ATOM      6  C   UNL     1      33.113 -13.851 -21.612  0.00  0.00    +0.031 C 
ATOM      7  C   UNL     1      34.137 -13.301 -23.731  0.00  0.00    +0.001 C 
ENDROOT
BRANCH   3   8
ATOM      8  C   UNL     1      34.314 -15.597 -22.864  0.00  0.00    +0.003 C 
ATOM      9  C   UNL     1      34.842 -16.263 -21.758  0.00  0.00    +0.037 C 
ATOM     10  C   UNL     1      34.236 -16.246 -24.096  0.00  0.00    +0.000 C 
ATOM     11  C   UNL     1      35.291 -17.577 -21.884  0.00  0.00    +0.139 C 
ATOM     12  C   UNL     1      34.684 -17.561 -24.222  0.00  0.00    +0.003 C 
ATOM     13  C   UNL     1      35.212 -18.226 -23.116  0.00  0.00    +0.037 C 
BRANCH  11  14
ATOM     14  O   UNL     1      35.807 -18.227 -20.805  0.00  0.00    -0.471 OA
ATOM     15  C   UNL     1      36.998 -18.984 -21.010  0.00  0.00    +0.252 C 
ENDBRANCH  11  14
ENDBRANCH   3   8
BRANCH   2  17
ATOM     16  O   UNL     1      34.321  -9.022 -23.170  0.00  0.00    -0.270 OA
ATOM     17  N   UNL     1      32.507 -10.288 -22.361  0.00  0.00    -0.279 N 
ATOM     18  C   UNL     1      33.185  -9.118 -22.696  0.00  0.00    +0.245 C 
ATOM     19  H   UNL     1      31.601 -10.171 -21.993  0.00  0.00    +0.155 HD
BRANCH  18  23
ATOM     20  C   UNL     1      30.862  -6.181 -22.835  0.00  0.00    +0.010 C 
ATOM     21  C   UNL     1      31.900  -7.056 -23.539  0.00  0.00    +0.031 C 
ATOM     22  C   UNL     1      31.235  -6.194 -21.351  0.00  0.00    +0.033 C 
ATOM     23  C   UNL     1      32.400  -7.920 -22.428  0.00  0.00    +0.034 C 
ATOM     24  C   UNL     1      32.036  -7.448 -21.231  0.00  0.00    +0.054 C 
BRANCH  24  26
ATOM     25  O   UNL     1      31.824  -9.032 -19.472  0.00  0.00    -0.245 OA
ATOM     26  C   UNL     1      32.344  -8.025 -19.930  0.00  0.00    +0.334 C 
BRANCH  26  27
ATOM     27  O   UNL     1      33.288  -7.282 -19.308  0.00  0.00    -0.477 OA
ATOM     28  H   UNL     1      33.788  -6.658 -19.795  0.00  0.00    +0.295 HD
ENDBRANCH  26  27
ENDBRANCH  24  26
ENDBRANCH  18  23
ENDBRANCH   2  17
TORSDOF 6
ENDMDL
MODEL 5
REMARK VINA RESULT:     -10.3      2.346      3.400
REMARK  Name = 9820008
REMARK  6 active torsions:
REMARK  status: ('A' for Active; 'I' for Inactive)
REMARK    1  A    between atoms: C_2  and  N_17
REMARK    2  A    between atoms: C_3  and  C_8
REMARK    3  A    between atoms: C_11  and  O_14
REMARK    4  A    between atoms: C_18  and  C_23
REMARK    5  A    between atoms: C_24  and  C_26
REMARK    6  A    between atoms: C_26  and  O_27
REMARK                            x       y       z     vdW  Elec       q    Type
REMARK                         _______ _______ _______ _____ _____    ______ ____
ROOT
ATOM      1  F   UNL     1      34.183 -23.584 -17.292  0.00  0.00    -0.203 F 
ATOM      2  C   UNL     1      36.203 -22.495 -16.678  0.00  0.00    +0.078 C 
ATOM      3  C   UNL     1      36.092 -21.014 -19.015  0.00  0.00    +0.002 C 
ATOM      4  C   UNL     1      35.149 -22.692 -17.555  0.00  0.00    +0.153 C 
ATOM      5  C   UNL     1      37.201 -21.574 -16.944  0.00  0.00    +0.017 C 
ATOM      6  C   UNL     1      35.093 -21.946 -18.732  0.00  0.00    +0.031 C 
ATOM      7  C   UNL     1      37.146 -20.828 -18.121  0.00  0.00    +0.001 C 
ENDROOT
BRANCH   3   8
ATOM      8  C   UNL     1      36.034 -20.240 -20.236  0.00  0.00    +0.003 C 
ATOM      9  C   UNL     1      34.909 -20.315 -21.057  0.00  0.00    +0.037 C 
ATOM     10  C   UNL     1      37.103 -19.419 -20.592  0.00  0.00    +0.000 C 
ATOM     11  C   UNL     1      34.853 -19.569 -22.234  0.00  0.00    +0.139 C 
ATOM     12  C   UNL     1      37.048 -18.672 -21.769  0.00  0.00    +0.003 C 
ATOM     13  C   UNL     1      35.924 -18.748 -22.590  0.00  0.00    +0.037 C 
BRANCH  11  14
ATOM     14  O   UNL     1      33.757 -19.642 -23.036  0.00  0.00    -0.471 OA
ATOM     15  C   UNL     1      33.835 -18.997 -24.306  0.00  0.00    +0.252 C 
ENDBRANCH  11  14
ENDBRANCH   3   8
BRANCH   2  17
ATOM     16  O   UNL     1      38.560 -23.719 -15.252  0.00  0.00    -0.270 OA
ATOM     17  N   UNL     1      36.263 -23.252 -15.483  0.00  0.00    -0.279 N 
ATOM     18  C   UNL     1      37.388 -23.795 -14.869  0.00  0.00    +0.245 C 
ATOM     19  H   UNL     1      35.404 -23.412 -15.031  0.00  0.00    +0.155 HD
BRANCH  18  23
ATOM     20  C   UNL     1      36.158 -24.876 -11.499  0.00  0.00    +0.010 C 
ATOM     21  C   UNL     1      36.794 -23.790 -12.366  0.00  0.00    +0.031 C 
ATOM     22  C   UNL     1      36.617 -26.211 -12.089  0.00  0.00    +0.033 C 
ATOM     23  C   UNL     1      37.064 -24.515 -13.644  0.00  0.00    +0.034 C 
ATOM     24  C   UNL     1      36.967 -25.840 -13.492  0.00  0.00    +0.054 C 
BRANCH  24  26
ATOM     25  O   UNL     1      36.381 -27.098 -15.421  0.00  0.00    -0.245 OA
ATOM     26  C   UNL     1      37.165 -26.857 -14.515  0.00  0.00    +0.334 C 
BRANCH  26  27
ATOM     27  O   UNL     1      38.342 -27.491 -14.312  0.00  0.00    -0.477 OA
ATOM     28  H   UNL     1      38.710 -27.533 -13.452  0.00  0.00    +0.295 HD
ENDBRANCH  26  27
ENDBRANCH  24  26
ENDBRANCH  18  23
ENDBRANCH   2  17
TORSDOF 6
ENDMDL
MODEL 6
REMARK VINA RESULT:     -10.2      5.881      9.609
REMARK  Name = 9820008
REMARK  6 active torsions:
REMARK  status: ('A' for Active; 'I' for Inactive)
REMARK    1  A    between atoms: C_2  and  N_17
REMARK    2  A    between atoms: C_3  and  C_8
REMARK    3  A    between atoms: C_11  and  O_14
REMARK    4  A    between atoms: C_18  and  C_23
REMARK    5  A    between atoms: C_24  and  C_26
REMARK    6  A    between atoms: C_26  and  O_27
REMARK                            x       y       z     vdW  Elec       q    Type
REMARK                         _______ _______ _______ _____ _____    ______ ____
ROOT
ATOM      1  F   UNL     1      31.961 -14.181 -21.053  0.00  0.00    -0.203 F 
ATOM      2  C   UNL     1      33.483 -13.720 -22.818  0.00  0.00    +0.078 C 
ATOM      3  C   UNL     1      32.641 -11.082 -22.829  0.00  0.00    +0.002 C 
ATOM      4  C   UNL     1      32.505 -13.317 -21.923  0.00  0.00    +0.153 C 
ATOM      5  C   UNL     1      34.049 -12.832 -23.717  0.00  0.00    +0.017 C 
ATOM      6  C   UNL     1      32.081 -11.989 -21.929  0.00  0.00    +0.031 C 
ATOM      7  C   UNL     1      33.625 -11.503 -23.724  0.00  0.00    +0.001 C 
ENDROOT
BRANCH   3   8
ATOM      8  C   UNL     1      32.201  -9.703 -22.835  0.00  0.00    +0.003 C 
ATOM      9  C   UNL     1      32.213  -8.962 -21.654  0.00  0.00    +0.037 C 
ATOM     10  C   UNL     1      31.765  -9.115 -24.022  0.00  0.00    +0.000 C 
ATOM     11  C   UNL     1      31.789  -7.634 -21.659  0.00  0.00    +0.139 C 
ATOM     12  C   UNL     1      31.342  -7.786 -24.028  0.00  0.00    +0.003 C 
ATOM     13  C   UNL     1      31.353  -7.046 -22.847  0.00  0.00    +0.037 C 
BRANCH  11  14
ATOM     14  O   UNL     1      31.800  -6.910 -20.506  0.00  0.00    -0.471 OA
ATOM     15  C   UNL     1      32.937  -7.056 -19.658  0.00  0.00    +0.252 C 
ENDBRANCH  11  14
ENDBRANCH   3   8
BRANCH   2  17
ATOM     16  O   UNL     1      34.941 -15.305 -20.709  0.00  0.00    -0.270 OA
ATOM     17  N   UNL     1      33.914 -15.068 -22.815  0.00  0.00    -0.279 N 
ATOM     18  C   UNL     1      34.588 -15.750 -21.806  0.00  0.00    +0.245 C 
ATOM     19  H   UNL     1      33.711 -15.587 -23.627  0.00  0.00    +0.155 HD
BRANCH  18  23
ATOM     20  C   UNL     1      35.152 -19.454 -21.846  0.00  0.00    +0.010 C 
ATOM     21  C   UNL     1      35.349 -18.114 -21.137  0.00  0.00    +0.031 C 
ATOM     22  C   UNL     1      35.130 -19.142 -23.343  0.00  0.00    +0.033 C 
ATOM     23  C   UNL     1      34.870 -17.135 -22.159  0.00  0.00    +0.034 C 
ATOM     24  C   UNL     1      34.750 -17.698 -23.366  0.00  0.00    +0.054 C 
BRANCH  24  26
ATOM     25  O   UNL     1      33.198 -17.164 -25.085  0.00  0.00    -0.245 OA
ATOM     26  C   UNL     1      34.313 -17.052 -24.595  0.00  0.00    +0.334 C 
BRANCH  26  27
ATOM     27  O   UNL     1      35.321 -16.312 -25.111  0.00  0.00    -0.477 OA
ATOM     28  H   UNL     1      35.480 -16.316 -26.034  0.00  0.00    +0.295 HD
ENDBRANCH  26  27
ENDBRANCH  24  26
ENDBRANCH  18  23
ENDBRANCH   2  17
TORSDOF 6
ENDMDL
MODEL 7
REMARK VINA RESULT:     -10.1      5.298     11.407
REMARK  Name = 9820008
REMARK  6 active torsions:
REMARK  status: ('A' for Active; 'I' for Inactive)
REMARK    1  A    between atoms: C_2  and  N_17
REMARK    2  A    between atoms: C_3  and  C_8
REMARK    3  A    between atoms: C_11  and  O_14
REMARK    4  A    between atoms: C_18  and  C_23
REMARK    5  A    between atoms: C_24  and  C_26
REMARK    6  A    between atoms: C_26  and  O_27
REMARK                            x       y       z     vdW  Elec       q    Type
REMARK                         _______ _______ _______ _____ _____    ______ ____
ROOT
ATOM      1  F   UNL     1      33.436 -13.110 -25.037  0.00  0.00    -0.203 F 
ATOM      2  C   UNL     1      33.683 -12.974 -22.679  0.00  0.00    +0.078 C 
ATOM      3  C   UNL     1      34.420 -15.643 -22.622  0.00  0.00    +0.002 C 
ATOM      4  C   UNL     1      33.735 -13.688 -23.865  0.00  0.00    +0.153 C 
ATOM      5  C   UNL     1      33.992 -13.566 -21.466  0.00  0.00    +0.017 C 
ATOM      6  C   UNL     1      34.106 -15.032 -23.836  0.00  0.00    +0.031 C 
ATOM      7  C   UNL     1      34.363 -14.910 -21.436  0.00  0.00    +0.001 C 
ENDROOT
BRANCH   3   8
ATOM      8  C   UNL     1      34.806 -17.037 -22.592  0.00  0.00    +0.003 C 
ATOM      9  C   UNL     1      35.428 -17.564 -21.460  0.00  0.00    +0.037 C 
ATOM     10  C   UNL     1      34.556 -17.854 -23.694  0.00  0.00    +0.000 C 
ATOM     11  C   UNL     1      35.800 -18.908 -21.431  0.00  0.00    +0.139 C 
ATOM     12  C   UNL     1      34.927 -19.198 -23.665  0.00  0.00    +0.003 C 
ATOM     13  C   UNL     1      35.550 -19.725 -22.534  0.00  0.00    +0.037 C 
BRANCH  11  14
ATOM     14  O   UNL     1      36.408 -19.423 -20.328  0.00  0.00    -0.471 OA
ATOM     15  C   UNL     1      36.045 -20.748 -19.944  0.00  0.00    +0.252 C 
ENDBRANCH  11  14
ENDBRANCH   3   8
BRANCH   2  17
ATOM     16  O   UNL     1      31.065 -11.654 -21.978  0.00  0.00    -0.270 OA
ATOM     17  N   UNL     1      33.305 -11.611 -22.705  0.00  0.00    -0.279 N 
ATOM     18  C   UNL     1      32.073 -11.056 -22.368  0.00  0.00    +0.245 C 
ATOM     19  H   UNL     1      33.999 -10.976 -22.995  0.00  0.00    +0.155 HD
BRANCH  18  23
ATOM     20  C   UNL     1      31.620  -7.522 -23.528  0.00  0.00    +0.010 C 
ATOM     21  C   UNL     1      31.988  -8.967 -23.866  0.00  0.00    +0.031 C 
ATOM     22  C   UNL     1      32.050  -7.304 -22.076  0.00  0.00    +0.033 C 
ATOM     23  C   UNL     1      32.052  -9.607 -22.517  0.00  0.00    +0.034 C 
ATOM     24  C   UNL     1      32.086  -8.697 -21.538  0.00  0.00    +0.054 C 
BRANCH  24  26
ATOM     25  O   UNL     1      31.408  -9.706 -19.496  0.00  0.00    -0.245 OA
ATOM     26  C   UNL     1      32.153  -8.952 -20.106  0.00  0.00    +0.334 C 
BRANCH  26  27
ATOM     27  O   UNL     1      33.156  -8.232 -19.556  0.00  0.00    -0.477 OA
ATOM     28  H   UNL     1      33.023  -7.330 -19.339  0.00  0.00    +0.295 HD
ENDBRANCH  26  27
ENDBRANCH  24  26
ENDBRANCH  18  23
ENDBRANCH   2  17
TORSDOF 6
ENDMDL
MODEL 8
REMARK VINA RESULT:      -9.9      1.689      2.008
REMARK  Name = 9820008
REMARK  6 active torsions:
REMARK  status: ('A' for Active; 'I' for Inactive)
REMARK    1  A    between atoms: C_2  and  N_17
REMARK    2  A    between atoms: C_3  and  C_8
REMARK    3  A    between atoms: C_11  and  O_14
REMARK    4  A    between atoms: C_18  and  C_23
REMARK    5  A    between atoms: C_24  and  C_26
REMARK    6  A    between atoms: C_26  and  O_27
REMARK                            x       y       z     vdW  Elec       q    Type
REMARK                         _______ _______ _______ _____ _____    ______ ____
ROOT
ATOM      1  F   UNL     1      32.327 -21.641 -18.509  0.00  0.00    -0.203 F 
ATOM      2  C   UNL     1      34.701 -21.680 -18.549  0.00  0.00    +0.078 C 
ATOM      3  C   UNL     1      34.668 -20.144 -20.853  0.00  0.00    +0.002 C 
ATOM      4  C   UNL     1      33.485 -21.290 -19.085  0.00  0.00    +0.153 C 
ATOM      5  C   UNL     1      35.901 -21.319 -19.140  0.00  0.00    +0.017 C 
ATOM      6  C   UNL     1      33.469 -20.516 -20.245  0.00  0.00    +0.031 C 
ATOM      7  C   UNL     1      35.885 -20.546 -20.300  0.00  0.00    +0.001 C 
ENDROOT
BRANCH   3   8
ATOM      8  C   UNL     1      34.652 -19.341 -22.056  0.00  0.00    +0.003 C 
ATOM      9  C   UNL     1      35.080 -18.014 -22.015  0.00  0.00    +0.037 C 
ATOM     10  C   UNL     1      34.207 -19.893 -23.257  0.00  0.00    +0.000 C 
ATOM     11  C   UNL     1      35.063 -17.239 -23.174  0.00  0.00    +0.139 C 
ATOM     12  C   UNL     1      34.192 -19.119 -24.417  0.00  0.00    +0.003 C 
ATOM     13  C   UNL     1      34.619 -17.792 -24.376  0.00  0.00    +0.037 C 
BRANCH  11  14
ATOM     14  O   UNL     1      35.480 -15.945 -23.135  0.00  0.00    -0.471 OA
ATOM     15  C   UNL     1      34.549 -14.976 -22.658  0.00  0.00    +0.252 C 
ENDBRANCH  11  14
ENDBRANCH   3   8
BRANCH   2  17
ATOM     16  O   UNL     1      33.448 -24.359 -17.963  0.00  0.00    -0.270 OA
ATOM     17  N   UNL     1      34.721 -22.467 -17.373  0.00  0.00    -0.279 N 
ATOM     18  C   UNL     1      34.119 -23.705 -17.159  0.00  0.00    +0.245 C 
ATOM     19  H   UNL     1      35.223 -22.094 -16.613  0.00  0.00    +0.155 HD
BRANCH  18  23
ATOM     20  C   UNL     1      35.586 -24.879 -13.917  0.00  0.00    +0.010 C 
ATOM     21  C   UNL     1      35.662 -24.843 -15.444  0.00  0.00    +0.031 C 
ATOM     22  C   UNL     1      34.098 -24.822 -13.566  0.00  0.00    +0.033 C 
ATOM     23  C   UNL     1      34.356 -24.217 -15.816  0.00  0.00    +0.034 C 
ATOM     24  C   UNL     1      33.502 -24.207 -14.788  0.00  0.00    +0.054 C 
BRANCH  24  26
ATOM     25  O   UNL     1      31.196 -24.189 -15.367  0.00  0.00    -0.245 OA
ATOM     26  C   UNL     1      32.143 -23.681 -14.784  0.00  0.00    +0.334 C 
BRANCH  26  27
ATOM     27  O   UNL     1      32.088 -22.554 -14.039  0.00  0.00    -0.477 OA
ATOM     28  H   UNL     1      31.689 -22.570 -13.192  0.00  0.00    +0.295 HD
ENDBRANCH  26  27
ENDBRANCH  24  26
ENDBRANCH  18  23
ENDBRANCH   2  17
TORSDOF 6
ENDMDL
MODEL 9
REMARK VINA RESULT:      -9.8      1.265      1.855
REMARK  Name = 9820008
REMARK  6 active torsions:
REMARK  status: ('A' for Active; 'I' for Inactive)
REMARK    1  A    between atoms: C_2  and  N_17
REMARK    2  A    between atoms: C_3  and  C_8
REMARK    3  A    between atoms: C_11  and  O_14
REMARK    4  A    between atoms: C_18  and  C_23
REMARK    5  A    between atoms: C_24  and  C_26
REMARK    6  A    between atoms: C_26  and  O_27
REMARK                            x       y       z     vdW  Elec       q    Type
REMARK                         _______ _______ _______ _____ _____    ______ ____
ROOT
ATOM      1  F   UNL     1      33.199 -22.285 -18.533  0.00  0.00    -0.203 F 
ATOM      2  C   UNL     1      35.526 -21.812 -18.492  0.00  0.00    +0.078 C 
ATOM      3  C   UNL     1      35.188 -20.060 -20.608  0.00  0.00    +0.002 C 
ATOM      4  C   UNL     1      34.260 -21.630 -19.024  0.00  0.00    +0.153 C 
ATOM      5  C   UNL     1      36.625 -21.138 -18.994  0.00  0.00    +0.017 C 
ATOM      6  C   UNL     1      34.090 -20.747 -20.090  0.00  0.00    +0.031 C 
ATOM      7  C   UNL     1      36.456 -20.255 -20.061  0.00  0.00    +0.001 C 
ENDROOT
BRANCH   3   8
ATOM      8  C   UNL     1      35.012 -19.143 -21.714  0.00  0.00    +0.003 C 
ATOM      9  C   UNL     1      34.412 -19.582 -22.895  0.00  0.00    +0.037 C 
ATOM     10  C   UNL     1      35.442 -17.822 -21.600  0.00  0.00    +0.000 C 
ATOM     11  C   UNL     1      34.243 -18.699 -23.961  0.00  0.00    +0.139 C 
ATOM     12  C   UNL     1      35.273 -16.938 -22.666  0.00  0.00    +0.003 C 
ATOM     13  C   UNL     1      34.674 -17.377 -23.847  0.00  0.00    +0.037 C 
BRANCH  11  14
ATOM     14  O   UNL     1      33.659 -19.126 -25.113  0.00  0.00    -0.471 OA
ATOM     15  C   UNL     1      32.234 -19.187 -25.136  0.00  0.00    +0.252 C 
ENDBRANCH  11  14
ENDBRANCH   3   8
BRANCH   2  17
ATOM     16  O   UNL     1      37.129 -21.530 -15.954  0.00  0.00    -0.270 OA
ATOM     17  N   UNL     1      35.702 -22.709 -17.411  0.00  0.00    -0.279 N 
ATOM     18  C   UNL     1      36.460 -22.523 -16.257  0.00  0.00    +0.245 C 
ATOM     19  H   UNL     1      35.230 -23.570 -17.483  0.00  0.00    +0.155 HD
BRANCH  18  23
ATOM     20  C   UNL     1      37.158 -25.233 -13.766  0.00  0.00    +0.010 C 
ATOM     21  C   UNL     1      37.645 -24.390 -14.944  0.00  0.00    +0.031 C 
ATOM     22  C   UNL     1      35.646 -25.380 -13.947  0.00  0.00    +0.033 C 
ATOM     23  C   UNL     1      36.404 -23.670 -15.360  0.00  0.00    +0.034 C 
ATOM     24  C   UNL     1      35.310 -24.212 -14.814  0.00  0.00    +0.054 C 
BRANCH  24  26
ATOM     25  O   UNL     1      33.297 -23.884 -16.035  0.00  0.00    -0.245 OA
ATOM     26  C   UNL     1      33.932 -23.776 -14.996  0.00  0.00    +0.334 C 
BRANCH  26  27
ATOM     27  O   UNL     1      33.464 -23.238 -13.847  0.00  0.00    -0.477 OA
ATOM     28  H   UNL     1      32.814 -23.691 -13.348  0.00  0.00    +0.295 HD
ENDBRANCH  26  27
ENDBRANCH  24  26
ENDBRANCH  18  23
ENDBRANCH   2  17
TORSDOF 6
ENDMDL
