MODEL 1
REMARK VINA RESULT:     -12.9      0.000      0.000
REMARK  Name = 25025505
REMARK  6 active torsions:
REMARK  status: ('A' for Active; 'I' for Inactive)
REMARK    1  A    between atoms: C_3  and  C_9
REMARK    2  A    between atoms: C_4  and  C_20
REMARK    3  A    between atoms: C_17  and  C_18
REMARK    4  A    between atoms: C_20  and  O_21
REMARK    5  A    between atoms: O_21  and  C_22
REMARK    6  A    between atoms: C_25  and  N_28
REMARK                            x       y       z     vdW  Elec       q    Type
REMARK                         _______ _______ _______ _____ _____    ______ ____
ROOT
ATOM      1  S   UNL     1      36.448 -24.292 -14.774  0.00  0.00    -0.079 S 
ATOM      2  N   UNL     1      33.922 -23.788 -14.996  0.00  0.00    -0.404 NA
ATOM      3  C   UNL     1      35.069 -23.744 -15.636  0.00  0.00    +0.134 C 
ATOM      4  C   UNL     1      34.138 -24.290 -13.728  0.00  0.00    +0.142 C 
ATOM      5  C   UNL     1      35.443 -24.620 -13.424  0.00  0.00    +0.122 C 
ENDROOT
BRANCH   3   9
ATOM      6  N   UNL     1      35.143 -21.295 -19.194  0.00  0.00    -0.253 N 
ATOM      7  N   UNL     1      36.135 -19.476 -20.273  0.00  0.00    -0.203 NA
ATOM      8  N   UNL     1      34.158 -20.523 -21.166  0.00  0.00    -0.181 NA
ATOM      9  C   UNL     1      35.238 -23.249 -17.061  0.00  0.00    +0.062 C 
ATOM     10  C   UNL     1      33.907 -22.791 -17.675  0.00  0.00    +0.030 C 
ATOM     11  C   UNL     1      36.267 -22.114 -17.160  0.00  0.00    +0.030 C 
ATOM     12  C   UNL     1      34.092 -22.316 -19.117  0.00  0.00    +0.102 C 
ATOM     13  C   UNL     1      36.443 -21.649 -18.606  0.00  0.00    +0.102 C 
ATOM     14  C   UNL     1      35.146 -20.389 -20.261  0.00  0.00    +0.090 C 
ATOM     15  C   UNL     1      36.107 -18.618 -21.314  0.00  0.00    +0.161 C 
ATOM     16  C   UNL     1      34.190 -19.634 -22.180  0.00  0.00    +0.104 C 
ATOM     17  C   UNL     1      35.149 -18.649 -22.307  0.00  0.00    +0.001 C 
BRANCH  17  18
ATOM     18  C   UNL     1      35.152 -17.689 -23.436  0.00  0.00    +0.026 C 
ATOM     19  C   UNL     1      34.950 -16.243 -22.981  0.00  0.00    +0.005 C 
ENDBRANCH  17  18
ENDBRANCH   3   9
BRANCH   4  20
ATOM     20  C   UNL     1      32.981 -24.429 -12.821  0.00  0.00    +0.260 C 
BRANCH  20  21
ATOM     21  O   UNL     1      32.027 -25.328 -13.384  0.00  0.00    -0.468 OA
BRANCH  21  22
ATOM     22  C   UNL     1      30.964 -24.765 -14.034  0.00  0.00    +0.139 C 
ATOM     23  C   UNL     1      30.064 -25.571 -14.732  0.00  0.00    +0.038 C 
ATOM     24  C   UNL     1      30.778 -23.383 -14.001  0.00  0.00    +0.038 C 
ATOM     25  C   UNL     1      28.797 -23.615 -15.363  0.00  0.00    +0.078 C 
ATOM     26  C   UNL     1      28.981 -24.997 -15.396  0.00  0.00    +0.020 C 
ATOM     27  C   UNL     1      29.695 -22.807 -14.665  0.00  0.00    +0.020 C 
BRANCH  25  28
ATOM     28  N   UNL     1      27.722 -23.045 -16.021  0.00  0.00    -0.149 N 
ATOM     29  N   UNL     1      27.612 -23.055 -17.357  0.00  0.00    -0.048 NA
ATOM     30  N   UNL     1      25.861 -22.017 -16.447  0.00  0.00    -0.107 NA
ATOM     31  N   UNL     1      26.471 -22.426 -17.612  0.00  0.00    -0.024 NA
ATOM     32  C   UNL     1      26.651 -22.411 -15.475  0.00  0.00    +0.215 C 
ENDBRANCH  25  28
ENDBRANCH  21  22
ENDBRANCH  20  21
ENDBRANCH   4  20
TORSDOF 6
ENDMDL
MODEL 2
REMARK VINA RESULT:     -12.3      6.614     10.697
REMARK  Name = 25025505
REMARK  6 active torsions:
REMARK  status: ('A' for Active; 'I' for Inactive)
REMARK    1  A    between atoms: C_3  and  C_9
REMARK    2  A    between atoms: C_4  and  C_20
REMARK    3  A    between atoms: C_17  and  C_18
REMARK    4  A    between atoms: C_20  and  O_21
REMARK    5  A    between atoms: O_21  and  C_22
REMARK    6  A    between atoms: C_25  and  N_28
REMARK                            x       y       z     vdW  Elec       q    Type
REMARK                         _______ _______ _______ _____ _____    ______ ____
ROOT
ATOM      1  S   UNL     1      33.820 -15.817 -24.745  0.00  0.00    -0.079 S 
ATOM      2  N   UNL     1      34.411 -15.538 -22.244  0.00  0.00    -0.404 NA
ATOM      3  C   UNL     1      33.795 -14.966 -23.255  0.00  0.00    +0.134 C 
ATOM      4  C   UNL     1      34.945 -16.739 -22.669  0.00  0.00    +0.142 C 
ATOM      5  C   UNL     1      34.729 -17.061 -23.993  0.00  0.00    +0.122 C 
ENDROOT
BRANCH   3   9
ATOM      6  N   UNL     1      32.785 -10.845 -22.447  0.00  0.00    -0.253 N 
ATOM      7  N   UNL     1      33.283  -8.606 -22.891  0.00  0.00    -0.203 NA
ATOM      8  N   UNL     1      31.742  -9.213 -21.141  0.00  0.00    -0.181 NA
ATOM      9  C   UNL     1      33.082 -13.630 -23.179  0.00  0.00    +0.062 C 
ATOM     10  C   UNL     1      32.807 -13.202 -21.730  0.00  0.00    +0.030 C 
ATOM     11  C   UNL     1      33.856 -12.519 -23.904  0.00  0.00    +0.030 C 
ATOM     12  C   UNL     1      32.068 -11.864 -21.673  0.00  0.00    +0.102 C 
ATOM     13  C   UNL     1      33.107 -11.188 -23.839  0.00  0.00    +0.102 C 
ATOM     14  C   UNL     1      32.594  -9.491 -22.146  0.00  0.00    +0.090 C 
ATOM     15  C   UNL     1      33.076  -7.311 -22.574  0.00  0.00    +0.161 C 
ATOM     16  C   UNL     1      31.582  -7.900 -20.877  0.00  0.00    +0.104 C 
ATOM     17  C   UNL     1      32.229  -6.895 -21.567  0.00  0.00    +0.001 C 
BRANCH  17  18
ATOM     18  C   UNL     1      32.028  -5.461 -21.248  0.00  0.00    +0.026 C 
ATOM     19  C   UNL     1      31.991  -4.579 -22.497  0.00  0.00    +0.005 C 
ENDBRANCH  17  18
ENDBRANCH   3   9
BRANCH   4  20
ATOM     20  C   UNL     1      35.689 -17.561 -21.693  0.00  0.00    +0.260 C 
BRANCH  20  21
ATOM     21  O   UNL     1      35.630 -18.936 -22.069  0.00  0.00    -0.468 OA
BRANCH  21  22
ATOM     22  C   UNL     1      35.375 -19.833 -21.069  0.00  0.00    +0.139 C 
ATOM     23  C   UNL     1      34.060 -20.179 -20.758  0.00  0.00    +0.038 C 
ATOM     24  C   UNL     1      36.431 -20.404 -20.358  0.00  0.00    +0.038 C 
ATOM     25  C   UNL     1      34.856 -21.663 -19.028  0.00  0.00    +0.078 C 
ATOM     26  C   UNL     1      33.800 -21.093 -19.738  0.00  0.00    +0.020 C 
ATOM     27  C   UNL     1      36.172 -21.319 -19.337  0.00  0.00    +0.020 C 
BRANCH  25  28
ATOM     28  N   UNL     1      34.599 -22.570 -18.016  0.00  0.00    -0.149 N 
ATOM     29  N   UNL     1      35.502 -22.865 -17.070  0.00  0.00    -0.048 NA
ATOM     30  N   UNL     1      33.630 -24.029 -16.737  0.00  0.00    -0.107 NA
ATOM     31  N   UNL     1      34.904 -23.757 -16.290  0.00  0.00    -0.024 NA
ATOM     32  C   UNL     1      33.462 -23.284 -17.805  0.00  0.00    +0.215 C 
ENDBRANCH  25  28
ENDBRANCH  21  22
ENDBRANCH  20  21
ENDBRANCH   4  20
TORSDOF 6
ENDMDL
MODEL 3
REMARK VINA RESULT:     -11.7      6.376     10.512
REMARK  Name = 25025505
REMARK  6 active torsions:
REMARK  status: ('A' for Active; 'I' for Inactive)
REMARK    1  A    between atoms: C_3  and  C_9
REMARK    2  A    between atoms: C_4  and  C_20
REMARK    3  A    between atoms: C_17  and  C_18
REMARK    4  A    between atoms: C_20  and  O_21
REMARK    5  A    between atoms: O_21  and  C_22
REMARK    6  A    between atoms: C_25  and  N_28
REMARK                            x       y       z     vdW  Elec       q    Type
REMARK                         _______ _______ _______ _____ _____    ______ ____
ROOT
ATOM      1  S   UNL     1      33.808 -15.865 -24.775  0.00  0.00    -0.079 S 
ATOM      2  N   UNL     1      34.800 -16.242 -22.418  0.00  0.00    -0.404 NA
ATOM      3  C   UNL     1      34.312 -15.327 -23.224  0.00  0.00    +0.134 C 
ATOM      4  C   UNL     1      34.781 -17.463 -23.063  0.00  0.00    +0.142 C 
ATOM      5  C   UNL     1      34.278 -17.458 -24.348  0.00  0.00    +0.122 C 
ENDROOT
BRANCH   3   9
ATOM      6  N   UNL     1      33.055 -11.197 -23.092  0.00  0.00    -0.253 N 
ATOM      7  N   UNL     1      31.325  -9.714 -22.577  0.00  0.00    -0.203 NA
ATOM      8  N   UNL     1      33.307  -8.961 -23.722  0.00  0.00    -0.181 NA
ATOM      9  C   UNL     1      34.170 -13.859 -22.871  0.00  0.00    +0.062 C 
ATOM     10  C   UNL     1      34.498 -12.944 -24.060  0.00  0.00    +0.030 C 
ATOM     11  C   UNL     1      32.769 -13.525 -22.337  0.00  0.00    +0.030 C 
ATOM     12  C   UNL     1      34.372 -11.468 -23.680  0.00  0.00    +0.102 C 
ATOM     13  C   UNL     1      32.656 -12.047 -21.962  0.00  0.00    +0.102 C 
ATOM     14  C   UNL     1      32.538  -9.896 -23.131  0.00  0.00    +0.090 C 
ATOM     15  C   UNL     1      30.857  -8.450 -22.634  0.00  0.00    +0.161 C 
ATOM     16  C   UNL     1      32.778  -7.720 -23.744  0.00  0.00    +0.104 C 
ATOM     17  C   UNL     1      31.545  -7.402 -23.211  0.00  0.00    +0.001 C 
BRANCH  17  18
ATOM     18  C   UNL     1      30.996  -6.026 -23.254  0.00  0.00    +0.026 C 
ATOM     19  C   UNL     1      31.256  -5.248 -21.963  0.00  0.00    +0.005 C 
ENDBRANCH  17  18
ENDBRANCH   3   9
BRANCH   4  20
ATOM     20  C   UNL     1      35.288 -18.647 -22.342  0.00  0.00    +0.260 C 
BRANCH  20  21
ATOM     21  O   UNL     1      34.209 -19.526 -22.027  0.00  0.00    -0.468 OA
BRANCH  21  22
ATOM     22  C   UNL     1      34.367 -20.318 -20.924  0.00  0.00    +0.139 C 
ATOM     23  C   UNL     1      33.248 -20.811 -20.251  0.00  0.00    +0.038 C 
ATOM     24  C   UNL     1      35.647 -20.636 -20.470  0.00  0.00    +0.038 C 
ATOM     25  C   UNL     1      34.689 -21.935 -18.673  0.00  0.00    +0.078 C 
ATOM     26  C   UNL     1      33.409 -21.619 -19.126  0.00  0.00    +0.020 C 
ATOM     27  C   UNL     1      35.809 -21.444 -19.344  0.00  0.00    +0.020 C 
BRANCH  25  28
ATOM     28  N   UNL     1      34.849 -22.736 -17.557  0.00  0.00    -0.149 N 
ATOM     29  N   UNL     1      33.981 -23.707 -17.240  0.00  0.00    -0.048 NA
ATOM     30  N   UNL     1      35.625 -23.623 -15.736  0.00  0.00    -0.107 NA
ATOM     31  N   UNL     1      34.460 -24.247 -16.126  0.00  0.00    -0.024 NA
ATOM     32  C   UNL     1      35.847 -22.693 -16.635  0.00  0.00    +0.215 C 
ENDBRANCH  25  28
ENDBRANCH  21  22
ENDBRANCH  20  21
ENDBRANCH   4  20
TORSDOF 6
ENDMDL
MODEL 4
REMARK VINA RESULT:     -11.5      5.555     11.113
REMARK  Name = 25025505
REMARK  6 active torsions:
REMARK  status: ('A' for Active; 'I' for Inactive)
REMARK    1  A    between atoms: C_3  and  C_9
REMARK    2  A    between atoms: C_4  and  C_20
REMARK    3  A    between atoms: C_17  and  C_18
REMARK    4  A    between atoms: C_20  and  O_21
REMARK    5  A    between atoms: O_21  and  C_22
REMARK    6  A    between atoms: C_25  and  N_28
REMARK                            x       y       z     vdW  Elec       q    Type
REMARK                         _______ _______ _______ _____ _____    ______ ____
ROOT
ATOM      1  S   UNL     1      34.893 -19.779 -23.129  0.00  0.00    -0.079 S 
ATOM      2  N   UNL     1      35.115 -18.261 -21.048  0.00  0.00    -0.404 NA
ATOM      3  C   UNL     1      35.105 -19.513 -21.446  0.00  0.00    +0.134 C 
ATOM      4  C   UNL     1      34.941 -17.442 -22.146  0.00  0.00    +0.142 C 
ATOM      5  C   UNL     1      34.803 -18.082 -23.360  0.00  0.00    +0.122 C 
ENDROOT
BRANCH   3   9
ATOM      6  N   UNL     1      35.268 -22.085 -17.980  0.00  0.00    -0.253 N 
ATOM      7  N   UNL     1      34.049 -23.119 -16.276  0.00  0.00    -0.203 NA
ATOM      8  N   UNL     1      36.459 -23.131 -16.263  0.00  0.00    -0.181 NA
ATOM      9  C   UNL     1      35.269 -20.708 -20.526  0.00  0.00    +0.062 C 
ATOM     10  C   UNL     1      36.385 -20.494 -19.493  0.00  0.00    +0.030 C 
ATOM     11  C   UNL     1      33.962 -21.063 -19.802  0.00  0.00    +0.030 C 
ATOM     12  C   UNL     1      36.551 -21.715 -18.588  0.00  0.00    +0.102 C 
ATOM     13  C   UNL     1      34.141 -22.286 -18.902  0.00  0.00    +0.102 C 
ATOM     14  C   UNL     1      35.258 -22.813 -16.784  0.00  0.00    +0.090 C 
ATOM     15  C   UNL     1      34.076 -23.819 -15.123  0.00  0.00    +0.161 C 
ATOM     16  C   UNL     1      36.412 -23.831 -15.111  0.00  0.00    +0.104 C 
ATOM     17  C   UNL     1      35.239 -24.206 -14.488  0.00  0.00    +0.001 C 
BRANCH  17  18
ATOM     18  C   UNL     1      35.227 -24.976 -13.221  0.00  0.00    +0.026 C 
ATOM     19  C   UNL     1      35.543 -24.108 -12.002  0.00  0.00    +0.005 C 
ENDBRANCH  17  18
ENDBRANCH   3   9
BRANCH   4  20
ATOM     20  C   UNL     1      34.918 -15.981 -21.935  0.00  0.00    +0.260 C 
BRANCH  20  21
ATOM     21  O   UNL     1      34.317 -15.336 -23.057  0.00  0.00    -0.468 OA
BRANCH  21  22
ATOM     22  C   UNL     1      33.786 -14.094 -22.838  0.00  0.00    +0.139 C 
ATOM     23  C   UNL     1      34.054 -13.053 -23.728  0.00  0.00    +0.038 C 
ATOM     24  C   UNL     1      32.978 -13.868 -21.725  0.00  0.00    +0.038 C 
ATOM     25  C   UNL     1      32.705 -11.562 -22.391  0.00  0.00    +0.078 C 
ATOM     26  C   UNL     1      33.513 -11.788 -23.504  0.00  0.00    +0.020 C 
ATOM     27  C   UNL     1      32.436 -12.602 -21.501  0.00  0.00    +0.020 C 
BRANCH  25  28
ATOM     28  N   UNL     1      32.168 -10.307 -22.169  0.00  0.00    -0.149 N 
ATOM     29  N   UNL     1      31.954  -9.826 -20.936  0.00  0.00    -0.048 NA
ATOM     30  N   UNL     1      31.328  -8.330 -22.466  0.00  0.00    -0.107 NA
ATOM     31  N   UNL     1      31.440  -8.617 -21.124  0.00  0.00    -0.024 NA
ATOM     32  C   UNL     1      31.785  -9.388 -23.094  0.00  0.00    +0.215 C 
ENDBRANCH  25  28
ENDBRANCH  21  22
ENDBRANCH  20  21
ENDBRANCH   4  20
TORSDOF 6
ENDMDL
MODEL 5
REMARK VINA RESULT:     -11.4      4.876      8.509
REMARK  Name = 25025505
REMARK  6 active torsions:
REMARK  status: ('A' for Active; 'I' for Inactive)
REMARK    1  A    between atoms: C_3  and  C_9
REMARK    2  A    between atoms: C_4  and  C_20
REMARK    3  A    between atoms: C_17  and  C_18
REMARK    4  A    between atoms: C_20  and  O_21
REMARK    5  A    between atoms: O_21  and  C_22
REMARK    6  A    between atoms: C_25  and  N_28
REMARK                            x       y       z     vdW  Elec       q    Type
REMARK                         _______ _______ _______ _____ _____    ______ ____
ROOT
ATOM      1  S   UNL     1      34.649 -18.335 -23.273  0.00  0.00    -0.079 S 
ATOM      2  N   UNL     1      35.544 -18.085 -20.861  0.00  0.00    -0.404 NA
ATOM      3  C   UNL     1      35.093 -17.412 -21.895  0.00  0.00    +0.134 C 
ATOM      4  C   UNL     1      35.543 -19.431 -21.169  0.00  0.00    +0.142 C 
ATOM      5  C   UNL     1      35.092 -19.761 -22.430  0.00  0.00    +0.122 C 
ENDROOT
BRANCH   3   9
ATOM      6  N   UNL     1      33.502 -13.408 -22.211  0.00  0.00    -0.253 N 
ATOM      7  N   UNL     1      32.128 -11.788 -21.239  0.00  0.00    -0.203 NA
ATOM      8  N   UNL     1      33.031 -11.487 -23.453  0.00  0.00    -0.181 NA
ATOM      9  C   UNL     1      34.946 -15.902 -21.940  0.00  0.00    +0.062 C 
ATOM     10  C   UNL     1      34.434 -15.411 -23.302  0.00  0.00    +0.030 C 
ATOM     11  C   UNL     1      34.027 -15.378 -20.826  0.00  0.00    +0.030 C 
ATOM     12  C   UNL     1      34.313 -13.887 -23.337  0.00  0.00    +0.102 C 
ATOM     13  C   UNL     1      33.914 -13.854 -20.872  0.00  0.00    +0.102 C 
ATOM     14  C   UNL     1      32.857 -12.169 -22.305  0.00  0.00    +0.090 C 
ATOM     15  C   UNL     1      31.519 -10.591 -21.365  0.00  0.00    +0.161 C 
ATOM     16  C   UNL     1      32.394 -10.299 -23.510  0.00  0.00    +0.104 C 
ATOM     17  C   UNL     1      31.617  -9.795 -22.488  0.00  0.00    +0.001 C 
BRANCH  17  18
ATOM     18  C   UNL     1      30.932  -8.484 -22.588  0.00  0.00    +0.026 C 
ATOM     19  C   UNL     1      31.391  -7.669 -23.798  0.00  0.00    +0.005 C 
ENDBRANCH  17  18
ENDBRANCH   3   9
BRANCH   4  20
ATOM     20  C   UNL     1      36.014 -20.385 -20.146  0.00  0.00    +0.260 C 
BRANCH  20  21
ATOM     21  O   UNL     1      35.155 -21.524 -20.108  0.00  0.00    -0.468 OA
BRANCH  21  22
ATOM     22  C   UNL     1      34.931 -22.081 -18.879  0.00  0.00    +0.139 C 
ATOM     23  C   UNL     1      35.939 -22.074 -17.915  0.00  0.00    +0.038 C 
ATOM     24  C   UNL     1      33.695 -22.658 -18.589  0.00  0.00    +0.038 C 
ATOM     25  C   UNL     1      34.475 -23.220 -16.374  0.00  0.00    +0.078 C 
ATOM     26  C   UNL     1      35.711 -22.644 -16.662  0.00  0.00    +0.020 C 
ATOM     27  C   UNL     1      33.466 -23.228 -17.337  0.00  0.00    +0.020 C 
BRANCH  25  28
ATOM     28  N   UNL     1      34.249 -23.785 -15.131  0.00  0.00    -0.149 N 
ATOM     29  N   UNL     1      33.019 -24.084 -14.693  0.00  0.00    -0.048 NA
ATOM     30  N   UNL     1      34.538 -24.627 -13.154  0.00  0.00    -0.107 NA
ATOM     31  N   UNL     1      33.201 -24.598 -13.483  0.00  0.00    -0.024 NA
ATOM     32  C   UNL     1      35.168 -24.119 -14.188  0.00  0.00    +0.215 C 
ENDBRANCH  25  28
ENDBRANCH  21  22
ENDBRANCH  20  21
ENDBRANCH   4  20
TORSDOF 6
ENDMDL
MODEL 6
REMARK VINA RESULT:     -11.3      4.868     10.318
REMARK  Name = 25025505
REMARK  6 active torsions:
REMARK  status: ('A' for Active; 'I' for Inactive)
REMARK    1  A    between atoms: C_3  and  C_9
REMARK    2  A    between atoms: C_4  and  C_20
REMARK    3  A    between atoms: C_17  and  C_18
REMARK    4  A    between atoms: C_20  and  O_21
REMARK    5  A    between atoms: O_21  and  C_22
REMARK    6  A    between atoms: C_25  and  N_28
REMARK                            x       y       z     vdW  Elec       q    Type
REMARK                         _______ _______ _______ _____ _____    ______ ____
ROOT
ATOM      1  S   UNL     1      33.048 -20.996 -19.914  0.00  0.00    -0.079 S 
ATOM      2  N   UNL     1      35.514 -20.591 -20.574  0.00  0.00    -0.404 NA
ATOM      3  C   UNL     1      34.738 -21.236 -19.732  0.00  0.00    +0.134 C 
ATOM      4  C   UNL     1      34.725 -19.850 -21.431  0.00  0.00    +0.142 C 
ATOM      5  C   UNL     1      33.364 -19.942 -21.229  0.00  0.00    +0.122 C 
ENDROOT
BRANCH   3   9
ATOM      6  N   UNL     1      35.786 -22.935 -15.902  0.00  0.00    -0.253 N 
ATOM      7  N   UNL     1      34.990 -23.784 -13.876  0.00  0.00    -0.203 NA
ATOM      8  N   UNL     1      37.338 -23.358 -14.208  0.00  0.00    -0.181 NA
ATOM      9  C   UNL     1      35.239 -22.157 -18.635  0.00  0.00    +0.062 C 
ATOM     10  C   UNL     1      36.388 -21.529 -17.833  0.00  0.00    +0.030 C 
ATOM     11  C   UNL     1      34.115 -22.579 -17.677  0.00  0.00    +0.030 C 
ATOM     12  C   UNL     1      36.895 -22.478 -16.747  0.00  0.00    +0.102 C 
ATOM     13  C   UNL     1      34.636 -23.528 -16.597  0.00  0.00    +0.102 C 
ATOM     14  C   UNL     1      36.051 -23.380 -14.601  0.00  0.00    +0.090 C 
ATOM     15  C   UNL     1      35.281 -24.205 -12.628  0.00  0.00    +0.161 C 
ATOM     16  C   UNL     1      37.557 -23.792 -12.949  0.00  0.00    +0.104 C 
ATOM     17  C   UNL     1      36.557 -24.231 -12.105  0.00  0.00    +0.001 C 
BRANCH  17  18
ATOM     18  C   UNL     1      36.836 -24.701 -10.727  0.00  0.00    +0.026 C 
ATOM     19  C   UNL     1      35.569 -24.823  -9.878  0.00  0.00    +0.005 C 
ENDBRANCH  17  18
ENDBRANCH   3   9
BRANCH   4  20
ATOM     20  C   UNL     1      35.389 -19.038 -22.471  0.00  0.00    +0.260 C 
BRANCH  20  21
ATOM     21  O   UNL     1      35.976 -17.879 -21.882  0.00  0.00    -0.468 OA
BRANCH  21  22
ATOM     22  C   UNL     1      35.274 -16.711 -21.998  0.00  0.00    +0.139 C 
ATOM     23  C   UNL     1      34.846 -16.037 -20.854  0.00  0.00    +0.038 C 
ATOM     24  C   UNL     1      34.986 -16.192 -23.260  0.00  0.00    +0.038 C 
ATOM     25  C   UNL     1      33.841 -14.329 -22.234  0.00  0.00    +0.078 C 
ATOM     26  C   UNL     1      34.129 -14.847 -20.972  0.00  0.00    +0.020 C 
ATOM     27  C   UNL     1      34.269 -15.002 -23.379  0.00  0.00    +0.020 C 
BRANCH  25  28
ATOM     28  N   UNL     1      33.130 -13.148 -22.352  0.00  0.00    -0.149 N 
ATOM     29  N   UNL     1      33.471 -12.190 -23.224  0.00  0.00    -0.048 NA
ATOM     30  N   UNL     1      31.665 -11.574 -22.070  0.00  0.00    -0.107 NA
ATOM     31  N   UNL     1      32.572 -11.229 -23.048  0.00  0.00    -0.024 NA
ATOM     32  C   UNL     1      32.029 -12.765 -21.653  0.00  0.00    +0.215 C 
ENDBRANCH  25  28
ENDBRANCH  21  22
ENDBRANCH  20  21
ENDBRANCH   4  20
TORSDOF 6
ENDMDL
MODEL 7
REMARK VINA RESULT:     -10.7      7.464     11.877
REMARK  Name = 25025505
REMARK  6 active torsions:
REMARK  status: ('A' for Active; 'I' for Inactive)
REMARK    1  A    between atoms: C_3  and  C_9
REMARK    2  A    between atoms: C_4  and  C_20
REMARK    3  A    between atoms: C_17  and  C_18
REMARK    4  A    between atoms: C_20  and  O_21
REMARK    5  A    between atoms: O_21  and  C_22
REMARK    6  A    between atoms: C_25  and  N_28
REMARK                            x       y       z     vdW  Elec       q    Type
REMARK                         _______ _______ _______ _____ _____    ______ ____
ROOT
ATOM      1  S   UNL     1      33.355 -14.166 -20.770  0.00  0.00    -0.079 S 
ATOM      2  N   UNL     1      34.269 -14.318 -23.183  0.00  0.00    -0.404 NA
ATOM      3  C   UNL     1      33.548 -13.578 -22.370  0.00  0.00    +0.134 C 
ATOM      4  C   UNL     1      34.706 -15.435 -22.499  0.00  0.00    +0.142 C 
ATOM      5  C   UNL     1      34.312 -15.528 -21.181  0.00  0.00    +0.122 C 
ENDROOT
BRANCH   3   9
ATOM      6  N   UNL     1      32.459  -9.406 -22.634  0.00  0.00    -0.253 N 
ATOM      7  N   UNL     1      33.148  -7.260 -23.247  0.00  0.00    -0.203 NA
ATOM      8  N   UNL     1      31.092  -7.607 -22.040  0.00  0.00    -0.181 NA
ATOM      9  C   UNL     1      32.893 -12.265 -22.758  0.00  0.00    +0.062 C 
ATOM     10  C   UNL     1      32.164 -11.611 -21.576  0.00  0.00    +0.030 C 
ATOM     11  C   UNL     1      33.901 -11.270 -23.354  0.00  0.00    +0.030 C 
ATOM     12  C   UNL     1      31.492 -10.301 -21.989  0.00  0.00    +0.102 C 
ATOM     13  C   UNL     1      33.217  -9.966 -23.763  0.00  0.00    +0.102 C 
ATOM     14  C   UNL     1      32.222  -8.026 -22.642  0.00  0.00    +0.090 C 
ATOM     15  C   UNL     1      32.889  -5.935 -23.234  0.00  0.00    +0.161 C 
ATOM     16  C   UNL     1      30.896  -6.273 -22.063  0.00  0.00    +0.104 C 
ATOM     17  C   UNL     1      31.768  -5.379 -22.651  0.00  0.00    +0.001 C 
BRANCH  17  18
ATOM     18  C   UNL     1      31.519  -3.918 -22.658  0.00  0.00    +0.026 C 
ATOM     19  C   UNL     1      31.812  -3.264 -21.307  0.00  0.00    +0.005 C 
ENDBRANCH  17  18
ENDBRANCH   3   9
BRANCH   4  20
ATOM     20  C   UNL     1      35.540 -16.417 -23.220  0.00  0.00    +0.260 C 
BRANCH  20  21
ATOM     21  O   UNL     1      34.838 -17.653 -23.346  0.00  0.00    -0.468 OA
BRANCH  21  22
ATOM     22  C   UNL     1      35.007 -18.559 -22.335  0.00  0.00    +0.139 C 
ATOM     23  C   UNL     1      33.957 -19.403 -21.971  0.00  0.00    +0.038 C 
ATOM     24  C   UNL     1      36.228 -18.639 -21.667  0.00  0.00    +0.038 C 
ATOM     25  C   UNL     1      35.351 -20.405 -20.273  0.00  0.00    +0.078 C 
ATOM     26  C   UNL     1      34.129 -20.326 -20.940  0.00  0.00    +0.020 C 
ATOM     27  C   UNL     1      36.401 -19.562 -20.636  0.00  0.00    +0.020 C 
BRANCH  25  28
ATOM     28  N   UNL     1      35.522 -21.321 -19.250  0.00  0.00    -0.149 N 
ATOM     29  N   UNL     1      34.555 -22.173 -18.880  0.00  0.00    -0.048 NA
ATOM     30  N   UNL     1      36.373 -22.480 -17.627  0.00  0.00    -0.107 NA
ATOM     31  N   UNL     1      35.081 -22.879 -17.887  0.00  0.00    -0.024 NA
ATOM     32  C   UNL     1      36.625 -21.516 -18.481  0.00  0.00    +0.215 C 
ENDBRANCH  25  28
ENDBRANCH  21  22
ENDBRANCH  20  21
ENDBRANCH   4  20
TORSDOF 6
ENDMDL
MODEL 8
REMARK VINA RESULT:     -10.2     10.130     16.271
REMARK  Name = 25025505
REMARK  6 active torsions:
REMARK  status: ('A' for Active; 'I' for Inactive)
REMARK    1  A    between atoms: C_3  and  C_9
REMARK    2  A    between atoms: C_4  and  C_20
REMARK    3  A    between atoms: C_17  and  C_18
REMARK    4  A    between atoms: C_20  and  O_21
REMARK    5  A    between atoms: O_21  and  C_22
REMARK    6  A    between atoms: C_25  and  N_28
REMARK                            x       y       z     vdW  Elec       q    Type
REMARK                         _______ _______ _______ _____ _____    ______ ____
ROOT
ATOM      1  S   UNL     1      31.948  -9.146 -19.756  0.00  0.00    -0.079 S 
ATOM      2  N   UNL     1      31.586  -8.747 -22.283  0.00  0.00    -0.404 NA
ATOM      3  C   UNL     1      31.822  -9.675 -21.384  0.00  0.00    +0.134 C 
ATOM      4  C   UNL     1      31.496  -7.523 -21.650  0.00  0.00    +0.142 C 
ATOM      5  C   UNL     1      31.665  -7.539 -20.281  0.00  0.00    +0.122 C 
ENDROOT
BRANCH   3   9
ATOM      6  N   UNL     1      33.440 -13.641 -21.936  0.00  0.00    -0.253 N 
ATOM      7  N   UNL     1      34.347 -15.525 -20.895  0.00  0.00    -0.203 NA
ATOM      8  N   UNL     1      34.365 -15.302 -23.294  0.00  0.00    -0.181 NA
ATOM      9  C   UNL     1      31.985 -11.151 -21.695  0.00  0.00    +0.062 C 
ATOM     10  C   UNL     1      32.985 -11.393 -22.836  0.00  0.00    +0.030 C 
ATOM     11  C   UNL     1      32.410 -11.958 -20.460  0.00  0.00    +0.030 C 
ATOM     12  C   UNL     1      33.121 -12.883 -23.152  0.00  0.00    +0.102 C 
ATOM     13  C   UNL     1      32.542 -13.446 -20.789  0.00  0.00    +0.102 C 
ATOM     14  C   UNL     1      34.080 -14.882 -22.047  0.00  0.00    +0.090 C 
ATOM     15  C   UNL     1      34.966 -16.716 -21.038  0.00  0.00    +0.161 C 
ATOM     16  C   UNL     1      34.983 -16.499 -23.363  0.00  0.00    +0.104 C 
ATOM     17  C   UNL     1      35.312 -17.258 -22.259  0.00  0.00    +0.001 C 
BRANCH  17  18
ATOM     18  C   UNL     1      35.992 -18.570 -22.375  0.00  0.00    +0.026 C 
ATOM     19  C   UNL     1      36.643 -19.015 -21.064  0.00  0.00    +0.005 C 
ENDBRANCH  17  18
ENDBRANCH   3   9
BRANCH   4  20
ATOM     20  C   UNL     1      31.233  -6.325 -22.471  0.00  0.00    +0.260 C 
BRANCH  20  21
ATOM     21  O   UNL     1      32.431  -5.566 -22.626  0.00  0.00    -0.468 OA
BRANCH  21  22
ATOM     22  C   UNL     1      33.089  -5.696 -23.818  0.00  0.00    +0.139 C 
ATOM     23  C   UNL     1      32.509  -5.212 -24.991  0.00  0.00    +0.038 C 
ATOM     24  C   UNL     1      34.339  -6.311 -23.862  0.00  0.00    +0.038 C 
ATOM     25  C   UNL     1      34.429  -5.960 -26.250  0.00  0.00    +0.078 C 
ATOM     26  C   UNL     1      33.178  -5.345 -26.207  0.00  0.00    +0.020 C 
ATOM     27  C   UNL     1      35.010  -6.444 -25.078  0.00  0.00    +0.020 C 
BRANCH  25  28
ATOM     28  N   UNL     1      35.093  -6.092 -27.456  0.00  0.00    -0.149 N 
ATOM     29  N   UNL     1      34.478  -6.503 -28.574  0.00  0.00    -0.048 NA
ATOM     30  N   UNL     1      36.631  -6.096 -28.985  0.00  0.00    -0.107 NA
ATOM     31  N   UNL     1      35.423  -6.503 -29.506  0.00  0.00    -0.024 NA
ATOM     32  C   UNL     1      36.404  -5.846 -27.717  0.00  0.00    +0.215 C 
ENDBRANCH  25  28
ENDBRANCH  21  22
ENDBRANCH  20  21
ENDBRANCH   4  20
TORSDOF 6
ENDMDL
MODEL 9
REMARK VINA RESULT:     -10.0      9.436     14.418
REMARK  Name = 25025505
REMARK  6 active torsions:
REMARK  status: ('A' for Active; 'I' for Inactive)
REMARK    1  A    between atoms: C_3  and  C_9
REMARK    2  A    between atoms: C_4  and  C_20
REMARK    3  A    between atoms: C_17  and  C_18
REMARK    4  A    between atoms: C_20  and  O_21
REMARK    5  A    between atoms: O_21  and  C_22
REMARK    6  A    between atoms: C_25  and  N_28
REMARK                            x       y       z     vdW  Elec       q    Type
REMARK                         _______ _______ _______ _____ _____    ______ ____
ROOT
ATOM      1  S   UNL     1      31.763 -10.137 -21.270  0.00  0.00    -0.079 S 
ATOM      2  N   UNL     1      33.045 -11.094 -23.300  0.00  0.00    -0.404 NA
ATOM      3  C   UNL     1      32.702  -9.978 -22.697  0.00  0.00    +0.134 C 
ATOM      4  C   UNL     1      32.531 -12.161 -22.590  0.00  0.00    +0.142 C 
ATOM      5  C   UNL     1      31.808 -11.841 -21.460  0.00  0.00    +0.122 C 
ENDROOT
BRANCH   3   9
ATOM      6  N   UNL     1      33.976  -6.633 -25.116  0.00  0.00    -0.253 N 
ATOM      7  N   UNL     1      33.466  -5.246 -26.925  0.00  0.00    -0.203 NA
ATOM      8  N   UNL     1      35.631  -5.168 -25.871  0.00  0.00    -0.181 NA
ATOM      9  C   UNL     1      33.082  -8.590 -23.180  0.00  0.00    +0.062 C 
ATOM     10  C   UNL     1      34.547  -8.517 -23.634  0.00  0.00    +0.030 C 
ATOM     11  C   UNL     1      32.168  -8.103 -24.314  0.00  0.00    +0.030 C 
ATOM     12  C   UNL     1      34.919  -7.107 -24.096  0.00  0.00    +0.102 C 
ATOM     13  C   UNL     1      32.550  -6.693 -24.766  0.00  0.00    +0.102 C 
ATOM     14  C   UNL     1      34.376  -5.635 -26.012  0.00  0.00    +0.090 C 
ATOM     15  C   UNL     1      33.886  -4.284 -27.773  0.00  0.00    +0.161 C 
ATOM     16  C   UNL     1      35.985  -4.209 -26.752  0.00  0.00    +0.104 C 
ATOM     17  C   UNL     1      35.146  -3.724 -27.734  0.00  0.00    +0.001 C 
BRANCH  17  18
ATOM     18  C   UNL     1      35.569  -2.668 -28.685  0.00  0.00    +0.026 C 
ATOM     19  C   UNL     1      37.015  -2.843 -29.154  0.00  0.00    +0.005 C 
ENDBRANCH  17  18
ENDBRANCH   3   9
BRANCH   4  20
ATOM     20  C   UNL     1      32.793 -13.526 -23.087  0.00  0.00    +0.260 C 
BRANCH  20  21
ATOM     21  O   UNL     1      34.191 -13.807 -23.029  0.00  0.00    -0.468 OA
BRANCH  21  22
ATOM     22  C   UNL     1      34.551 -15.015 -22.499  0.00  0.00    +0.139 C 
ATOM     23  C   UNL     1      34.570 -15.193 -21.115  0.00  0.00    +0.038 C 
ATOM     24  C   UNL     1      34.898 -16.071 -23.341  0.00  0.00    +0.038 C 
ATOM     25  C   UNL     1      35.286 -17.480 -21.418  0.00  0.00    +0.078 C 
ATOM     26  C   UNL     1      34.938 -16.425 -20.575  0.00  0.00    +0.020 C 
ATOM     27  C   UNL     1      35.266 -17.304 -22.802  0.00  0.00    +0.020 C 
BRANCH  25  28
ATOM     28  N   UNL     1      35.650 -18.702 -20.882  0.00  0.00    -0.149 N 
ATOM     29  N   UNL     1      36.818 -18.889 -20.252  0.00  0.00    -0.048 NA
ATOM     30  N   UNL     1      35.645 -20.785 -20.279  0.00  0.00    -0.107 NA
ATOM     31  N   UNL     1      36.810 -20.165 -19.885  0.00  0.00    -0.024 NA
ATOM     32  C   UNL     1      34.942 -19.862 -20.893  0.00  0.00    +0.215 C 
ENDBRANCH  25  28
ENDBRANCH  21  22
ENDBRANCH  20  21
ENDBRANCH   4  20
TORSDOF 6
ENDMDL
