MODEL 1
REMARK VINA RESULT:     -12.0      0.000      0.000
REMARK  Name = 11507920
REMARK  4 active torsions:
REMARK  status: ('A' for Active; 'I' for Inactive)
REMARK    1  A    between atoms: C_1  and  C_8
REMARK    2  A    between atoms: C_2  and  C_17
REMARK    3  A    between atoms: C_17  and  N_18
REMARK    4  A    between atoms: N_18  and  C_21
REMARK                            x       y       z     vdW  Elec       q    Type
REMARK                         _______ _______ _______ _____ _____    ______ ____
ROOT
ATOM      1  C   UNL     1      34.654 -19.300 -21.886  0.00  0.00    -0.000 C 
ATOM      2  C   UNL     1      34.920 -17.043 -22.704  0.00  0.00    -0.003 C 
ATOM      3  C   UNL     1      34.945 -17.957 -21.650  0.00  0.00    -0.003 C 
ATOM      4  C   UNL     1      34.337 -19.731 -23.174  0.00  0.00    -0.000 C 
ATOM      5  C   UNL     1      34.603 -17.473 -23.993  0.00  0.00    -0.003 C 
ATOM      6  C   UNL     1      34.311 -18.817 -24.227  0.00  0.00    -0.000 C 
ENDROOT
BRANCH   1   8
ATOM      7  N   UNL     1      32.537 -22.254 -18.501  0.00  0.00    -0.312 N 
ATOM      8  C   UNL     1      34.679 -20.249 -20.792  0.00  0.00    +0.001 C 
ATOM      9  C   UNL     1      33.542 -21.633 -19.207  0.00  0.00    +0.048 C 
ATOM     10  C   UNL     1      34.754 -22.081 -18.676  0.00  0.00    +0.015 C 
ATOM     11  C   UNL     1      33.474 -20.718 -20.263  0.00  0.00    +0.015 C 
ATOM     12  C   UNL     1      35.903 -20.678 -20.282  0.00  0.00    +0.000 C 
ATOM     13  C   UNL     1      35.957 -21.593 -19.225  0.00  0.00    +0.001 C 
ATOM     14  C   UNL     1      34.439 -22.992 -17.630  0.00  0.00    +0.017 C 
ATOM     15  C   UNL     1      33.069 -23.077 -17.546  0.00  0.00    +0.062 C 
ATOM     16  H   UNL     1      31.574 -22.125 -18.661  0.00  0.00    +0.152 HD
ENDBRANCH   1   8
BRANCH   2  17
ATOM     17  C   UNL     1      35.231 -15.606 -22.454  0.00  0.00    +0.114 C 
BRANCH  17  18
ATOM     18  N   UNL     1      34.240 -14.726 -23.018  0.00  0.00    -0.327 N 
ATOM     19  H   UNL     1      34.139 -14.708 -23.997  0.00  0.00    +0.147 HD
BRANCH  18  21
ATOM     20  N   UNL     1      32.138 -11.845 -22.018  0.00  0.00    -0.228 NA
ATOM     21  C   UNL     1      33.419 -13.902 -22.261  0.00  0.00    +0.077 C 
ATOM     22  C   UNL     1      32.939 -12.675 -22.724  0.00  0.00    +0.139 C 
ATOM     23  C   UNL     1      33.028 -14.279 -20.970  0.00  0.00    +0.019 C 
ATOM     24  C   UNL     1      32.205 -13.452 -20.213  0.00  0.00    +0.022 C 
ATOM     25  C   UNL     1      31.791 -12.256 -20.778  0.00  0.00    +0.100 C 
ATOM     26  N   UNL     1      33.322 -12.270 -24.027  0.00  0.00    -0.342 N 
ATOM     27  H   UNL     1      33.003 -11.412 -24.389  0.00  0.00    +0.144 HD
ATOM     28  H   UNL     1      33.905 -12.847 -24.572  0.00  0.00    +0.144 HD
ENDBRANCH  18  21
ENDBRANCH  17  18
ENDBRANCH   2  17
TORSDOF 4
ENDMDL
MODEL 2
REMARK VINA RESULT:     -11.8      2.360      8.929
REMARK  Name = 11507920
REMARK  4 active torsions:
REMARK  status: ('A' for Active; 'I' for Inactive)
REMARK    1  A    between atoms: C_1  and  C_8
REMARK    2  A    between atoms: C_2  and  C_17
REMARK    3  A    between atoms: C_17  and  N_18
REMARK    4  A    between atoms: N_18  and  C_21
REMARK                            x       y       z     vdW  Elec       q    Type
REMARK                         _______ _______ _______ _____ _____    ______ ____
ROOT
ATOM      1  C   UNL     1      35.181 -20.317 -20.514  0.00  0.00    -0.000 C 
ATOM      2  C   UNL     1      34.252 -21.883 -18.927  0.00  0.00    -0.003 C 
ATOM      3  C   UNL     1      34.077 -20.965 -19.963  0.00  0.00    -0.003 C 
ATOM      4  C   UNL     1      36.461 -20.585 -20.031  0.00  0.00    -0.000 C 
ATOM      5  C   UNL     1      35.533 -22.152 -18.443  0.00  0.00    -0.003 C 
ATOM      6  C   UNL     1      36.638 -21.502 -18.995  0.00  0.00    -0.000 C 
ENDROOT
BRANCH   1   8
ATOM      7  N   UNL     1      35.052 -15.738 -22.432  0.00  0.00    -0.312 N 
ATOM      8  C   UNL     1      34.999 -19.363 -21.588  0.00  0.00    +0.001 C 
ATOM      9  C   UNL     1      34.967 -17.111 -22.393  0.00  0.00    +0.048 C 
ATOM     10  C   UNL     1      34.640 -17.539 -23.682  0.00  0.00    +0.015 C 
ATOM     11  C   UNL     1      35.152 -17.999 -21.328  0.00  0.00    +0.015 C 
ATOM     12  C   UNL     1      34.673 -19.819 -22.865  0.00  0.00    +0.000 C 
ATOM     13  C   UNL     1      34.490 -18.920 -23.921  0.00  0.00    +0.001 C 
ATOM     14  C   UNL     1      34.533 -16.375 -24.493  0.00  0.00    +0.017 C 
ATOM     15  C   UNL     1      34.791 -15.284 -23.696  0.00  0.00    +0.062 C 
ATOM     16  H   UNL     1      35.269 -15.165 -21.661  0.00  0.00    +0.152 HD
ENDBRANCH   1   8
BRANCH   2  17
ATOM     17  C   UNL     1      33.072 -22.577 -18.336  0.00  0.00    +0.114 C 
BRANCH  17  18
ATOM     18  N   UNL     1      33.443 -23.486 -17.282  0.00  0.00    -0.327 N 
ATOM     19  H   UNL     1      34.188 -24.108 -17.447  0.00  0.00    +0.147 HD
BRANCH  18  21
ATOM     20  N   UNL     1      32.889 -23.963 -13.651  0.00  0.00    -0.228 NA
ATOM     21  C   UNL     1      32.811 -23.535 -16.047  0.00  0.00    +0.077 C 
ATOM     22  C   UNL     1      33.468 -23.904 -14.871  0.00  0.00    +0.139 C 
ATOM     23  C   UNL     1      31.454 -23.207 -15.929  0.00  0.00    +0.019 C 
ATOM     24  C   UNL     1      30.823 -23.257 -14.691  0.00  0.00    +0.022 C 
ATOM     25  C   UNL     1      31.578 -23.637 -13.592  0.00  0.00    +0.100 C 
ATOM     26  N   UNL     1      34.841 -24.242 -14.965  0.00  0.00    -0.342 N 
ATOM     27  H   UNL     1      35.339 -24.506 -14.158  0.00  0.00    +0.144 HD
ATOM     28  H   UNL     1      35.298 -24.210 -15.837  0.00  0.00    +0.144 HD
ENDBRANCH  18  21
ENDBRANCH  17  18
ENDBRANCH   2  17
TORSDOF 4
ENDMDL
MODEL 3
REMARK VINA RESULT:     -11.7      2.307      8.721
REMARK  Name = 11507920
REMARK  4 active torsions:
REMARK  status: ('A' for Active; 'I' for Inactive)
REMARK    1  A    between atoms: C_1  and  C_8
REMARK    2  A    between atoms: C_2  and  C_17
REMARK    3  A    between atoms: C_17  and  N_18
REMARK    4  A    between atoms: N_18  and  C_21
REMARK                            x       y       z     vdW  Elec       q    Type
REMARK                         _______ _______ _______ _____ _____    ______ ____
ROOT
ATOM      1  C   UNL     1      35.341 -20.268 -20.558  0.00  0.00    -0.000 C 
ATOM      2  C   UNL     1      34.596 -22.134 -19.218  0.00  0.00    -0.003 C 
ATOM      3  C   UNL     1      34.364 -21.209 -20.237  0.00  0.00    -0.003 C 
ATOM      4  C   UNL     1      36.550 -20.250 -19.863  0.00  0.00    -0.000 C 
ATOM      5  C   UNL     1      35.804 -22.116 -18.522  0.00  0.00    -0.003 C 
ATOM      6  C   UNL     1      36.781 -21.174 -18.844  0.00  0.00    -0.000 C 
ENDROOT
BRANCH   1   8
ATOM      7  N   UNL     1      35.037 -15.672 -22.417  0.00  0.00    -0.312 N 
ATOM      8  C   UNL     1      35.100 -19.307 -21.615  0.00  0.00    +0.001 C 
ATOM      9  C   UNL     1      34.987 -17.048 -22.392  0.00  0.00    +0.048 C 
ATOM     10  C   UNL     1      34.628 -17.469 -23.674  0.00  0.00    +0.015 C 
ATOM     11  C   UNL     1      35.229 -17.942 -21.343  0.00  0.00    +0.015 C 
ATOM     12  C   UNL     1      34.743 -19.757 -22.885  0.00  0.00    +0.000 C 
ATOM     13  C   UNL     1      34.504 -18.851 -23.924  0.00  0.00    +0.001 C 
ATOM     14  C   UNL     1      34.467 -16.299 -24.467  0.00  0.00    +0.017 C 
ATOM     15  C   UNL     1      34.724 -15.211 -23.666  0.00  0.00    +0.062 C 
ATOM     16  H   UNL     1      35.266 -15.103 -21.647  0.00  0.00    +0.152 HD
ENDBRANCH   1   8
BRANCH   2  17
ATOM     17  C   UNL     1      33.551 -23.141 -18.872  0.00  0.00    +0.114 C 
BRANCH  17  18
ATOM     18  N   UNL     1      32.626 -22.651 -17.883  0.00  0.00    -0.327 N 
ATOM     19  H   UNL     1      32.036 -21.902 -18.130  0.00  0.00    +0.147 HD
BRANCH  18  21
ATOM     20  N   UNL     1      31.150 -23.826 -14.696  0.00  0.00    -0.228 NA
ATOM     21  C   UNL     1      32.518 -23.174 -16.601  0.00  0.00    +0.077 C 
ATOM     22  C   UNL     1      31.296 -23.321 -15.941  0.00  0.00    +0.139 C 
ATOM     23  C   UNL     1      33.660 -23.587 -15.903  0.00  0.00    +0.019 C 
ATOM     24  C   UNL     1      33.549 -24.111 -14.620  0.00  0.00    +0.022 C 
ATOM     25  C   UNL     1      32.283 -24.209 -14.065  0.00  0.00    +0.100 C 
ATOM     26  N   UNL     1      30.126 -22.908 -16.627  0.00  0.00    -0.342 N 
ATOM     27  H   UNL     1      29.246 -22.996 -16.194  0.00  0.00    +0.144 HD
ATOM     28  H   UNL     1      30.193 -22.536 -17.535  0.00  0.00    +0.144 HD
ENDBRANCH  18  21
ENDBRANCH  17  18
ENDBRANCH   2  17
TORSDOF 4
ENDMDL
MODEL 4
REMARK VINA RESULT:     -11.4      1.511      2.618
REMARK  Name = 11507920
REMARK  4 active torsions:
REMARK  status: ('A' for Active; 'I' for Inactive)
REMARK    1  A    between atoms: C_1  and  C_8
REMARK    2  A    between atoms: C_2  and  C_17
REMARK    3  A    between atoms: C_17  and  N_18
REMARK    4  A    between atoms: N_18  and  C_21
REMARK                            x       y       z     vdW  Elec       q    Type
REMARK                         _______ _______ _______ _____ _____    ______ ____
ROOT
ATOM      1  C   UNL     1      35.385 -20.199 -20.526  0.00  0.00    -0.000 C 
ATOM      2  C   UNL     1      35.399 -18.810 -22.502  0.00  0.00    -0.003 C 
ATOM      3  C   UNL     1      34.712 -19.631 -21.606  0.00  0.00    -0.003 C 
ATOM      4  C   UNL     1      36.744 -19.950 -20.339  0.00  0.00    -0.000 C 
ATOM      5  C   UNL     1      36.759 -18.561 -22.316  0.00  0.00    -0.003 C 
ATOM      6  C   UNL     1      37.432 -19.132 -21.234  0.00  0.00    -0.000 C 
ENDROOT
BRANCH   1   8
ATOM      7  N   UNL     1      35.084 -23.337 -16.688  0.00  0.00    -0.312 N 
ATOM      8  C   UNL     1      34.671 -21.051 -19.597  0.00  0.00    +0.001 C 
ATOM      9  C   UNL     1      34.657 -22.554 -17.736  0.00  0.00    +0.048 C 
ATOM     10  C   UNL     1      33.269 -22.693 -17.814  0.00  0.00    +0.015 C 
ATOM     11  C   UNL     1      35.384 -21.742 -18.613  0.00  0.00    +0.015 C 
ATOM     12  C   UNL     1      33.286 -21.171 -19.699  0.00  0.00    +0.000 C 
ATOM     13  C   UNL     1      32.572 -21.988 -18.815  0.00  0.00    +0.001 C 
ATOM     14  C   UNL     1      32.881 -23.585 -16.776  0.00  0.00    +0.017 C 
ATOM     15  C   UNL     1      34.018 -23.964 -16.102  0.00  0.00    +0.062 C 
ATOM     16  H   UNL     1      36.021 -23.433 -16.401  0.00  0.00    +0.152 HD
ENDBRANCH   1   8
BRANCH   2  17
ATOM     17  C   UNL     1      34.682 -18.201 -23.658  0.00  0.00    +0.114 C 
BRANCH  17  18
ATOM     18  N   UNL     1      35.066 -16.831 -23.880  0.00  0.00    -0.327 N 
ATOM     19  H   UNL     1      35.796 -16.650 -24.516  0.00  0.00    +0.147 HD
BRANCH  18  21
ATOM     20  N   UNL     1      32.968 -13.832 -23.311  0.00  0.00    -0.228 NA
ATOM     21  C   UNL     1      34.468 -15.749 -23.248  0.00  0.00    +0.077 C 
ATOM     22  C   UNL     1      33.571 -14.893 -23.892  0.00  0.00    +0.139 C 
ATOM     23  C   UNL     1      34.745 -15.468 -21.904  0.00  0.00    +0.019 C 
ATOM     24  C   UNL     1      34.144 -14.385 -21.273  0.00  0.00    +0.022 C 
ATOM     25  C   UNL     1      33.270 -13.605 -22.013  0.00  0.00    +0.100 C 
ATOM     26  N   UNL     1      33.276 -15.156 -25.253  0.00  0.00    -0.342 N 
ATOM     27  H   UNL     1      32.649 -14.575 -25.741  0.00  0.00    +0.144 HD
ATOM     28  H   UNL     1      33.696 -15.920 -25.710  0.00  0.00    +0.144 HD
ENDBRANCH  18  21
ENDBRANCH  17  18
ENDBRANCH   2  17
TORSDOF 4
ENDMDL
MODEL 5
REMARK VINA RESULT:     -11.3      1.835      8.613
REMARK  Name = 11507920
REMARK  4 active torsions:
REMARK  status: ('A' for Active; 'I' for Inactive)
REMARK    1  A    between atoms: C_1  and  C_8
REMARK    2  A    between atoms: C_2  and  C_17
REMARK    3  A    between atoms: C_17  and  N_18
REMARK    4  A    between atoms: N_18  and  C_21
REMARK                            x       y       z     vdW  Elec       q    Type
REMARK                         _______ _______ _______ _____ _____    ______ ____
ROOT
ATOM      1  C   UNL     1      35.443 -18.589 -21.683  0.00  0.00    -0.000 C 
ATOM      2  C   UNL     1      35.015 -20.499 -20.268  0.00  0.00    -0.003 C 
ATOM      3  C   UNL     1      34.550 -19.506 -21.131  0.00  0.00    -0.003 C 
ATOM      4  C   UNL     1      36.801 -18.662 -21.374  0.00  0.00    -0.000 C 
ATOM      5  C   UNL     1      36.373 -20.572 -19.957  0.00  0.00    -0.003 C 
ATOM      6  C   UNL     1      37.266 -19.653 -20.509  0.00  0.00    -0.000 C 
ENDROOT
BRANCH   1   8
ATOM      7  N   UNL     1      34.277 -13.910 -22.874  0.00  0.00    -0.312 N 
ATOM      8  C   UNL     1      34.960 -17.558 -22.578  0.00  0.00    +0.001 C 
ATOM      9  C   UNL     1      34.435 -15.269 -23.031  0.00  0.00    +0.048 C 
ATOM     10  C   UNL     1      34.022 -15.583 -24.328  0.00  0.00    +0.015 C 
ATOM     11  C   UNL     1      34.908 -16.234 -22.135  0.00  0.00    +0.015 C 
ATOM     12  C   UNL     1      34.554 -17.901 -23.867  0.00  0.00    +0.000 C 
ATOM     13  C   UNL     1      34.082 -16.926 -24.752  0.00  0.00    +0.001 C 
ATOM     14  C   UNL     1      33.611 -14.367 -24.941  0.00  0.00    +0.017 C 
ATOM     15  C   UNL     1      33.779 -13.357 -24.022  0.00  0.00    +0.062 C 
ATOM     16  H   UNL     1      34.491 -13.409 -22.053  0.00  0.00    +0.152 HD
ENDBRANCH   1   8
BRANCH   2  17
ATOM     17  C   UNL     1      34.061 -21.480 -19.676  0.00  0.00    +0.114 C 
BRANCH  17  18
ATOM     18  N   UNL     1      34.730 -22.490 -18.896  0.00  0.00    -0.327 N 
ATOM     19  H   UNL     1      35.492 -22.962 -19.303  0.00  0.00    +0.147 HD
BRANCH  18  21
ATOM     20  N   UNL     1      34.925 -23.126 -15.252  0.00  0.00    -0.228 NA
ATOM     21  C   UNL     1      34.361 -22.838 -17.603  0.00  0.00    +0.077 C 
ATOM     22  C   UNL     1      35.246 -22.798 -16.524  0.00  0.00    +0.139 C 
ATOM     23  C   UNL     1      33.052 -23.250 -17.324  0.00  0.00    +0.019 C 
ATOM     24  C   UNL     1      32.684 -23.597 -16.029  0.00  0.00    +0.022 C 
ATOM     25  C   UNL     1      33.649 -23.519 -15.037  0.00  0.00    +0.100 C 
ATOM     26  N   UNL     1      36.577 -22.385 -16.782  0.00  0.00    -0.342 N 
ATOM     27  H   UNL     1      37.230 -22.343 -16.046  0.00  0.00    +0.144 HD
ATOM     28  H   UNL     1      36.849 -22.138 -17.695  0.00  0.00    +0.144 HD
ENDBRANCH  18  21
ENDBRANCH  17  18
ENDBRANCH   2  17
TORSDOF 4
ENDMDL
MODEL 6
REMARK VINA RESULT:     -11.1      1.861      8.276
REMARK  Name = 11507920
REMARK  4 active torsions:
REMARK  status: ('A' for Active; 'I' for Inactive)
REMARK    1  A    between atoms: C_1  and  C_8
REMARK    2  A    between atoms: C_2  and  C_17
REMARK    3  A    between atoms: C_17  and  N_18
REMARK    4  A    between atoms: N_18  and  C_21
REMARK                            x       y       z     vdW  Elec       q    Type
REMARK                         _______ _______ _______ _____ _____    ______ ____
ROOT
ATOM      1  C   UNL     1      34.073 -15.290 -23.164  0.00  0.00    -0.000 C 
ATOM      2  C   UNL     1      35.172 -17.250 -22.279  0.00  0.00    -0.003 C 
ATOM      3  C   UNL     1      34.662 -15.964 -22.096  0.00  0.00    -0.003 C 
ATOM      4  C   UNL     1      33.992 -15.898 -24.416  0.00  0.00    -0.000 C 
ATOM      5  C   UNL     1      35.092 -17.860 -23.531  0.00  0.00    -0.003 C 
ATOM      6  C   UNL     1      34.502 -17.183 -24.600  0.00  0.00    -0.000 C 
ENDROOT
BRANCH   1   8
ATOM      7  N   UNL     1      31.052 -11.948 -21.071  0.00  0.00    -0.312 N 
ATOM      8  C   UNL     1      33.545 -13.954 -22.974  0.00  0.00    +0.001 C 
ATOM      9  C   UNL     1      32.039 -12.442 -21.894  0.00  0.00    +0.048 C 
ATOM     10  C   UNL     1      32.542 -11.363 -22.625  0.00  0.00    +0.015 C 
ATOM     11  C   UNL     1      32.520 -13.747 -22.048  0.00  0.00    +0.015 C 
ATOM     12  C   UNL     1      34.067 -12.897 -23.717  0.00  0.00    +0.000 C 
ATOM     13  C   UNL     1      33.576 -11.596 -23.554  0.00  0.00    +0.001 C 
ATOM     14  C   UNL     1      31.824 -10.207 -22.210  0.00  0.00    +0.017 C 
ATOM     15  C   UNL     1      30.915 -10.600 -21.255  0.00  0.00    +0.062 C 
ATOM     16  H   UNL     1      30.522 -12.488 -20.441  0.00  0.00    +0.152 HD
ENDBRANCH   1   8
BRANCH   2  17
ATOM     17  C   UNL     1      35.803 -17.973 -21.138  0.00  0.00    +0.114 C 
BRANCH  17  18
ATOM     18  N   UNL     1      35.759 -19.403 -21.305  0.00  0.00    -0.327 N 
ATOM     19  H   UNL     1      36.341 -19.809 -21.987  0.00  0.00    +0.147 HD
BRANCH  18  21
ATOM     20  N   UNL     1      34.681 -22.040 -18.938  0.00  0.00    -0.228 NA
ATOM     21  C   UNL     1      34.942 -20.243 -20.560  0.00  0.00    +0.077 C 
ATOM     22  C   UNL     1      35.443 -21.206 -19.681  0.00  0.00    +0.139 C 
ATOM     23  C   UNL     1      33.548 -20.153 -20.662  0.00  0.00    +0.019 C 
ATOM     24  C   UNL     1      32.732 -20.995 -19.914  0.00  0.00    +0.022 C 
ATOM     25  C   UNL     1      33.342 -21.913 -19.074  0.00  0.00    +0.100 C 
ATOM     26  N   UNL     1      36.851 -21.317 -19.561  0.00  0.00    -0.342 N 
ATOM     27  H   UNL     1      37.242 -21.983 -18.952  0.00  0.00    +0.144 HD
ATOM     28  H   UNL     1      37.438 -20.727 -20.086  0.00  0.00    +0.144 HD
ENDBRANCH  18  21
ENDBRANCH  17  18
ENDBRANCH   2  17
TORSDOF 4
ENDMDL
MODEL 7
REMARK VINA RESULT:     -11.0      1.634      8.496
REMARK  Name = 11507920
REMARK  4 active torsions:
REMARK  status: ('A' for Active; 'I' for Inactive)
REMARK    1  A    between atoms: C_1  and  C_8
REMARK    2  A    between atoms: C_2  and  C_17
REMARK    3  A    between atoms: C_17  and  N_18
REMARK    4  A    between atoms: N_18  and  C_21
REMARK                            x       y       z     vdW  Elec       q    Type
REMARK                         _______ _______ _______ _____ _____    ______ ____
ROOT
ATOM      1  C   UNL     1      33.799 -14.936 -22.747  0.00  0.00    -0.000 C 
ATOM      2  C   UNL     1      34.962 -17.028 -22.418  0.00  0.00    -0.003 C 
ATOM      3  C   UNL     1      34.350 -15.889 -21.892  0.00  0.00    -0.003 C 
ATOM      4  C   UNL     1      33.860 -15.118 -24.128  0.00  0.00    -0.000 C 
ATOM      5  C   UNL     1      35.023 -17.211 -23.800  0.00  0.00    -0.003 C 
ATOM      6  C   UNL     1      34.472 -16.255 -24.655  0.00  0.00    -0.000 C 
ENDROOT
BRANCH   1   8
ATOM      7  N   UNL     1      32.162 -10.253 -22.969  0.00  0.00    -0.312 N 
ATOM      8  C   UNL     1      33.166 -13.754 -22.201  0.00  0.00    +0.001 C 
ATOM      9  C   UNL     1      32.421 -11.493 -22.431  0.00  0.00    +0.048 C 
ATOM     10  C   UNL     1      31.938 -11.481 -21.120  0.00  0.00    +0.015 C 
ATOM     11  C   UNL     1      33.039 -12.613 -22.997  0.00  0.00    +0.015 C 
ATOM     12  C   UNL     1      32.694 -13.771 -20.889  0.00  0.00    +0.000 C 
ATOM     13  C   UNL     1      32.078 -12.643 -20.335  0.00  0.00    +0.001 C 
ATOM     14  C   UNL     1      31.380 -10.192 -20.893  0.00  0.00    +0.017 C 
ATOM     15  C   UNL     1      31.534  -9.460 -22.047  0.00  0.00    +0.062 C 
ATOM     16  H   UNL     1      32.395  -9.976 -23.885  0.00  0.00    +0.152 HD
ENDBRANCH   1   8
BRANCH   2  17
ATOM     17  C   UNL     1      35.552 -18.049 -21.505  0.00  0.00    +0.114 C 
BRANCH  17  18
ATOM     18  N   UNL     1      34.751 -19.243 -21.430  0.00  0.00    -0.327 N 
ATOM     19  H   UNL     1      34.018 -19.352 -22.079  0.00  0.00    +0.147 HD
BRANCH  18  21
ATOM     20  N   UNL     1      34.059 -21.956 -19.005  0.00  0.00    -0.228 NA
ATOM     21  C   UNL     1      34.952 -20.251 -20.496  0.00  0.00    +0.077 C 
ATOM     22  C   UNL     1      33.904 -20.969 -19.916  0.00  0.00    +0.139 C 
ATOM     23  C   UNL     1      36.247 -20.596 -20.090  0.00  0.00    +0.019 C 
ATOM     24  C   UNL     1      36.446 -21.605 -19.154  0.00  0.00    +0.022 C 
ATOM     25  C   UNL     1      35.329 -22.249 -18.647  0.00  0.00    +0.100 C 
ATOM     26  N   UNL     1      32.584 -20.637 -20.311  0.00  0.00    -0.342 N 
ATOM     27  H   UNL     1      31.819 -21.122 -19.924  0.00  0.00    +0.144 HD
ATOM     28  H   UNL     1      32.431 -19.924 -20.971  0.00  0.00    +0.144 HD
ENDBRANCH  18  21
ENDBRANCH  17  18
ENDBRANCH   2  17
TORSDOF 4
ENDMDL
MODEL 8
REMARK VINA RESULT:     -11.0      1.850      8.615
REMARK  Name = 11507920
REMARK  4 active torsions:
REMARK  status: ('A' for Active; 'I' for Inactive)
REMARK    1  A    between atoms: C_1  and  C_8
REMARK    2  A    between atoms: C_2  and  C_17
REMARK    3  A    between atoms: C_17  and  N_18
REMARK    4  A    between atoms: N_18  and  C_21
REMARK                            x       y       z     vdW  Elec       q    Type
REMARK                         _______ _______ _______ _____ _____    ______ ____
ROOT
ATOM      1  C   UNL     1      35.480 -18.482 -21.827  0.00  0.00    -0.000 C 
ATOM      2  C   UNL     1      35.137 -20.361 -20.349  0.00  0.00    -0.003 C 
ATOM      3  C   UNL     1      34.623 -19.398 -21.217  0.00  0.00    -0.003 C 
ATOM      4  C   UNL     1      36.849 -18.527 -21.570  0.00  0.00    -0.000 C 
ATOM      5  C   UNL     1      36.508 -20.407 -20.091  0.00  0.00    -0.003 C 
ATOM      6  C   UNL     1      37.364 -19.490 -20.701  0.00  0.00    -0.000 C 
ENDROOT
BRANCH   1   8
ATOM      7  N   UNL     1      34.270 -13.841 -23.118  0.00  0.00    -0.312 N 
ATOM      8  C   UNL     1      34.945 -17.481 -22.728  0.00  0.00    +0.001 C 
ATOM      9  C   UNL     1      34.408 -15.206 -23.233  0.00  0.00    +0.048 C 
ATOM     10  C   UNL     1      33.907 -15.565 -24.486  0.00  0.00    +0.015 C 
ATOM     11  C   UNL     1      34.932 -16.141 -22.333  0.00  0.00    +0.015 C 
ATOM     12  C   UNL     1      34.452 -17.870 -23.972  0.00  0.00    +0.000 C 
ATOM     13  C   UNL     1      33.930 -16.924 -24.862  0.00  0.00    +0.001 C 
ATOM     14  C   UNL     1      33.465 -14.369 -25.117  0.00  0.00    +0.017 C 
ATOM     15  C   UNL     1      33.701 -13.327 -24.251  0.00  0.00    +0.062 C 
ATOM     16  H   UNL     1      34.541 -13.312 -22.333  0.00  0.00    +0.152 HD
ENDBRANCH   1   8
BRANCH   2  17
ATOM     17  C   UNL     1      34.223 -21.342 -19.695  0.00  0.00    +0.114 C 
BRANCH  17  18
ATOM     18  N   UNL     1      34.935 -22.454 -19.120  0.00  0.00    -0.327 N 
ATOM     19  H   UNL     1      35.299 -23.137 -19.729  0.00  0.00    +0.147 HD
BRANCH  18  21
ATOM     20  N   UNL     1      34.330 -23.334 -15.574  0.00  0.00    -0.228 NA
ATOM     21  C   UNL     1      35.138 -22.619 -17.757  0.00  0.00    +0.077 C 
ATOM     22  C   UNL     1      34.171 -23.156 -16.904  0.00  0.00    +0.139 C 
ATOM     23  C   UNL     1      36.353 -22.247 -17.168  0.00  0.00    +0.019 C 
ATOM     24  C   UNL     1      36.554 -22.414 -15.803  0.00  0.00    +0.022 C 
ATOM     25  C   UNL     1      35.521 -22.958 -15.056  0.00  0.00    +0.100 C 
ATOM     26  N   UNL     1      32.932 -23.540 -17.477  0.00  0.00    -0.342 N 
ATOM     27  H   UNL     1      32.225 -23.922 -16.908  0.00  0.00    +0.144 HD
ATOM     28  H   UNL     1      32.778 -23.425 -18.442  0.00  0.00    +0.144 HD
ENDBRANCH  18  21
ENDBRANCH  17  18
ENDBRANCH   2  17
TORSDOF 4
ENDMDL
MODEL 9
REMARK VINA RESULT:     -11.0      4.389      8.073
REMARK  Name = 11507920
REMARK  4 active torsions:
REMARK  status: ('A' for Active; 'I' for Inactive)
REMARK    1  A    between atoms: C_1  and  C_8
REMARK    2  A    between atoms: C_2  and  C_17
REMARK    3  A    between atoms: C_17  and  N_18
REMARK    4  A    between atoms: N_18  and  C_21
REMARK                            x       y       z     vdW  Elec       q    Type
REMARK                         _______ _______ _______ _____ _____    ______ ____
ROOT
ATOM      1  C   UNL     1      34.153 -23.659 -15.053  0.00  0.00    -0.000 C 
ATOM      2  C   UNL     1      36.071 -22.746 -16.204  0.00  0.00    -0.003 C 
ATOM      3  C   UNL     1      34.698 -22.987 -16.146  0.00  0.00    -0.003 C 
ATOM      4  C   UNL     1      34.980 -24.092 -14.017  0.00  0.00    -0.000 C 
ATOM      5  C   UNL     1      36.898 -23.180 -15.168  0.00  0.00    -0.003 C 
ATOM      6  C   UNL     1      36.353 -23.853 -14.075  0.00  0.00    -0.000 C 
ENDROOT
BRANCH   1   8
ATOM      7  N   UNL     1      29.462 -23.088 -16.582  0.00  0.00    -0.312 N 
ATOM      8  C   UNL     1      32.728 -23.909 -14.994  0.00  0.00    +0.001 C 
ATOM      9  C   UNL     1      30.513 -23.552 -15.823  0.00  0.00    +0.048 C 
ATOM     10  C   UNL     1      29.976 -24.409 -14.859  0.00  0.00    +0.015 C 
ATOM     11  C   UNL     1      31.883 -23.284 -15.914  0.00  0.00    +0.015 C 
ATOM     12  C   UNL     1      32.221 -24.768 -14.021  0.00  0.00    +0.000 C 
ATOM     13  C   UNL     1      30.848 -25.028 -13.940  0.00  0.00    +0.001 C 
ATOM     14  C   UNL     1      28.569 -24.441 -15.067  0.00  0.00    +0.017 C 
ATOM     15  C   UNL     1      28.284 -23.619 -16.132  0.00  0.00    +0.062 C 
ATOM     16  H   UNL     1      29.547 -22.463 -17.338  0.00  0.00    +0.152 HD
ENDBRANCH   1   8
BRANCH   2  17
ATOM     17  C   UNL     1      36.655 -22.027 -17.373  0.00  0.00    +0.114 C 
BRANCH  17  18
ATOM     18  N   UNL     1      35.945 -22.304 -18.595  0.00  0.00    -0.327 N 
ATOM     19  H   UNL     1      35.747 -23.243 -18.814  0.00  0.00    +0.147 HD
BRANCH  18  21
ATOM     20  N   UNL     1      33.745 -20.232 -20.736  0.00  0.00    -0.228 NA
ATOM     21  C   UNL     1      35.525 -21.323 -19.483  0.00  0.00    +0.077 C 
ATOM     22  C   UNL     1      34.193 -21.174 -19.877  0.00  0.00    +0.139 C 
ATOM     23  C   UNL     1      36.443 -20.419 -20.031  0.00  0.00    +0.019 C 
ATOM     24  C   UNL     1      36.020 -19.436 -20.919  0.00  0.00    +0.022 C 
ATOM     25  C   UNL     1      34.672 -19.385 -21.237  0.00  0.00    +0.100 C 
ATOM     26  N   UNL     1      33.244 -22.079 -19.337  0.00  0.00    -0.342 N 
ATOM     27  H   UNL     1      32.296 -22.006 -19.590  0.00  0.00    +0.144 HD
ATOM     28  H   UNL     1      33.533 -22.778 -18.707  0.00  0.00    +0.144 HD
ENDBRANCH  18  21
ENDBRANCH  17  18
ENDBRANCH   2  17
TORSDOF 4
ENDMDL
