MODEL 1
REMARK VINA RESULT:     -11.5      0.000      0.000
REMARK  Name = 11992146
REMARK  2 active torsions:
REMARK  status: ('A' for Active; 'I' for Inactive)
REMARK    1  A    between atoms: C_2  and  C_14
REMARK    2  A    between atoms: C_5  and  C_20
REMARK                            x       y       z     vdW  Elec       q    Type
REMARK                         _______ _______ _______ _____ _____    ______ ____
ROOT
ATOM      1  N   UNL     1      32.326 -22.664 -17.853  0.00  0.00    -0.244 NA
ATOM      2  C   UNL     1      34.054 -23.612 -15.873  0.00  0.00    +0.016 C 
ATOM      3  C   UNL     1      34.554 -22.871 -16.937  0.00  0.00    +0.020 C 
ATOM      4  C   UNL     1      32.693 -23.880 -15.796  0.00  0.00    +0.022 C 
ATOM      5  C   UNL     1      33.656 -22.424 -17.893  0.00  0.00    +0.084 C 
ATOM      6  C   UNL     1      31.878 -23.388 -16.804  0.00  0.00    +0.099 C 
ENDROOT
BRANCH   2  14
ATOM      7  O   UNL     1      37.297 -27.431 -13.350  0.00  0.00    -0.270 OA
ATOM      8  N   UNL     1      35.275 -23.348 -13.751  0.00  0.00    -0.316 N 
ATOM      9  N   UNL     1      37.911 -25.812 -11.820  0.00  0.00    -0.300 N 
ATOM     10  C   UNL     1      36.124 -24.066 -12.959  0.00  0.00    +0.031 C 
ATOM     11  C   UNL     1      36.694 -23.627 -11.665  0.00  0.00    +0.063 C 
ATOM     12  C   UNL     1      36.352 -25.290 -13.553  0.00  0.00    +0.064 C 
ATOM     13  C   UNL     1      38.002 -24.396 -11.443  0.00  0.00    +0.096 C 
ATOM     14  C   UNL     1      34.945 -24.103 -14.850  0.00  0.00    +0.048 C 
ATOM     15  C   UNL     1      35.597 -25.317 -14.750  0.00  0.00    +0.020 C 
ATOM     16  C   UNL     1      37.213 -26.279 -12.934  0.00  0.00    +0.247 C 
ATOM     17  H   UNL     1      34.951 -22.437 -13.563  0.00  0.00    +0.152 HD
ATOM     18  H   UNL     1      38.371 -26.472 -11.252  0.00  0.00    +0.150 HD
ENDBRANCH   2  14
BRANCH   5  20
ATOM     19  F   UNL     1      36.368 -22.231 -18.603  0.00  0.00    -0.204 F 
ATOM     20  C   UNL     1      34.101 -21.649 -19.027  0.00  0.00    +0.045 C 
ATOM     21  C   UNL     1      35.460 -21.579 -19.342  0.00  0.00    +0.142 C 
ATOM     22  C   UNL     1      33.171 -20.964 -19.811  0.00  0.00    +0.004 C 
ATOM     23  C   UNL     1      35.886 -20.826 -20.437  0.00  0.00    +0.030 C 
ATOM     24  C   UNL     1      33.596 -20.211 -20.904  0.00  0.00    +0.000 C 
ATOM     25  C   UNL     1      34.954 -20.141 -21.218  0.00  0.00    +0.002 C 
ENDBRANCH   5  20
TORSDOF 2
ENDMDL
MODEL 2
REMARK VINA RESULT:     -11.2      1.226      1.644
REMARK  Name = 11992146
REMARK  2 active torsions:
REMARK  status: ('A' for Active; 'I' for Inactive)
REMARK    1  A    between atoms: C_2  and  C_14
REMARK    2  A    between atoms: C_5  and  C_20
REMARK                            x       y       z     vdW  Elec       q    Type
REMARK                         _______ _______ _______ _____ _____    ______ ____
ROOT
ATOM      1  N   UNL     1      32.439 -22.692 -17.875  0.00  0.00    -0.244 NA
ATOM      2  C   UNL     1      34.264 -23.541 -15.937  0.00  0.00    +0.016 C 
ATOM      3  C   UNL     1      34.698 -22.782 -17.018  0.00  0.00    +0.020 C 
ATOM      4  C   UNL     1      32.921 -23.876 -15.823  0.00  0.00    +0.022 C 
ATOM      5  C   UNL     1      33.753 -22.386 -17.952  0.00  0.00    +0.084 C 
ATOM      6  C   UNL     1      32.055 -23.431 -16.811  0.00  0.00    +0.099 C 
ENDROOT
BRANCH   2  14
ATOM      7  O   UNL     1      37.920 -22.853 -11.739  0.00  0.00    -0.270 OA
ATOM      8  N   UNL     1      35.584 -25.295 -14.821  0.00  0.00    -0.316 N 
ATOM      9  N   UNL     1      38.086 -25.153 -11.587  0.00  0.00    -0.300 N 
ATOM     10  C   UNL     1      36.481 -25.410 -13.798  0.00  0.00    +0.031 C 
ATOM     11  C   UNL     1      37.154 -26.654 -13.362  0.00  0.00    +0.063 C 
ATOM     12  C   UNL     1      36.680 -24.163 -13.243  0.00  0.00    +0.064 C 
ATOM     13  C   UNL     1      37.548 -26.484 -11.890  0.00  0.00    +0.096 C 
ATOM     14  C   UNL     1      35.206 -23.979 -14.936  0.00  0.00    +0.048 C 
ATOM     15  C   UNL     1      35.877 -23.252 -13.972  0.00  0.00    +0.020 C 
ATOM     16  C   UNL     1      37.595 -23.968 -12.136  0.00  0.00    +0.247 C 
ATOM     17  H   UNL     1      35.260 -26.036 -15.384  0.00  0.00    +0.152 HD
ATOM     18  H   UNL     1      38.841 -25.092 -10.956  0.00  0.00    +0.150 HD
ENDBRANCH   2  14
BRANCH   5  20
ATOM     19  F   UNL     1      36.427 -22.119 -18.777  0.00  0.00    -0.204 F 
ATOM     20  C   UNL     1      34.129 -21.596 -19.101  0.00  0.00    +0.045 C 
ATOM     21  C   UNL     1      35.470 -21.489 -19.474  0.00  0.00    +0.142 C 
ATOM     22  C   UNL     1      33.148 -20.934 -19.841  0.00  0.00    +0.004 C 
ATOM     23  C   UNL     1      35.828 -20.722 -20.583  0.00  0.00    +0.030 C 
ATOM     24  C   UNL     1      33.505 -20.167 -20.949  0.00  0.00    +0.000 C 
ATOM     25  C   UNL     1      34.846 -20.060 -21.321  0.00  0.00    +0.002 C 
ENDBRANCH   5  20
TORSDOF 2
ENDMDL
MODEL 3
REMARK VINA RESULT:     -11.1     10.931     14.427
REMARK  Name = 11992146
REMARK  2 active torsions:
REMARK  status: ('A' for Active; 'I' for Inactive)
REMARK    1  A    between atoms: C_2  and  C_14
REMARK    2  A    between atoms: C_5  and  C_20
REMARK                            x       y       z     vdW  Elec       q    Type
REMARK                         _______ _______ _______ _____ _____    ______ ____
ROOT
ATOM      1  N   UNL     1      31.743  -9.064 -22.237  0.00  0.00    -0.244 NA
ATOM      2  C   UNL     1      32.711 -11.657 -22.623  0.00  0.00    +0.016 C 
ATOM      3  C   UNL     1      33.324 -10.583 -23.258  0.00  0.00    +0.020 C 
ATOM      4  C   UNL     1      31.616 -11.437 -21.796  0.00  0.00    +0.022 C 
ATOM      5  C   UNL     1      32.805  -9.317 -23.035  0.00  0.00    +0.084 C 
ATOM      6  C   UNL     1      31.174 -10.133 -21.638  0.00  0.00    +0.099 C 
ENDROOT
BRANCH   2  14
ATOM      7  O   UNL     1      33.684 -16.345 -25.543  0.00  0.00    -0.270 OA
ATOM      8  N   UNL     1      33.768 -13.722 -21.798  0.00  0.00    -0.316 N 
ATOM      9  N   UNL     1      34.859 -17.161 -23.728  0.00  0.00    -0.300 N 
ATOM     10  C   UNL     1      34.143 -14.945 -22.276  0.00  0.00    +0.031 C 
ATOM     11  C   UNL     1      34.759 -16.039 -21.491  0.00  0.00    +0.063 C 
ATOM     12  C   UNL     1      33.831 -15.008 -23.618  0.00  0.00    +0.064 C 
ATOM     13  C   UNL     1      35.557 -16.920 -22.460  0.00  0.00    +0.096 C 
ATOM     14  C   UNL     1      33.209 -12.996 -22.821  0.00  0.00    +0.048 C 
ATOM     15  C   UNL     1      33.230 -13.773 -23.963  0.00  0.00    +0.020 C 
ATOM     16  C   UNL     1      34.104 -16.199 -24.399  0.00  0.00    +0.247 C 
ATOM     17  H   UNL     1      33.881 -13.411 -20.870  0.00  0.00    +0.152 HD
ATOM     18  H   UNL     1      34.929 -18.057 -24.131  0.00  0.00    +0.150 HD
ENDBRANCH   2  14
BRANCH   5  20
ATOM     19  F   UNL     1      31.438  -7.816 -24.978  0.00  0.00    -0.204 F 
ATOM     20  C   UNL     1      33.389  -8.154 -23.660  0.00  0.00    +0.045 C 
ATOM     21  C   UNL     1      32.674  -7.438 -24.622  0.00  0.00    +0.142 C 
ATOM     22  C   UNL     1      34.675  -7.743 -23.302  0.00  0.00    +0.004 C 
ATOM     23  C   UNL     1      33.245  -6.316 -25.226  0.00  0.00    +0.030 C 
ATOM     24  C   UNL     1      35.245  -6.622 -23.905  0.00  0.00    +0.000 C 
ATOM     25  C   UNL     1      34.530  -5.909 -24.868  0.00  0.00    +0.002 C 
ENDBRANCH   5  20
TORSDOF 2
ENDMDL
MODEL 4
REMARK VINA RESULT:     -11.0     10.386     13.980
REMARK  Name = 11992146
REMARK  2 active torsions:
REMARK  status: ('A' for Active; 'I' for Inactive)
REMARK    1  A    between atoms: C_2  and  C_14
REMARK    2  A    between atoms: C_5  and  C_20
REMARK                            x       y       z     vdW  Elec       q    Type
REMARK                         _______ _______ _______ _____ _____    ______ ____
ROOT
ATOM      1  N   UNL     1      31.579  -9.567 -22.301  0.00  0.00    -0.244 NA
ATOM      2  C   UNL     1      32.768 -12.085 -22.530  0.00  0.00    +0.016 C 
ATOM      3  C   UNL     1      33.379 -10.972 -23.097  0.00  0.00    +0.020 C 
ATOM      4  C   UNL     1      31.566 -11.942 -21.849  0.00  0.00    +0.022 C 
ATOM      5  C   UNL     1      32.748  -9.746 -22.956  0.00  0.00    +0.084 C 
ATOM      6  C   UNL     1      31.016 -10.672 -21.764  0.00  0.00    +0.099 C 
ENDROOT
BRANCH   2  14
ATOM      7  O   UNL     1      35.241 -16.738 -20.609  0.00  0.00    -0.270 OA
ATOM      8  N   UNL     1      33.619 -13.970 -23.867  0.00  0.00    -0.316 N 
ATOM      9  N   UNL     1      35.194 -17.580 -22.761  0.00  0.00    -0.300 N 
ATOM     10  C   UNL     1      34.207 -15.186 -23.669  0.00  0.00    +0.031 C 
ATOM     11  C   UNL     1      34.651 -16.125 -24.726  0.00  0.00    +0.063 C 
ATOM     12  C   UNL     1      34.345 -15.393 -22.313  0.00  0.00    +0.064 C 
ATOM     13  C   UNL     1      34.657 -17.536 -24.126  0.00  0.00    +0.096 C 
ATOM     14  C   UNL     1      33.382 -13.386 -22.648  0.00  0.00    +0.048 C 
ATOM     15  C   UNL     1      33.828 -14.246 -21.663  0.00  0.00    +0.020 C 
ATOM     16  C   UNL     1      34.952 -16.604 -21.794  0.00  0.00    +0.247 C 
ATOM     17  H   UNL     1      33.400 -13.576 -24.744  0.00  0.00    +0.152 HD
ATOM     18  H   UNL     1      35.761 -18.347 -22.511  0.00  0.00    +0.150 HD
ENDBRANCH   2  14
BRANCH   5  20
ATOM     19  F   UNL     1      31.419  -8.222 -24.908  0.00  0.00    -0.204 F 
ATOM     20  C   UNL     1      33.322  -8.546 -23.518  0.00  0.00    +0.045 C 
ATOM     21  C   UNL     1      32.627  -7.820 -24.487  0.00  0.00    +0.142 C 
ATOM     22  C   UNL     1      34.578  -8.110 -23.092  0.00  0.00    +0.004 C 
ATOM     23  C   UNL     1      33.188  -6.663 -25.030  0.00  0.00    +0.030 C 
ATOM     24  C   UNL     1      35.138  -6.953 -23.634  0.00  0.00    +0.000 C 
ATOM     25  C   UNL     1      34.443  -6.230 -24.603  0.00  0.00    +0.002 C 
ENDBRANCH   5  20
TORSDOF 2
ENDMDL
MODEL 5
REMARK VINA RESULT:     -11.0      9.436     13.355
REMARK  Name = 11992146
REMARK  2 active torsions:
REMARK  status: ('A' for Active; 'I' for Inactive)
REMARK    1  A    between atoms: C_2  and  C_14
REMARK    2  A    between atoms: C_5  and  C_20
REMARK                            x       y       z     vdW  Elec       q    Type
REMARK                         _______ _______ _______ _____ _____    ______ ____
ROOT
ATOM      1  N   UNL     1      34.117 -15.988 -25.190  0.00  0.00    -0.244 NA
ATOM      2  C   UNL     1      33.334 -13.684 -23.818  0.00  0.00    +0.016 C 
ATOM      3  C   UNL     1      33.780 -14.796 -23.114  0.00  0.00    +0.020 C 
ATOM      4  C   UNL     1      33.279 -13.720 -25.206  0.00  0.00    +0.022 C 
ATOM      5  C   UNL     1      34.156 -15.914 -23.841  0.00  0.00    +0.084 C 
ATOM      6  C   UNL     1      33.677 -14.887 -25.840  0.00  0.00    +0.099 C 
ENDROOT
BRANCH   2  14
ATOM      7  O   UNL     1      30.787 -10.810 -19.729  0.00  0.00    -0.270 OA
ATOM      8  N   UNL     1      33.202 -11.235 -23.589  0.00  0.00    -0.316 N 
ATOM      9  N   UNL     1      31.682  -8.873 -20.614  0.00  0.00    -0.300 N 
ATOM     10  C   UNL     1      32.700 -10.311 -22.719  0.00  0.00    +0.031 C 
ATOM     11  C   UNL     1      32.756  -8.840 -22.878  0.00  0.00    +0.063 C 
ATOM     12  C   UNL     1      32.104 -10.975 -21.667  0.00  0.00    +0.064 C 
ATOM     13  C   UNL     1      32.667  -8.214 -21.480  0.00  0.00    +0.096 C 
ATOM     14  C   UNL     1      32.929 -12.493 -23.111  0.00  0.00    +0.048 C 
ATOM     15  C   UNL     1      32.242 -12.361 -21.919  0.00  0.00    +0.020 C 
ATOM     16  C   UNL     1      31.469 -10.251 -20.583  0.00  0.00    +0.247 C 
ATOM     17  H   UNL     1      33.683 -11.032 -24.425  0.00  0.00    +0.152 HD
ATOM     18  H   UNL     1      31.139  -8.307 -20.018  0.00  0.00    +0.150 HD
ENDBRANCH   2  14
BRANCH   5  20
ATOM     19  F   UNL     1      33.629 -18.489 -24.836  0.00  0.00    -0.204 F 
ATOM     20  C   UNL     1      34.630 -17.107 -23.179  0.00  0.00    +0.045 C 
ATOM     21  C   UNL     1      34.343 -18.367 -23.708  0.00  0.00    +0.142 C 
ATOM     22  C   UNL     1      35.376 -17.000 -22.004  0.00  0.00    +0.004 C 
ATOM     23  C   UNL     1      34.800 -19.517 -23.062  0.00  0.00    +0.030 C 
ATOM     24  C   UNL     1      35.833 -18.149 -21.359  0.00  0.00    +0.000 C 
ATOM     25  C   UNL     1      35.545 -19.407 -21.887  0.00  0.00    +0.002 C 
ENDBRANCH   5  20
TORSDOF 2
ENDMDL
MODEL 6
REMARK VINA RESULT:     -10.9      7.980     12.049
REMARK  Name = 11992146
REMARK  2 active torsions:
REMARK  status: ('A' for Active; 'I' for Inactive)
REMARK    1  A    between atoms: C_2  and  C_14
REMARK    2  A    between atoms: C_5  and  C_20
REMARK                            x       y       z     vdW  Elec       q    Type
REMARK                         _______ _______ _______ _____ _____    ______ ____
ROOT
ATOM      1  N   UNL     1      35.097 -17.987 -23.907  0.00  0.00    -0.244 NA
ATOM      2  C   UNL     1      34.042 -15.540 -23.067  0.00  0.00    +0.016 C 
ATOM      3  C   UNL     1      34.500 -16.460 -22.130  0.00  0.00    +0.020 C 
ATOM      4  C   UNL     1      34.110 -15.841 -24.422  0.00  0.00    +0.022 C 
ATOM      5  C   UNL     1      35.014 -17.659 -22.598  0.00  0.00    +0.084 C 
ATOM      6  C   UNL     1      34.642 -17.069 -24.787  0.00  0.00    +0.099 C 
ENDROOT
BRANCH   2  14
ATOM      7  O   UNL     1      32.666 -10.132 -23.627  0.00  0.00    -0.270 OA
ATOM      8  N   UNL     1      33.035 -14.084 -21.356  0.00  0.00    -0.316 N 
ATOM      9  N   UNL     1      31.673 -10.230 -21.543  0.00  0.00    -0.300 N 
ATOM     10  C   UNL     1      32.586 -12.800 -21.236  0.00  0.00    +0.031 C 
ATOM     11  C   UNL     1      32.034 -12.178 -20.010  0.00  0.00    +0.063 C 
ATOM     12  C   UNL     1      32.752 -12.159 -22.446  0.00  0.00    +0.064 C 
ATOM     13  C   UNL     1      31.119 -11.025 -20.441  0.00  0.00    +0.096 C 
ATOM     14  C   UNL     1      33.497 -14.276 -22.634  0.00  0.00    +0.048 C 
ATOM     15  C   UNL     1      33.339 -13.095 -23.332  0.00  0.00    +0.020 C 
ATOM     16  C   UNL     1      32.373 -10.771 -22.621  0.00  0.00    +0.247 C 
ATOM     17  H   UNL     1      33.028 -14.762 -20.641  0.00  0.00    +0.152 HD
ATOM     18  H   UNL     1      31.542  -9.254 -21.520  0.00  0.00    +0.150 HD
ENDBRANCH   2  14
BRANCH   5  20
ATOM     19  F   UNL     1      33.417 -19.793 -21.709  0.00  0.00    -0.204 F 
ATOM     20  C   UNL     1      35.509 -18.662 -21.686  0.00  0.00    +0.045 C 
ATOM     21  C   UNL     1      34.679 -19.705 -21.268  0.00  0.00    +0.142 C 
ATOM     22  C   UNL     1      36.822 -18.589 -21.216  0.00  0.00    +0.004 C 
ATOM     23  C   UNL     1      35.162 -20.671 -20.383  0.00  0.00    +0.030 C 
ATOM     24  C   UNL     1      37.304 -19.554 -20.332  0.00  0.00    +0.000 C 
ATOM     25  C   UNL     1      36.474 -20.594 -19.915  0.00  0.00    +0.002 C 
ENDBRANCH   5  20
TORSDOF 2
ENDMDL
MODEL 7
REMARK VINA RESULT:     -10.7     10.023     13.149
REMARK  Name = 11992146
REMARK  2 active torsions:
REMARK  status: ('A' for Active; 'I' for Inactive)
REMARK    1  A    between atoms: C_2  and  C_14
REMARK    2  A    between atoms: C_5  and  C_20
REMARK                            x       y       z     vdW  Elec       q    Type
REMARK                         _______ _______ _______ _____ _____    ______ ____
ROOT
ATOM      1  N   UNL     1      33.898 -15.676 -25.518  0.00  0.00    -0.244 NA
ATOM      2  C   UNL     1      33.203 -13.628 -23.750  0.00  0.00    +0.016 C 
ATOM      3  C   UNL     1      33.603 -14.866 -23.259  0.00  0.00    +0.020 C 
ATOM      4  C   UNL     1      33.150 -13.412 -25.121  0.00  0.00    +0.022 C 
ATOM      5  C   UNL     1      33.937 -15.848 -24.178  0.00  0.00    +0.084 C 
ATOM      6  C   UNL     1      33.504 -14.460 -25.957  0.00  0.00    +0.099 C 
ENDROOT
BRANCH   2  14
ATOM      7  O   UNL     1      32.397  -8.297 -22.201  0.00  0.00    -0.270 OA
ATOM      8  N   UNL     1      32.521 -12.819 -21.526  0.00  0.00    -0.316 N 
ATOM      9  N   UNL     1      31.588  -9.069 -20.179  0.00  0.00    -0.300 N 
ATOM     10  C   UNL     1      32.231 -11.636 -20.909  0.00  0.00    +0.031 C 
ATOM     11  C   UNL     1      31.863 -11.460 -19.485  0.00  0.00    +0.063 C 
ATOM     12  C   UNL     1      32.360 -10.615 -21.827  0.00  0.00    +0.064 C 
ATOM     13  C   UNL     1      31.048 -10.166 -19.367  0.00  0.00    +0.096 C 
ATOM     14  C   UNL     1      32.844 -12.569 -22.837  0.00  0.00    +0.048 C 
ATOM     15  C   UNL     1      32.758 -11.207 -23.051  0.00  0.00    +0.020 C 
ATOM     16  C   UNL     1      32.124  -9.234 -21.456  0.00  0.00    +0.247 C 
ATOM     17  H   UNL     1      32.501 -13.707 -21.099  0.00  0.00    +0.152 HD
ATOM     18  H   UNL     1      31.570  -8.161 -19.799  0.00  0.00    +0.150 HD
ENDBRANCH   2  14
BRANCH   5  20
ATOM     19  F   UNL     1      35.559 -16.223 -21.914  0.00  0.00    -0.204 F 
ATOM     20  C   UNL     1      34.362 -17.158 -23.744  0.00  0.00    +0.045 C 
ATOM     21  C   UNL     1      35.169 -17.298 -22.613  0.00  0.00    +0.142 C 
ATOM     22  C   UNL     1      33.966 -18.290 -24.458  0.00  0.00    +0.004 C 
ATOM     23  C   UNL     1      35.580 -18.566 -22.200  0.00  0.00    +0.030 C 
ATOM     24  C   UNL     1      34.376 -19.557 -24.045  0.00  0.00    +0.000 C 
ATOM     25  C   UNL     1      35.183 -19.696 -22.916  0.00  0.00    +0.002 C 
ENDBRANCH   5  20
TORSDOF 2
ENDMDL
MODEL 8
REMARK VINA RESULT:     -10.6      3.044      7.533
REMARK  Name = 11992146
REMARK  2 active torsions:
REMARK  status: ('A' for Active; 'I' for Inactive)
REMARK    1  A    between atoms: C_2  and  C_14
REMARK    2  A    between atoms: C_5  and  C_20
REMARK                            x       y       z     vdW  Elec       q    Type
REMARK                         _______ _______ _______ _____ _____    ______ ____
ROOT
ATOM      1  N   UNL     1      33.414 -24.918 -13.881  0.00  0.00    -0.244 NA
ATOM      2  C   UNL     1      33.759 -23.440 -16.228  0.00  0.00    +0.016 C 
ATOM      3  C   UNL     1      34.867 -23.883 -15.514  0.00  0.00    +0.020 C 
ATOM      4  C   UNL     1      32.480 -23.734 -15.771  0.00  0.00    +0.022 C 
ATOM      5  C   UNL     1      34.642 -24.612 -14.357  0.00  0.00    +0.084 C 
ATOM      6  C   UNL     1      32.362 -24.469 -14.602  0.00  0.00    +0.099 C 
ENDROOT
BRANCH   2  14
ATOM      7  O   UNL     1      32.045 -20.643 -20.778  0.00  0.00    -0.270 OA
ATOM      8  N   UNL     1      35.180 -22.421 -17.961  0.00  0.00    -0.316 N 
ATOM      9  N   UNL     1      34.251 -20.105 -21.205  0.00  0.00    -0.300 N 
ATOM     10  C   UNL     1      35.038 -21.687 -19.104  0.00  0.00    +0.031 C 
ATOM     11  C   UNL     1      36.133 -21.226 -19.988  0.00  0.00    +0.063 C 
ATOM     12  C   UNL     1      33.694 -21.461 -19.319  0.00  0.00    +0.064 C 
ATOM     13  C   UNL     1      35.638 -19.984 -20.739  0.00  0.00    +0.096 C 
ATOM     14  C   UNL     1      33.936 -22.677 -17.439  0.00  0.00    +0.048 C 
ATOM     15  C   UNL     1      32.993 -22.097 -18.266  0.00  0.00    +0.020 C 
ATOM     16  C   UNL     1      33.232 -20.712 -20.471  0.00  0.00    +0.247 C 
ATOM     17  H   UNL     1      36.036 -22.718 -17.575  0.00  0.00    +0.152 HD
ATOM     18  H   UNL     1      34.027 -19.734 -22.089  0.00  0.00    +0.150 HD
ENDBRANCH   2  14
BRANCH   5  20
ATOM     19  F   UNL     1      36.160 -26.848 -15.129  0.00  0.00    -0.204 F 
ATOM     20  C   UNL     1      35.743 -25.106 -13.564  0.00  0.00    +0.045 C 
ATOM     21  C   UNL     1      36.469 -26.222 -13.985  0.00  0.00    +0.142 C 
ATOM     22  C   UNL     1      36.082 -24.467 -12.370  0.00  0.00    +0.004 C 
ATOM     23  C   UNL     1      37.530 -26.697 -13.213  0.00  0.00    +0.030 C 
ATOM     24  C   UNL     1      37.142 -24.942 -11.598  0.00  0.00    +0.000 C 
ATOM     25  C   UNL     1      37.866 -26.057 -12.019  0.00  0.00    +0.002 C 
ENDBRANCH   5  20
TORSDOF 2
ENDMDL
MODEL 9
REMARK VINA RESULT:     -10.6     11.664     15.814
REMARK  Name = 11992146
REMARK  2 active torsions:
REMARK  status: ('A' for Active; 'I' for Inactive)
REMARK    1  A    between atoms: C_2  and  C_14
REMARK    2  A    between atoms: C_5  and  C_20
REMARK                            x       y       z     vdW  Elec       q    Type
REMARK                         _______ _______ _______ _____ _____    ______ ____
ROOT
ATOM      1  N   UNL     1      32.286 -13.553 -21.064  0.00  0.00    -0.244 NA
ATOM      2  C   UNL     1      32.105 -10.925 -21.997  0.00  0.00    +0.016 C 
ATOM      3  C   UNL     1      32.737 -11.895 -22.766  0.00  0.00    +0.020 C 
ATOM      4  C   UNL     1      31.563 -11.266 -20.763  0.00  0.00    +0.022 C 
ATOM      5  C   UNL     1      32.800 -13.184 -22.258  0.00  0.00    +0.084 C 
ATOM      6  C   UNL     1      31.680 -12.582 -20.345  0.00  0.00    +0.099 C 
ENDROOT
BRANCH   2  14
ATOM      7  O   UNL     1      30.515  -5.550 -21.787  0.00  0.00    -0.270 OA
ATOM      8  N   UNL     1      32.506  -9.195 -23.702  0.00  0.00    -0.316 N 
ATOM      9  N   UNL     1      31.731  -5.177 -23.715  0.00  0.00    -0.300 N 
ATOM     10  C   UNL     1      32.272  -7.863 -23.887  0.00  0.00    +0.031 C 
ATOM     11  C   UNL     1      32.623  -7.072 -25.089  0.00  0.00    +0.063 C 
ATOM     12  C   UNL     1      31.627  -7.369 -22.773  0.00  0.00    +0.064 C 
ATOM     13  C   UNL     1      32.768  -5.607 -24.661  0.00  0.00    +0.096 C 
ATOM     14  C   UNL     1      32.010  -9.568 -22.477  0.00  0.00    +0.048 C 
ATOM     15  C   UNL     1      31.453  -8.454 -21.880  0.00  0.00    +0.020 C 
ATOM     16  C   UNL     1      31.236  -5.975 -22.684  0.00  0.00    +0.247 C 
ATOM     17  H   UNL     1      32.958  -9.791 -24.343  0.00  0.00    +0.152 HD
ATOM     18  H   UNL     1      31.363  -4.269 -23.815  0.00  0.00    +0.150 HD
ENDBRANCH   2  14
BRANCH   5  20
ATOM     19  F   UNL     1      34.769 -14.833 -21.117  0.00  0.00    -0.204 F 
ATOM     20  C   UNL     1      33.440 -14.244 -23.000  0.00  0.00    +0.045 C 
ATOM     21  C   UNL     1      34.415 -15.039 -22.394  0.00  0.00    +0.142 C 
ATOM     22  C   UNL     1      33.085 -14.475 -24.330  0.00  0.00    +0.004 C 
ATOM     23  C   UNL     1      35.034 -16.060 -23.117  0.00  0.00    +0.030 C 
ATOM     24  C   UNL     1      33.703 -15.496 -25.053  0.00  0.00    +0.000 C 
ATOM     25  C   UNL     1      34.677 -16.288 -24.446  0.00  0.00    +0.002 C 
ENDBRANCH   5  20
TORSDOF 2
ENDMDL
