MODEL 1
REMARK VINA RESULT:     -12.4      0.000      0.000
REMARK  Name = 51049992
REMARK  10 active torsions:
REMARK  status: ('A' for Active; 'I' for Inactive)
REMARK    1  A    between atoms: C_1  and  C_7
REMARK    2  A    between atoms: C_6  and  C_23
REMARK    3  A    between atoms: C_7  and  N_8
REMARK    4  A    between atoms: C_23  and  O_24
REMARK    5  A    between atoms: O_24  and  C_25
REMARK    6  A    between atoms: C_26  and  C_31
REMARK    7  A    between atoms: C_31  and  C_32
REMARK    8  A    between atoms: C_31  and  C_35
REMARK    9  A    between atoms: C_35  and  C_37
REMARK   10  A    between atoms: C_37  and  O_38
REMARK                            x       y       z     vdW  Elec       q    Type
REMARK                         _______ _______ _______ _____ _____    ______ ____
ROOT
ATOM      1  C   UNL     1      35.272 -18.344 -22.693  0.00  0.00    -0.043 C 
ATOM      2  C   UNL     1      34.301 -19.269 -22.308  0.00  0.00    -0.007 C 
ATOM      3  C   UNL     1      36.510 -18.326 -22.051  0.00  0.00    -0.007 C 
ATOM      4  C   UNL     1      34.569 -20.176 -21.283  0.00  0.00    -0.001 C 
ATOM      5  C   UNL     1      36.779 -19.233 -21.026  0.00  0.00    -0.001 C 
ATOM      6  C   UNL     1      35.808 -20.158 -20.642  0.00  0.00    +0.021 C 
ENDROOT
BRANCH   1   7
ATOM      7  C   UNL     1      34.981 -17.365 -23.799  0.00  0.00    -0.050 C 
BRANCH   7   8
ATOM      8  N   UNL     1      34.196 -16.225 -23.325  0.00  0.00    +0.390 N 
ATOM      9  C   UNL     1      33.491 -13.377 -23.050  0.00  0.00    +0.033 C 
ATOM     10  C   UNL     1      32.729 -14.340 -23.978  0.00  0.00    -0.015 C 
ATOM     11  C   UNL     1      34.203 -14.172 -21.941  0.00  0.00    -0.015 C 
ATOM     12  C   UNL     1      35.025 -15.338 -22.498  0.00  0.00    -0.076 C 
ATOM     13  C   UNL     1      33.607 -15.501 -24.459  0.00  0.00    -0.076 C 
ATOM     14  C   UNL     1      32.582 -12.307 -22.481  0.00  0.00    -0.019 C 
ATOM     15  C   UNL     1      34.470 -12.501 -23.830  0.00  0.00    -0.023 C 
ATOM     16  C   UNL     1      33.020 -11.042 -22.900  0.00  0.00    -0.004 C 
ATOM     17  C   UNL     1      34.194 -11.191 -23.738  0.00  0.00    -0.005 C 
ATOM     18  C   UNL     1      31.468 -12.437 -21.666  0.00  0.00    -0.004 C 
ATOM     19  C   UNL     1      32.358  -9.887 -22.517  0.00  0.00    -0.000 C 
ATOM     20  C   UNL     1      30.794 -11.278 -21.274  0.00  0.00    -0.000 C 
ATOM     21  C   UNL     1      31.235 -10.014 -21.696  0.00  0.00    -0.000 C 
ATOM     22  H   UNL     1      33.433 -16.571 -22.744  0.00  0.00    -0.079 HD
ENDBRANCH   7   8
ENDBRANCH   1   7
BRANCH   6  23
ATOM     23  C   UNL     1      36.096 -21.129 -19.548  0.00  0.00    +0.232 C 
BRANCH  23  24
ATOM     24  O   UNL     1      35.055 -22.097 -19.488  0.00  0.00    -0.471 OA
BRANCH  24  25
ATOM     25  C   UNL     1      34.674 -22.517 -18.241  0.00  0.00    +0.139 C 
ATOM     26  C   UNL     1      33.899 -23.376 -15.703  0.00  0.00    -0.010 C 
ATOM     27  C   UNL     1      35.576 -22.458 -17.179  0.00  0.00    +0.037 C 
ATOM     28  C   UNL     1      33.384 -23.006 -18.034  0.00  0.00    +0.037 C 
ATOM     29  C   UNL     1      35.188 -22.887 -15.909  0.00  0.00    -0.000 C 
ATOM     30  C   UNL     1      32.997 -23.436 -16.765  0.00  0.00    -0.000 C 
BRANCH  26  31
ATOM     31  C   UNL     1      33.483 -23.835 -14.346  0.00  0.00    +0.097 C 
BRANCH  31  32
ATOM     32  C   UNL     1      32.092 -24.365 -14.347  0.00  0.00    -0.087 C 
ATOM     33  C   UNL     1      30.965 -24.783 -14.333  0.00  0.00    -0.090 C 
ATOM     34  C   UNL     1      29.596 -25.293 -14.315  0.00  0.00    +0.090 C 
ENDBRANCH  31  32
BRANCH  31  35
ATOM     35  C   UNL     1      34.455 -24.895 -13.758  0.00  0.00    +0.127 C 
BRANCH  35  37
ATOM     36  O   UNL     1      35.898 -23.526 -12.343  0.00  0.00    -0.250 OA
ATOM     37  C   UNL     1      35.130 -24.470 -12.469  0.00  0.00    +0.315 C 
BRANCH  37  38
ATOM     38  O   UNL     1      34.764 -25.271 -11.433  0.00  0.00    -0.480 OA
ATOM     39  H   UNL     1      35.416 -25.626 -10.863  0.00  0.00    +0.295 HD
ENDBRANCH  37  38
ENDBRANCH  35  37
ENDBRANCH  31  35
ENDBRANCH  26  31
ENDBRANCH  24  25
ENDBRANCH  23  24
ENDBRANCH   6  23
TORSDOF 10
ENDMDL
MODEL 2
REMARK VINA RESULT:     -12.4      5.852     14.347
REMARK  Name = 51049992
REMARK  10 active torsions:
REMARK  status: ('A' for Active; 'I' for Inactive)
REMARK    1  A    between atoms: C_1  and  C_7
REMARK    2  A    between atoms: C_6  and  C_23
REMARK    3  A    between atoms: C_7  and  N_8
REMARK    4  A    between atoms: C_23  and  O_24
REMARK    5  A    between atoms: O_24  and  C_25
REMARK    6  A    between atoms: C_26  and  C_31
REMARK    7  A    between atoms: C_31  and  C_32
REMARK    8  A    between atoms: C_31  and  C_35
REMARK    9  A    between atoms: C_35  and  C_37
REMARK   10  A    between atoms: C_37  and  O_38
REMARK                            x       y       z     vdW  Elec       q    Type
REMARK                         _______ _______ _______ _____ _____    ______ ____
ROOT
ATOM      1  C   UNL     1      33.713 -13.801 -23.168  0.00  0.00    -0.043 C 
ATOM      2  C   UNL     1      33.758 -12.542 -23.768  0.00  0.00    -0.007 C 
ATOM      3  C   UNL     1      32.833 -14.037 -22.111  0.00  0.00    -0.007 C 
ATOM      4  C   UNL     1      32.925 -11.521 -23.312  0.00  0.00    -0.001 C 
ATOM      5  C   UNL     1      32.000 -13.017 -21.654  0.00  0.00    -0.001 C 
ATOM      6  C   UNL     1      32.046 -11.759 -22.255  0.00  0.00    +0.021 C 
ENDROOT
BRANCH   1   7
ATOM      7  C   UNL     1      34.612 -14.902 -23.661  0.00  0.00    -0.050 C 
BRANCH   7   8
ATOM      8  N   UNL     1      34.421 -16.141 -22.905  0.00  0.00    +0.390 N 
ATOM      9  C   UNL     1      35.272 -18.542 -21.422  0.00  0.00    +0.033 C 
ATOM     10  C   UNL     1      34.737 -17.277 -20.727  0.00  0.00    -0.015 C 
ATOM     11  C   UNL     1      34.770 -18.592 -22.877  0.00  0.00    -0.015 C 
ATOM     12  C   UNL     1      35.016 -17.277 -23.622  0.00  0.00    -0.076 C 
ATOM     13  C   UNL     1      34.984 -16.010 -21.555  0.00  0.00    -0.076 C 
ATOM     14  C   UNL     1      34.911 -19.799 -20.658  0.00  0.00    -0.019 C 
ATOM     15  C   UNL     1      36.797 -18.620 -21.352  0.00  0.00    -0.023 C 
ATOM     16  C   UNL     1      36.082 -20.452 -20.243  0.00  0.00    -0.004 C 
ATOM     17  C   UNL     1      37.238 -19.698 -20.686  0.00  0.00    -0.005 C 
ATOM     18  C   UNL     1      33.664 -20.321 -20.356  0.00  0.00    -0.004 C 
ATOM     19  C   UNL     1      36.030 -21.633 -19.520  0.00  0.00    -0.000 C 
ATOM     20  C   UNL     1      33.601 -21.512 -19.629  0.00  0.00    -0.000 C 
ATOM     21  C   UNL     1      34.774 -22.162 -19.214  0.00  0.00    -0.000 C 
ATOM     22  H   UNL     1      33.422 -16.318 -22.812  0.00  0.00    -0.079 HD
ENDBRANCH   7   8
ENDBRANCH   1   7
BRANCH   6  23
ATOM     23  C   UNL     1      31.152 -10.668 -21.769  0.00  0.00    +0.232 C 
BRANCH  23  24
ATOM     24  O   UNL     1      31.918  -9.724 -21.029  0.00  0.00    -0.471 OA
BRANCH  24  25
ATOM     25  C   UNL     1      32.071  -8.482 -21.585  0.00  0.00    +0.139 C 
ATOM     26  C   UNL     1      32.384  -5.952 -22.719  0.00  0.00    -0.010 C 
ATOM     27  C   UNL     1      31.407  -8.160 -22.769  0.00  0.00    +0.037 C 
ATOM     28  C   UNL     1      32.892  -7.537 -20.968  0.00  0.00    +0.037 C 
ATOM     29  C   UNL     1      31.563  -6.895 -23.336  0.00  0.00    -0.000 C 
ATOM     30  C   UNL     1      33.049  -6.273 -21.536  0.00  0.00    -0.000 C 
BRANCH  26  31
ATOM     31  C   UNL     1      32.553  -4.599 -23.325  0.00  0.00    +0.097 C 
BRANCH  31  32
ATOM     32  C   UNL     1      32.953  -4.684 -24.756  0.00  0.00    -0.087 C 
ATOM     33  C   UNL     1      33.280  -4.768 -25.909  0.00  0.00    -0.090 C 
ATOM     34  C   UNL     1      33.681  -4.872 -27.311  0.00  0.00    +0.090 C 
ENDBRANCH  31  32
BRANCH  31  35
ATOM     35  C   UNL     1      31.277  -3.725 -23.180  0.00  0.00    +0.127 C 
BRANCH  35  37
ATOM     36  O   UNL     1      32.007  -2.851 -21.022  0.00  0.00    -0.250 OA
ATOM     37  C   UNL     1      31.106  -3.100 -21.810  0.00  0.00    +0.315 C 
BRANCH  37  38
ATOM     38  O   UNL     1      29.800  -2.824 -21.553  0.00  0.00    -0.480 OA
ATOM     39  H   UNL     1      29.480  -1.949 -21.639  0.00  0.00    +0.295 HD
ENDBRANCH  37  38
ENDBRANCH  35  37
ENDBRANCH  31  35
ENDBRANCH  26  31
ENDBRANCH  24  25
ENDBRANCH  23  24
ENDBRANCH   6  23
TORSDOF 10
ENDMDL
MODEL 3
REMARK VINA RESULT:     -12.3      1.108      2.080
REMARK  Name = 51049992
REMARK  10 active torsions:
REMARK  status: ('A' for Active; 'I' for Inactive)
REMARK    1  A    between atoms: C_1  and  C_7
REMARK    2  A    between atoms: C_6  and  C_23
REMARK    3  A    between atoms: C_7  and  N_8
REMARK    4  A    between atoms: C_23  and  O_24
REMARK    5  A    between atoms: O_24  and  C_25
REMARK    6  A    between atoms: C_26  and  C_31
REMARK    7  A    between atoms: C_31  and  C_32
REMARK    8  A    between atoms: C_31  and  C_35
REMARK    9  A    between atoms: C_35  and  C_37
REMARK   10  A    between atoms: C_37  and  O_38
REMARK                            x       y       z     vdW  Elec       q    Type
REMARK                         _______ _______ _______ _____ _____    ______ ____
ROOT
ATOM      1  C   UNL     1      35.247 -18.236 -22.758  0.00  0.00    -0.043 C 
ATOM      2  C   UNL     1      34.288 -19.179 -22.384  0.00  0.00    -0.007 C 
ATOM      3  C   UNL     1      36.480 -18.201 -22.105  0.00  0.00    -0.007 C 
ATOM      4  C   UNL     1      34.562 -20.085 -21.360  0.00  0.00    -0.001 C 
ATOM      5  C   UNL     1      36.753 -19.107 -21.080  0.00  0.00    -0.001 C 
ATOM      6  C   UNL     1      35.794 -20.049 -20.708  0.00  0.00    +0.021 C 
ENDROOT
BRANCH   1   7
ATOM      7  C   UNL     1      34.951 -17.259 -23.863  0.00  0.00    -0.050 C 
BRANCH   7   8
ATOM      8  N   UNL     1      34.164 -16.121 -23.388  0.00  0.00    +0.390 N 
ATOM      9  C   UNL     1      33.462 -13.273 -23.097  0.00  0.00    +0.033 C 
ATOM     10  C   UNL     1      32.706 -14.228 -24.038  0.00  0.00    -0.015 C 
ATOM     11  C   UNL     1      34.163 -14.078 -21.988  0.00  0.00    -0.015 C 
ATOM     12  C   UNL     1      34.988 -15.242 -22.547  0.00  0.00    -0.076 C 
ATOM     13  C   UNL     1      33.586 -15.387 -24.521  0.00  0.00    -0.076 C 
ATOM     14  C   UNL     1      32.550 -12.207 -22.528  0.00  0.00    -0.019 C 
ATOM     15  C   UNL     1      34.449 -12.394 -23.863  0.00  0.00    -0.023 C 
ATOM     16  C   UNL     1      32.994 -10.939 -22.934  0.00  0.00    -0.004 C 
ATOM     17  C   UNL     1      34.175 -11.084 -23.762  0.00  0.00    -0.005 C 
ATOM     18  C   UNL     1      31.429 -12.341 -21.723  0.00  0.00    -0.004 C 
ATOM     19  C   UNL     1      32.331  -9.786 -22.548  0.00  0.00    -0.000 C 
ATOM     20  C   UNL     1      30.754 -11.183 -21.328  0.00  0.00    -0.000 C 
ATOM     21  C   UNL     1      31.201  -9.916 -21.737  0.00  0.00    -0.000 C 
ATOM     22  H   UNL     1      33.395 -16.470 -22.816  0.00  0.00    -0.079 HD
ENDBRANCH   7   8
ENDBRANCH   1   7
BRANCH   6  23
ATOM     23  C   UNL     1      36.088 -21.019 -19.615  0.00  0.00    +0.232 C 
BRANCH  23  24
ATOM     24  O   UNL     1      35.041 -21.980 -19.541  0.00  0.00    -0.471 OA
BRANCH  24  25
ATOM     25  C   UNL     1      34.768 -22.501 -18.304  0.00  0.00    +0.139 C 
ATOM     26  C   UNL     1      34.211 -23.565 -15.786  0.00  0.00    -0.010 C 
ATOM     27  C   UNL     1      35.732 -22.453 -17.297  0.00  0.00    +0.037 C 
ATOM     28  C   UNL     1      33.525 -23.082 -18.051  0.00  0.00    +0.037 C 
ATOM     29  C   UNL     1      35.453 -22.984 -16.038  0.00  0.00    -0.000 C 
ATOM     30  C   UNL     1      33.247 -23.614 -16.792  0.00  0.00    -0.000 C 
BRANCH  26  31
ATOM     31  C   UNL     1      33.912 -24.133 -14.440  0.00  0.00    +0.097 C 
BRANCH  31  32
ATOM     32  C   UNL     1      35.018 -23.876 -13.476  0.00  0.00    -0.087 C 
ATOM     33  C   UNL     1      35.921 -23.678 -12.709  0.00  0.00    -0.090 C 
ATOM     34  C   UNL     1      37.019 -23.441 -11.774  0.00  0.00    +0.090 C 
ENDBRANCH  31  32
BRANCH  31  35
ATOM     35  C   UNL     1      32.571 -23.607 -13.861  0.00  0.00    +0.127 C 
BRANCH  35  37
ATOM     36  O   UNL     1      30.773 -24.462 -12.450  0.00  0.00    -0.250 OA
ATOM     37  C   UNL     1      31.727 -24.671 -13.185  0.00  0.00    +0.315 C 
BRANCH  37  38
ATOM     38  O   UNL     1      32.156 -25.920 -13.507  0.00  0.00    -0.480 OA
ATOM     39  H   UNL     1      32.298 -26.554 -12.834  0.00  0.00    +0.295 HD
ENDBRANCH  37  38
ENDBRANCH  35  37
ENDBRANCH  31  35
ENDBRANCH  26  31
ENDBRANCH  24  25
ENDBRANCH  23  24
ENDBRANCH   6  23
TORSDOF 10
ENDMDL
MODEL 4
REMARK VINA RESULT:     -12.2      2.135      3.918
REMARK  Name = 51049992
REMARK  10 active torsions:
REMARK  status: ('A' for Active; 'I' for Inactive)
REMARK    1  A    between atoms: C_1  and  C_7
REMARK    2  A    between atoms: C_6  and  C_23
REMARK    3  A    between atoms: C_7  and  N_8
REMARK    4  A    between atoms: C_23  and  O_24
REMARK    5  A    between atoms: O_24  and  C_25
REMARK    6  A    between atoms: C_26  and  C_31
REMARK    7  A    between atoms: C_31  and  C_32
REMARK    8  A    between atoms: C_31  and  C_35
REMARK    9  A    between atoms: C_35  and  C_37
REMARK   10  A    between atoms: C_37  and  O_38
REMARK                            x       y       z     vdW  Elec       q    Type
REMARK                         _______ _______ _______ _____ _____    ______ ____
ROOT
ATOM      1  C   UNL     1      34.161 -15.132 -23.293  0.00  0.00    -0.043 C 
ATOM      2  C   UNL     1      34.355 -14.976 -21.920  0.00  0.00    -0.007 C 
ATOM      3  C   UNL     1      34.497 -16.337 -23.911  0.00  0.00    -0.007 C 
ATOM      4  C   UNL     1      34.884 -16.023 -21.167  0.00  0.00    -0.001 C 
ATOM      5  C   UNL     1      35.026 -17.384 -23.158  0.00  0.00    -0.001 C 
ATOM      6  C   UNL     1      35.220 -17.228 -21.786  0.00  0.00    +0.021 C 
ENDROOT
BRANCH   1   7
ATOM      7  C   UNL     1      33.589 -14.002 -24.106  0.00  0.00    -0.050 C 
BRANCH   7   8
ATOM      8  N   UNL     1      33.432 -12.784 -23.309  0.00  0.00    +0.390 N 
ATOM      9  C   UNL     1      32.536 -10.030 -22.759  0.00  0.00    +0.033 C 
ATOM     10  C   UNL     1      31.829 -11.270 -22.182  0.00  0.00    -0.015 C 
ATOM     11  C   UNL     1      33.991 -10.379 -23.121  0.00  0.00    -0.015 C 
ATOM     12  C   UNL     1      34.091 -11.650 -23.971  0.00  0.00    -0.076 C 
ATOM     13  C   UNL     1      32.010 -12.508 -23.068  0.00  0.00    -0.076 C 
ATOM     14  C   UNL     1      32.458  -8.848 -21.816  0.00  0.00    -0.019 C 
ATOM     15  C   UNL     1      31.781  -9.460 -23.959  0.00  0.00    -0.023 C 
ATOM     16  C   UNL     1      31.760  -7.798 -22.430  0.00  0.00    -0.004 C 
ATOM     17  C   UNL     1      31.350  -8.204 -23.760  0.00  0.00    -0.005 C 
ATOM     18  C   UNL     1      32.958  -8.711 -20.530  0.00  0.00    -0.004 C 
ATOM     19  C   UNL     1      31.548  -6.595 -21.777  0.00  0.00    -0.000 C 
ATOM     20  C   UNL     1      32.749  -7.501 -19.863  0.00  0.00    -0.000 C 
ATOM     21  C   UNL     1      32.050  -6.452 -20.481  0.00  0.00    -0.000 C 
ATOM     22  H   UNL     1      33.882 -12.923 -22.405  0.00  0.00    -0.079 HD
ENDBRANCH   7   8
ENDBRANCH   1   7
BRANCH   6  23
ATOM     23  C   UNL     1      35.783 -18.349 -20.980  0.00  0.00    +0.232 C 
BRANCH  23  24
ATOM     24  O   UNL     1      35.243 -19.581 -21.442  0.00  0.00    -0.471 OA
BRANCH  24  25
ATOM     25  C   UNL     1      34.792 -20.454 -20.487  0.00  0.00    +0.139 C 
ATOM     26  C   UNL     1      33.873 -22.233 -18.544  0.00  0.00    -0.010 C 
ATOM     27  C   UNL     1      35.700 -21.229 -19.765  0.00  0.00    +0.037 C 
ATOM     28  C   UNL     1      33.424 -20.569 -20.237  0.00  0.00    +0.037 C 
ATOM     29  C   UNL     1      35.240 -22.118 -18.793  0.00  0.00    -0.000 C 
ATOM     30  C   UNL     1      32.965 -21.459 -19.266  0.00  0.00    -0.000 C 
BRANCH  26  31
ATOM     31  C   UNL     1      33.381 -23.183 -17.506  0.00  0.00    +0.097 C 
BRANCH  31  32
ATOM     32  C   UNL     1      34.332 -23.293 -16.365  0.00  0.00    -0.087 C 
ATOM     33  C   UNL     1      35.086 -23.382 -15.434  0.00  0.00    -0.090 C 
ATOM     34  C   UNL     1      36.003 -23.487 -14.300  0.00  0.00    +0.090 C 
ENDBRANCH  31  32
BRANCH  31  35
ATOM     35  C   UNL     1      31.967 -22.808 -16.984  0.00  0.00    +0.127 C 
BRANCH  35  37
ATOM     36  O   UNL     1      31.205 -24.685 -15.624  0.00  0.00    -0.250 OA
ATOM     37  C   UNL     1      31.567 -23.520 -15.707  0.00  0.00    +0.315 C 
BRANCH  37  38
ATOM     38  O   UNL     1      31.674 -22.698 -14.629  0.00  0.00    -0.480 OA
ATOM     39  H   UNL     1      32.511 -22.366 -14.374  0.00  0.00    +0.295 HD
ENDBRANCH  37  38
ENDBRANCH  35  37
ENDBRANCH  31  35
ENDBRANCH  26  31
ENDBRANCH  24  25
ENDBRANCH  23  24
ENDBRANCH   6  23
TORSDOF 10
ENDMDL
MODEL 5
REMARK VINA RESULT:     -12.2      1.523      2.690
REMARK  Name = 51049992
REMARK  10 active torsions:
REMARK  status: ('A' for Active; 'I' for Inactive)
REMARK    1  A    between atoms: C_1  and  C_7
REMARK    2  A    between atoms: C_6  and  C_23
REMARK    3  A    between atoms: C_7  and  N_8
REMARK    4  A    between atoms: C_23  and  O_24
REMARK    5  A    between atoms: O_24  and  C_25
REMARK    6  A    between atoms: C_26  and  C_31
REMARK    7  A    between atoms: C_31  and  C_32
REMARK    8  A    between atoms: C_31  and  C_35
REMARK    9  A    between atoms: C_35  and  C_37
REMARK   10  A    between atoms: C_37  and  O_38
REMARK                            x       y       z     vdW  Elec       q    Type
REMARK                         _______ _______ _______ _____ _____    ______ ____
ROOT
ATOM      1  C   UNL     1      35.380 -18.430 -22.609  0.00  0.00    -0.043 C 
ATOM      2  C   UNL     1      34.484 -19.368 -22.096  0.00  0.00    -0.007 C 
ATOM      3  C   UNL     1      36.664 -18.327 -22.071  0.00  0.00    -0.007 C 
ATOM      4  C   UNL     1      34.870 -20.202 -21.047  0.00  0.00    -0.001 C 
ATOM      5  C   UNL     1      37.050 -19.161 -21.022  0.00  0.00    -0.001 C 
ATOM      6  C   UNL     1      36.153 -20.098 -20.510  0.00  0.00    +0.021 C 
ENDROOT
BRANCH   1   7
ATOM      7  C   UNL     1      34.963 -17.530 -23.740  0.00  0.00    -0.050 C 
BRANCH   7   8
ATOM      8  N   UNL     1      34.192 -16.380 -23.266  0.00  0.00    +0.390 N 
ATOM      9  C   UNL     1      33.504 -13.525 -23.019  0.00  0.00    +0.033 C 
ATOM     10  C   UNL     1      32.717 -14.500 -23.913  0.00  0.00    -0.015 C 
ATOM     11  C   UNL     1      34.240 -14.305 -21.915  0.00  0.00    -0.015 C 
ATOM     12  C   UNL     1      35.045 -15.483 -22.473  0.00  0.00    -0.076 C 
ATOM     13  C   UNL     1      33.579 -15.671 -24.396  0.00  0.00    -0.076 C 
ATOM     14  C   UNL     1      32.613 -12.443 -22.445  0.00  0.00    -0.019 C 
ATOM     15  C   UNL     1      34.468 -12.665 -23.836  0.00  0.00    -0.023 C 
ATOM     16  C   UNL     1      33.045 -11.186 -22.895  0.00  0.00    -0.004 C 
ATOM     17  C   UNL     1      34.198 -11.353 -23.757  0.00  0.00    -0.005 C 
ATOM     18  C   UNL     1      31.519 -12.556 -21.601  0.00  0.00    -0.004 C 
ATOM     19  C   UNL     1      32.396 -10.023 -22.514  0.00  0.00    -0.000 C 
ATOM     20  C   UNL     1      30.858 -11.388 -21.211  0.00  0.00    -0.000 C 
ATOM     21  C   UNL     1      31.293 -10.132 -21.664  0.00  0.00    -0.000 C 
ATOM     22  H   UNL     1      33.443 -16.714 -22.662  0.00  0.00    -0.079 HD
ENDBRANCH   7   8
ENDBRANCH   1   7
BRANCH   6  23
ATOM     23  C   UNL     1      36.568 -20.992 -19.391  0.00  0.00    +0.232 C 
BRANCH  23  24
ATOM     24  O   UNL     1      35.411 -21.455 -18.702  0.00  0.00    -0.471 OA
BRANCH  24  25
ATOM     25  C   UNL     1      35.623 -22.186 -17.563  0.00  0.00    +0.139 C 
ATOM     26  C   UNL     1      36.052 -23.672 -15.242  0.00  0.00    -0.010 C 
ATOM     27  C   UNL     1      34.597 -22.973 -17.039  0.00  0.00    +0.037 C 
ATOM     28  C   UNL     1      36.863 -22.142 -16.927  0.00  0.00    +0.037 C 
ATOM     29  C   UNL     1      34.812 -23.716 -15.878  0.00  0.00    -0.000 C 
ATOM     30  C   UNL     1      37.078 -22.885 -15.765  0.00  0.00    -0.000 C 
BRANCH  26  31
ATOM     31  C   UNL     1      36.283 -24.466 -14.001  0.00  0.00    +0.097 C 
BRANCH  31  32
ATOM     32  C   UNL     1      37.663 -25.022 -13.952  0.00  0.00    -0.087 C 
ATOM     33  C   UNL     1      38.775 -25.479 -13.928  0.00  0.00    -0.090 C 
ATOM     34  C   UNL     1      40.125 -26.037 -13.898  0.00  0.00    +0.090 C 
ENDBRANCH  31  32
BRANCH  31  35
ATOM     35  C   UNL     1      35.995 -23.647 -12.713  0.00  0.00    +0.127 C 
BRANCH  35  37
ATOM     36  O   UNL     1      36.831 -24.397 -10.547  0.00  0.00    -0.250 OA
ATOM     37  C   UNL     1      35.999 -24.470 -11.440  0.00  0.00    +0.315 C 
BRANCH  37  38
ATOM     38  O   UNL     1      34.935 -25.315 -11.394  0.00  0.00    -0.480 OA
ATOM     39  H   UNL     1      34.415 -25.455 -12.160  0.00  0.00    +0.295 HD
ENDBRANCH  37  38
ENDBRANCH  35  37
ENDBRANCH  31  35
ENDBRANCH  26  31
ENDBRANCH  24  25
ENDBRANCH  23  24
ENDBRANCH   6  23
TORSDOF 10
ENDMDL
MODEL 6
REMARK VINA RESULT:     -12.0      2.950      6.102
REMARK  Name = 51049992
REMARK  10 active torsions:
REMARK  status: ('A' for Active; 'I' for Inactive)
REMARK    1  A    between atoms: C_1  and  C_7
REMARK    2  A    between atoms: C_6  and  C_23
REMARK    3  A    between atoms: C_7  and  N_8
REMARK    4  A    between atoms: C_23  and  O_24
REMARK    5  A    between atoms: O_24  and  C_25
REMARK    6  A    between atoms: C_26  and  C_31
REMARK    7  A    between atoms: C_31  and  C_32
REMARK    8  A    between atoms: C_31  and  C_35
REMARK    9  A    between atoms: C_35  and  C_37
REMARK   10  A    between atoms: C_37  and  O_38
REMARK                            x       y       z     vdW  Elec       q    Type
REMARK                         _______ _______ _______ _____ _____    ______ ____
ROOT
ATOM      1  C   UNL     1      33.007 -13.222 -22.481  0.00  0.00    -0.043 C 
ATOM      2  C   UNL     1      33.050 -13.663 -23.804  0.00  0.00    -0.007 C 
ATOM      3  C   UNL     1      33.631 -13.965 -21.478  0.00  0.00    -0.007 C 
ATOM      4  C   UNL     1      33.717 -14.845 -24.124  0.00  0.00    -0.001 C 
ATOM      5  C   UNL     1      34.297 -15.147 -21.798  0.00  0.00    -0.001 C 
ATOM      6  C   UNL     1      34.340 -15.587 -23.121  0.00  0.00    +0.021 C 
ENDROOT
BRANCH   1   7
ATOM      7  C   UNL     1      32.287 -11.946 -22.136  0.00  0.00    -0.050 C 
BRANCH   7   8
ATOM      8  N   UNL     1      32.629 -10.862 -23.058  0.00  0.00    +0.390 N 
ATOM      9  C   UNL     1      33.229  -8.081 -23.832  0.00  0.00    +0.033 C 
ATOM     10  C   UNL     1      34.317  -9.158 -23.676  0.00  0.00    -0.015 C 
ATOM     11  C   UNL     1      31.867  -8.748 -24.100  0.00  0.00    -0.015 C 
ATOM     12  C   UNL     1      31.555  -9.859 -23.092  0.00  0.00    -0.076 C 
ATOM     13  C   UNL     1      33.913 -10.254 -22.683  0.00  0.00    -0.076 C 
ATOM     14  C   UNL     1      33.584  -7.074 -24.906  0.00  0.00    -0.019 C 
ATOM     15  C   UNL     1      33.171  -7.159 -22.615  0.00  0.00    -0.023 C 
ATOM     16  C   UNL     1      33.697  -5.797 -24.337  0.00  0.00    -0.004 C 
ATOM     17  C   UNL     1      33.437  -5.878 -22.913  0.00  0.00    -0.005 C 
ATOM     18  C   UNL     1      33.788  -7.266 -26.263  0.00  0.00    -0.004 C 
ATOM     19  C   UNL     1      34.017  -4.691 -25.108  0.00  0.00    -0.000 C 
ATOM     20  C   UNL     1      34.110  -6.157 -27.049  0.00  0.00    -0.000 C 
ATOM     21  C   UNL     1      34.223  -4.880 -26.476  0.00  0.00    -0.000 C 
ATOM     22  H   UNL     1      32.727 -11.247 -23.996  0.00  0.00    -0.079 HD
ENDBRANCH   7   8
ENDBRANCH   1   7
BRANCH   6  23
ATOM     23  C   UNL     1      35.056 -16.850 -23.463  0.00  0.00    +0.232 C 
BRANCH  23  24
ATOM     24  O   UNL     1      36.006 -17.146 -22.446  0.00  0.00    -0.471 OA
BRANCH  24  25
ATOM     25  C   UNL     1      35.805 -18.295 -21.729  0.00  0.00    +0.139 C 
ATOM     26  C   UNL     1      35.395 -20.638 -20.271  0.00  0.00    -0.010 C 
ATOM     27  C   UNL     1      36.858 -18.867 -21.015  0.00  0.00    +0.037 C 
ATOM     28  C   UNL     1      34.546 -18.897 -21.713  0.00  0.00    +0.037 C 
ATOM     29  C   UNL     1      36.654 -20.038 -20.286  0.00  0.00    -0.000 C 
ATOM     30  C   UNL     1      34.341 -20.068 -20.985  0.00  0.00    -0.000 C 
BRANCH  26  31
ATOM     31  C   UNL     1      35.175 -21.891 -19.491  0.00  0.00    +0.097 C 
BRANCH  31  32
ATOM     32  C   UNL     1      36.024 -21.934 -18.269  0.00  0.00    -0.087 C 
ATOM     33  C   UNL     1      36.696 -21.965 -17.273  0.00  0.00    -0.090 C 
ATOM     34  C   UNL     1      37.513 -21.999 -16.062  0.00  0.00    +0.090 C 
ENDBRANCH  31  32
BRANCH  31  35
ATOM     35  C   UNL     1      33.684 -22.094 -19.109  0.00  0.00    +0.127 C 
BRANCH  35  37
ATOM     36  O   UNL     1      33.013 -23.186 -17.032  0.00  0.00    -0.250 OA
ATOM     37  C   UNL     1      33.436 -23.264 -18.177  0.00  0.00    +0.315 C 
BRANCH  37  38
ATOM     38  O   UNL     1      33.731 -24.446 -18.779  0.00  0.00    -0.480 OA
ATOM     39  H   UNL     1      34.062 -25.160 -18.273  0.00  0.00    +0.295 HD
ENDBRANCH  37  38
ENDBRANCH  35  37
ENDBRANCH  31  35
ENDBRANCH  26  31
ENDBRANCH  24  25
ENDBRANCH  23  24
ENDBRANCH   6  23
TORSDOF 10
ENDMDL
MODEL 7
REMARK VINA RESULT:     -11.9      5.545     14.402
REMARK  Name = 51049992
REMARK  10 active torsions:
REMARK  status: ('A' for Active; 'I' for Inactive)
REMARK    1  A    between atoms: C_1  and  C_7
REMARK    2  A    between atoms: C_6  and  C_23
REMARK    3  A    between atoms: C_7  and  N_8
REMARK    4  A    between atoms: C_23  and  O_24
REMARK    5  A    between atoms: O_24  and  C_25
REMARK    6  A    between atoms: C_26  and  C_31
REMARK    7  A    between atoms: C_31  and  C_32
REMARK    8  A    between atoms: C_31  and  C_35
REMARK    9  A    between atoms: C_35  and  C_37
REMARK   10  A    between atoms: C_37  and  O_38
REMARK                            x       y       z     vdW  Elec       q    Type
REMARK                         _______ _______ _______ _____ _____    ______ ____
ROOT
ATOM      1  C   UNL     1      33.792 -13.840 -23.282  0.00  0.00    -0.043 C 
ATOM      2  C   UNL     1      33.877 -12.588 -23.892  0.00  0.00    -0.007 C 
ATOM      3  C   UNL     1      32.913 -14.036 -22.216  0.00  0.00    -0.007 C 
ATOM      4  C   UNL     1      33.084 -11.535 -23.438  0.00  0.00    -0.001 C 
ATOM      5  C   UNL     1      32.120 -12.983 -21.762  0.00  0.00    -0.001 C 
ATOM      6  C   UNL     1      32.206 -11.732 -22.373  0.00  0.00    +0.021 C 
ENDROOT
BRANCH   1   7
ATOM      7  C   UNL     1      34.648 -14.976 -23.772  0.00  0.00    -0.050 C 
BRANCH   7   8
ATOM      8  N   UNL     1      34.438 -16.194 -22.988  0.00  0.00    +0.390 N 
ATOM      9  C   UNL     1      35.253 -18.572 -21.449  0.00  0.00    +0.033 C 
ATOM     10  C   UNL     1      34.734 -17.284 -20.785  0.00  0.00    -0.015 C 
ATOM     11  C   UNL     1      34.752 -18.649 -22.903  0.00  0.00    -0.015 C 
ATOM     12  C   UNL     1      35.017 -17.354 -23.679  0.00  0.00    -0.076 C 
ATOM     13  C   UNL     1      35.001 -16.040 -21.641  0.00  0.00    -0.076 C 
ATOM     14  C   UNL     1      34.873 -19.805 -20.657  0.00  0.00    -0.019 C 
ATOM     15  C   UNL     1      36.776 -18.670 -21.375  0.00  0.00    -0.023 C 
ATOM     16  C   UNL     1      36.033 -20.465 -20.224  0.00  0.00    -0.004 C 
ATOM     17  C   UNL     1      37.201 -19.738 -20.683  0.00  0.00    -0.005 C 
ATOM     18  C   UNL     1      33.617 -20.302 -20.345  0.00  0.00    -0.004 C 
ATOM     19  C   UNL     1      35.963 -21.628 -19.475  0.00  0.00    -0.000 C 
ATOM     20  C   UNL     1      33.536 -21.475 -19.590  0.00  0.00    -0.000 C 
ATOM     21  C   UNL     1      34.700 -22.132 -19.158  0.00  0.00    -0.000 C 
ATOM     22  H   UNL     1      33.436 -16.354 -22.893  0.00  0.00    -0.079 HD
ENDBRANCH   7   8
ENDBRANCH   1   7
BRANCH   6  23
ATOM     23  C   UNL     1      31.356 -10.607 -21.889  0.00  0.00    +0.232 C 
BRANCH  23  24
ATOM     24  O   UNL     1      32.188  -9.536 -21.457  0.00  0.00    -0.471 OA
BRANCH  24  25
ATOM     25  C   UNL     1      32.475  -8.567 -22.381  0.00  0.00    +0.139 C 
ATOM     26  C   UNL     1      33.059  -6.589 -24.260  0.00  0.00    -0.010 C 
ATOM     27  C   UNL     1      33.710  -7.918 -22.351  0.00  0.00    +0.037 C 
ATOM     28  C   UNL     1      31.532  -8.226 -23.350  0.00  0.00    +0.037 C 
ATOM     29  C   UNL     1      34.002  -6.930 -23.291  0.00  0.00    -0.000 C 
ATOM     30  C   UNL     1      31.824  -7.236 -24.290  0.00  0.00    -0.000 C 
BRANCH  26  31
ATOM     31  C   UNL     1      33.370  -5.532 -25.266  0.00  0.00    +0.097 C 
BRANCH  31  32
ATOM     32  C   UNL     1      32.844  -4.204 -24.848  0.00  0.00    -0.087 C 
ATOM     33  C   UNL     1      32.435  -3.127 -24.503  0.00  0.00    -0.090 C 
ATOM     34  C   UNL     1      31.938  -1.819 -24.081  0.00  0.00    +0.090 C 
ENDBRANCH  31  32
BRANCH  31  35
ATOM     35  C   UNL     1      34.890  -5.432 -25.565  0.00  0.00    +0.127 C 
BRANCH  35  37
ATOM     36  O   UNL     1      36.360  -5.722 -27.492  0.00  0.00    -0.250 OA
ATOM     37  C   UNL     1      35.285  -5.922 -26.944  0.00  0.00    +0.315 C 
BRANCH  37  38
ATOM     38  O   UNL     1      34.285  -6.644 -27.517  0.00  0.00    -0.480 OA
ATOM     39  H   UNL     1      33.393  -6.461 -27.300  0.00  0.00    +0.295 HD
ENDBRANCH  37  38
ENDBRANCH  35  37
ENDBRANCH  31  35
ENDBRANCH  26  31
ENDBRANCH  24  25
ENDBRANCH  23  24
ENDBRANCH   6  23
TORSDOF 10
ENDMDL
MODEL 8
REMARK VINA RESULT:     -11.6      3.575      7.521
REMARK  Name = 51049992
REMARK  10 active torsions:
REMARK  status: ('A' for Active; 'I' for Inactive)
REMARK    1  A    between atoms: C_1  and  C_7
REMARK    2  A    between atoms: C_6  and  C_23
REMARK    3  A    between atoms: C_7  and  N_8
REMARK    4  A    between atoms: C_23  and  O_24
REMARK    5  A    between atoms: O_24  and  C_25
REMARK    6  A    between atoms: C_26  and  C_31
REMARK    7  A    between atoms: C_31  and  C_32
REMARK    8  A    between atoms: C_31  and  C_35
REMARK    9  A    between atoms: C_35  and  C_37
REMARK   10  A    between atoms: C_37  and  O_38
REMARK                            x       y       z     vdW  Elec       q    Type
REMARK                         _______ _______ _______ _____ _____    ______ ____
ROOT
ATOM      1  C   UNL     1      32.546 -11.763 -22.162  0.00  0.00    -0.043 C 
ATOM      2  C   UNL     1      33.296 -11.621 -23.330  0.00  0.00    -0.007 C 
ATOM      3  C   UNL     1      32.349 -13.029 -21.611  0.00  0.00    -0.007 C 
ATOM      4  C   UNL     1      33.847 -12.744 -23.946  0.00  0.00    -0.001 C 
ATOM      5  C   UNL     1      32.900 -14.152 -22.226  0.00  0.00    -0.001 C 
ATOM      6  C   UNL     1      33.649 -14.010 -23.394  0.00  0.00    +0.021 C 
ENDROOT
BRANCH   1   7
ATOM      7  C   UNL     1      31.951 -10.550 -21.498  0.00  0.00    -0.050 C 
BRANCH   7   8
ATOM      8  N   UNL     1      32.217  -9.328 -22.258  0.00  0.00    +0.390 N 
ATOM      9  C   UNL     1      32.096  -6.439 -22.827  0.00  0.00    +0.033 C 
ATOM     10  C   UNL     1      33.350  -7.127 -22.260  0.00  0.00    -0.015 C 
ATOM     11  C   UNL     1      31.217  -7.471 -23.557  0.00  0.00    -0.015 C 
ATOM     12  C   UNL     1      30.957  -8.718 -22.705  0.00  0.00    -0.076 C 
ATOM     13  C   UNL     1      33.009  -8.387 -21.457  0.00  0.00    -0.076 C 
ATOM     14  C   UNL     1      32.451  -5.270 -23.722  0.00  0.00    -0.019 C 
ATOM     15  C   UNL     1      31.313  -5.707 -21.737  0.00  0.00    -0.023 C 
ATOM     16  C   UNL     1      31.929  -4.085 -23.182  0.00  0.00    -0.004 C 
ATOM     17  C   UNL     1      31.228  -4.385 -21.949  0.00  0.00    -0.005 C 
ATOM     18  C   UNL     1      33.171  -5.252 -24.907  0.00  0.00    -0.004 C 
ATOM     19  C   UNL     1      32.115  -2.864 -23.810  0.00  0.00    -0.000 C 
ATOM     20  C   UNL     1      33.362  -4.026 -25.548  0.00  0.00    -0.000 C 
ATOM     21  C   UNL     1      32.839  -2.842 -25.005  0.00  0.00    -0.000 C 
ATOM     22  H   UNL     1      32.759  -9.568 -23.087  0.00  0.00    -0.079 HD
ENDBRANCH   7   8
ENDBRANCH   1   7
BRANCH   6  23
ATOM     23  C   UNL     1      34.242 -15.211 -24.051  0.00  0.00    +0.232 C 
BRANCH  23  24
ATOM     24  O   UNL     1      35.313 -15.705 -23.255  0.00  0.00    -0.471 OA
BRANCH  24  25
ATOM     25  C   UNL     1      35.127 -16.924 -22.659  0.00  0.00    +0.139 C 
ATOM     26  C   UNL     1      34.752 -19.408 -21.445  0.00  0.00    -0.010 C 
ATOM     27  C   UNL     1      35.319 -17.066 -21.284  0.00  0.00    +0.037 C 
ATOM     28  C   UNL     1      34.747 -18.025 -23.426  0.00  0.00    +0.037 C 
ATOM     29  C   UNL     1      35.131 -18.307 -20.677  0.00  0.00    -0.000 C 
ATOM     30  C   UNL     1      34.560 -19.267 -22.819  0.00  0.00    -0.000 C 
BRANCH  26  31
ATOM     31  C   UNL     1      34.551 -20.736 -20.797  0.00  0.00    +0.097 C 
BRANCH  31  32
ATOM     32  C   UNL     1      35.547 -20.978 -19.717  0.00  0.00    -0.087 C 
ATOM     33  C   UNL     1      36.338 -21.174 -18.834  0.00  0.00    -0.090 C 
ATOM     34  C   UNL     1      37.299 -21.410 -17.759  0.00  0.00    +0.090 C 
ENDBRANCH  31  32
BRANCH  31  35
ATOM     35  C   UNL     1      33.111 -20.909 -20.240  0.00  0.00    +0.127 C 
BRANCH  35  37
ATOM     36  O   UNL     1      33.473 -23.161 -19.372  0.00  0.00    -0.250 OA
ATOM     37  C   UNL     1      32.959 -22.057 -19.262  0.00  0.00    +0.315 C 
BRANCH  37  38
ATOM     38  O   UNL     1      32.173 -21.708 -18.209  0.00  0.00    -0.480 OA
ATOM     39  H   UNL     1      32.420 -20.993 -17.658  0.00  0.00    +0.295 HD
ENDBRANCH  37  38
ENDBRANCH  35  37
ENDBRANCH  31  35
ENDBRANCH  26  31
ENDBRANCH  24  25
ENDBRANCH  23  24
ENDBRANCH   6  23
TORSDOF 10
ENDMDL
MODEL 9
REMARK VINA RESULT:     -11.4      3.781     12.692
REMARK  Name = 51049992
REMARK  10 active torsions:
REMARK  status: ('A' for Active; 'I' for Inactive)
REMARK    1  A    between atoms: C_1  and  C_7
REMARK    2  A    between atoms: C_6  and  C_23
REMARK    3  A    between atoms: C_7  and  N_8
REMARK    4  A    between atoms: C_23  and  O_24
REMARK    5  A    between atoms: O_24  and  C_25
REMARK    6  A    between atoms: C_26  and  C_31
REMARK    7  A    between atoms: C_31  and  C_32
REMARK    8  A    between atoms: C_31  and  C_35
REMARK    9  A    between atoms: C_35  and  C_37
REMARK   10  A    between atoms: C_37  and  O_38
REMARK                            x       y       z     vdW  Elec       q    Type
REMARK                         _______ _______ _______ _____ _____    ______ ____
ROOT
ATOM      1  C   UNL     1      33.830 -21.817 -19.009  0.00  0.00    -0.043 C 
ATOM      2  C   UNL     1      35.212 -21.720 -19.179  0.00  0.00    -0.007 C 
ATOM      3  C   UNL     1      32.980 -20.965 -19.715  0.00  0.00    -0.007 C 
ATOM      4  C   UNL     1      35.742 -20.773 -20.055  0.00  0.00    -0.001 C 
ATOM      5  C   UNL     1      33.511 -20.018 -20.591  0.00  0.00    -0.001 C 
ATOM      6  C   UNL     1      34.892 -19.922 -20.761  0.00  0.00    +0.021 C 
ENDROOT
BRANCH   1   7
ATOM      7  C   UNL     1      33.259 -22.838 -18.063  0.00  0.00    -0.050 C 
BRANCH   7   8
ATOM      8  N   UNL     1      34.026 -22.919 -16.820  0.00  0.00    +0.390 N 
ATOM      9  C   UNL     1      35.672 -24.235 -14.759  0.00  0.00    +0.033 C 
ATOM     10  C   UNL     1      36.260 -23.281 -15.814  0.00  0.00    -0.015 C 
ATOM     11  C   UNL     1      34.171 -23.947 -14.571  0.00  0.00    -0.015 C 
ATOM     12  C   UNL     1      33.418 -23.895 -15.905  0.00  0.00    -0.076 C 
ATOM     13  C   UNL     1      35.427 -23.254 -17.102  0.00  0.00    -0.076 C 
ATOM     14  C   UNL     1      36.428 -24.158 -13.449  0.00  0.00    -0.019 C 
ATOM     15  C   UNL     1      35.922 -25.698 -15.122  0.00  0.00    -0.023 C 
ATOM     16  C   UNL     1      36.997 -25.407 -13.158  0.00  0.00    -0.004 C 
ATOM     17  C   UNL     1      36.668 -26.345 -14.213  0.00  0.00    -0.005 C 
ATOM     18  C   UNL     1      36.598 -23.084 -12.590  0.00  0.00    -0.004 C 
ATOM     19  C   UNL     1      37.745 -25.608 -12.009  0.00  0.00    -0.000 C 
ATOM     20  C   UNL     1      37.351 -23.277 -11.428  0.00  0.00    -0.000 C 
ATOM     21  C   UNL     1      37.920 -24.528 -11.141  0.00  0.00    -0.000 C 
ATOM     22  H   UNL     1      34.007 -22.008 -16.363  0.00  0.00    -0.079 HD
ENDBRANCH   7   8
ENDBRANCH   1   7
BRANCH   6  23
ATOM     23  C   UNL     1      35.459 -18.912 -21.700  0.00  0.00    +0.232 C 
BRANCH  23  24
ATOM     24  O   UNL     1      35.773 -17.724 -20.983  0.00  0.00    -0.471 OA
BRANCH  24  25
ATOM     25  C   UNL     1      35.070 -16.597 -21.317  0.00  0.00    +0.139 C 
ATOM     26  C   UNL     1      33.635 -14.303 -21.998  0.00  0.00    -0.010 C 
ATOM     27  C   UNL     1      34.523 -15.794 -20.317  0.00  0.00    +0.037 C 
ATOM     28  C   UNL     1      34.899 -16.253 -22.658  0.00  0.00    +0.037 C 
ATOM     29  C   UNL     1      33.806 -14.646 -20.657  0.00  0.00    -0.000 C 
ATOM     30  C   UNL     1      34.182 -15.107 -22.999  0.00  0.00    -0.000 C 
BRANCH  26  31
ATOM     31  C   UNL     1      32.869 -13.077 -22.363  0.00  0.00    +0.097 C 
BRANCH  31  32
ATOM     32  C   UNL     1      32.444 -12.315 -21.157  0.00  0.00    -0.087 C 
ATOM     33  C   UNL     1      32.097 -11.686 -20.193  0.00  0.00    -0.090 C 
ATOM     34  C   UNL     1      31.677 -10.919 -19.022  0.00  0.00    +0.090 C 
ENDBRANCH  31  32
BRANCH  31  35
ATOM     35  C   UNL     1      33.660 -12.151 -23.326  0.00  0.00    +0.127 C 
BRANCH  35  37
ATOM     36  O   UNL     1      31.997 -10.369 -23.436  0.00  0.00    -0.250 OA
ATOM     37  C   UNL     1      33.166 -10.718 -23.355  0.00  0.00    +0.315 C 
BRANCH  37  38
ATOM     38  O   UNL     1      34.198  -9.838 -23.264  0.00  0.00    -0.480 OA
ATOM     39  H   UNL     1      34.483  -9.536 -22.425  0.00  0.00    +0.295 HD
ENDBRANCH  37  38
ENDBRANCH  35  37
ENDBRANCH  31  35
ENDBRANCH  26  31
ENDBRANCH  24  25
ENDBRANCH  23  24
ENDBRANCH   6  23
TORSDOF 10
ENDMDL
