MODEL 1
REMARK VINA RESULT:     -12.7      0.000      0.000
REMARK  Name = 10430360
REMARK  6 active torsions:
REMARK  status: ('A' for Active; 'I' for Inactive)
REMARK    1  A    between atoms: C_4  and  C_18
REMARK    2  A    between atoms: C_7  and  C_14
REMARK    3  A    between atoms: C_17  and  O_23
REMARK    4  A    between atoms: O_23  and  C_24
REMARK    5  A    between atoms: C_24  and  C_25
REMARK    6  A    between atoms: C_25  and  N_26
REMARK                            x       y       z     vdW  Elec       q    Type
REMARK                         _______ _______ _______ _____ _____    ______ ____
ROOT
ATOM      1  N   UNL     1      33.706 -25.076 -13.252  0.00  0.00    -0.276 N 
ATOM      2  N   UNL     1      34.688 -24.578 -14.023  0.00  0.00    -0.173 NA
ATOM      3  C   UNL     1      32.626 -24.041 -14.855  0.00  0.00    +0.036 A 
ATOM      4  C   UNL     1      34.029 -23.947 -15.001  0.00  0.00    +0.102 A 
ATOM      5  C   UNL     1      32.444 -24.789 -13.698  0.00  0.00    +0.075 A 
ATOM      6  C   UNL     1      31.500 -23.585 -15.563  0.00  0.00    +0.006 C 
ATOM      7  C   UNL     1      30.228 -23.903 -15.072  0.00  0.00    +0.033 C 
ATOM      8  C   UNL     1      31.185 -25.117 -13.192  0.00  0.00    +0.019 C 
ATOM      9  C   UNL     1      30.075 -24.656 -13.907  0.00  0.00    +0.004 C 
ATOM     10  H   UNL     1      33.881 -25.602 -12.439  0.00  0.00    +0.189 HD
ENDROOT
BRANCH   7  14
ATOM     11  N   UNL     1      28.631 -24.011 -16.942  0.00  0.00    -0.218 N 
ATOM     12  N   UNL     1      28.262 -22.460 -15.448  0.00  0.00    -0.206 NA
ATOM     13  N   UNL     1      27.526 -23.400 -17.398  0.00  0.00    -0.157 NA
ATOM     14  C   UNL     1      29.058 -23.445 -15.784  0.00  0.00    +0.149 C 
ATOM     15  C   UNL     1      27.344 -22.470 -16.460  0.00  0.00    +0.218 C 
ATOM     16  H   UNL     1      29.071 -24.770 -17.388  0.00  0.00    +0.176 HD
ENDBRANCH   7  14
BRANCH   4  18
ATOM     17  C   UNL     1      34.859 -22.415 -18.290  0.00  0.00    +0.138 C 
ATOM     18  C   UNL     1      34.751 -23.271 -16.043  0.00  0.00    +0.022 C 
ATOM     19  C   UNL     1      34.154 -23.070 -17.288  0.00  0.00    +0.038 C 
ATOM     20  C   UNL     1      36.153 -21.959 -18.065  0.00  0.00    +0.037 C 
ATOM     21  C   UNL     1      36.048 -22.817 -15.809  0.00  0.00    +0.002 C 
ATOM     22  C   UNL     1      36.750 -22.160 -16.820  0.00  0.00    +0.003 C 
BRANCH  17  23
ATOM     23  O   UNL     1      34.273 -22.216 -19.513  0.00  0.00    -0.478 OA
BRANCH  23  24
ATOM     24  C   UNL     1      33.988 -20.871 -19.876  0.00  0.00    +0.183 C 
BRANCH  24  25
ATOM     25  C   UNL     1      35.152 -20.328 -20.690  0.00  0.00    -0.029 C 
BRANCH  25  26
ATOM     26  N   UNL     1      34.707 -19.243 -21.565  0.00  0.00    +0.389 N 
ATOM     27  C   UNL     1      35.545 -18.051 -21.373  0.00  0.00    -0.077 C 
ATOM     28  C   UNL     1      34.715 -19.679 -22.969  0.00  0.00    -0.077 C 
ATOM     29  C   UNL     1      35.062 -16.892 -22.246  0.00  0.00    -0.023 C 
ATOM     30  C   UNL     1      34.206 -18.572 -23.893  0.00  0.00    -0.023 C 
ATOM     31  C   UNL     1      35.009 -17.288 -23.717  0.00  0.00    -0.004 C 
ATOM     32  H   UNL     1      33.748 -18.996 -21.319  0.00  0.00    -0.080 HD
ENDBRANCH  25  26
ENDBRANCH  24  25
ENDBRANCH  23  24
ENDBRANCH  17  23
ENDBRANCH   4  18
TORSDOF 6
ENDMDL
MODEL 2
REMARK VINA RESULT:     -12.1      1.900      4.437
REMARK  Name = 10430360
REMARK  6 active torsions:
REMARK  status: ('A' for Active; 'I' for Inactive)
REMARK    1  A    between atoms: C_4  and  C_18
REMARK    2  A    between atoms: C_7  and  C_14
REMARK    3  A    between atoms: C_17  and  O_23
REMARK    4  A    between atoms: O_23  and  C_24
REMARK    5  A    between atoms: C_24  and  C_25
REMARK    6  A    between atoms: C_25  and  N_26
REMARK                            x       y       z     vdW  Elec       q    Type
REMARK                         _______ _______ _______ _____ _____    ______ ____
ROOT
ATOM      1  N   UNL     1      31.157 -23.335 -16.713  0.00  0.00    -0.276 N 
ATOM      2  N   UNL     1      31.923 -22.781 -17.669  0.00  0.00    -0.173 NA
ATOM      3  C   UNL     1      33.180 -23.439 -15.873  0.00  0.00    +0.036 A 
ATOM      4  C   UNL     1      33.157 -22.844 -17.156  0.00  0.00    +0.102 A 
ATOM      5  C   UNL     1      31.851 -23.751 -15.609  0.00  0.00    +0.075 A 
ATOM      6  C   UNL     1      34.162 -23.746 -14.916  0.00  0.00    +0.006 C 
ATOM      7  C   UNL     1      33.763 -24.359 -13.722  0.00  0.00    +0.033 C 
ATOM      8  C   UNL     1      31.432 -24.362 -14.425  0.00  0.00    +0.019 C 
ATOM      9  C   UNL     1      32.421 -24.660 -13.482  0.00  0.00    +0.004 C 
ATOM     10  H   UNL     1      30.181 -23.433 -16.801  0.00  0.00    +0.189 HD
ENDROOT
BRANCH   7  14
ATOM     11  N   UNL     1      35.683 -25.659 -12.894  0.00  0.00    -0.218 N 
ATOM     12  N   UNL     1      34.915 -24.115 -11.553  0.00  0.00    -0.206 NA
ATOM     13  N   UNL     1      36.483 -25.756 -11.821  0.00  0.00    -0.157 NA
ATOM     14  C   UNL     1      34.756 -24.681 -12.724  0.00  0.00    +0.149 C 
ATOM     15  C   UNL     1      35.977 -24.802 -11.040  0.00  0.00    +0.218 C 
ATOM     16  H   UNL     1      35.759 -26.222 -13.698  0.00  0.00    +0.176 HD
ENDBRANCH   7  14
BRANCH   4  18
ATOM     17  C   UNL     1      35.163 -21.231 -19.844  0.00  0.00    +0.138 C 
ATOM     18  C   UNL     1      34.277 -22.341 -17.900  0.00  0.00    +0.022 C 
ATOM     19  C   UNL     1      34.073 -21.716 -19.131  0.00  0.00    +0.038 C 
ATOM     20  C   UNL     1      36.454 -21.363 -19.344  0.00  0.00    +0.037 C 
ATOM     21  C   UNL     1      35.569 -22.477 -17.392  0.00  0.00    +0.002 C 
ATOM     22  C   UNL     1      36.657 -21.988 -18.114  0.00  0.00    +0.003 C 
BRANCH  17  23
ATOM     23  O   UNL     1      34.963 -20.616 -21.052  0.00  0.00    -0.478 OA
BRANCH  23  24
ATOM     24  C   UNL     1      34.826 -19.200 -21.036  0.00  0.00    +0.183 C 
BRANCH  24  25
ATOM     25  C   UNL     1      36.077 -18.581 -21.638  0.00  0.00    -0.029 C 
BRANCH  25  26
ATOM     26  N   UNL     1      35.728 -17.468 -22.520  0.00  0.00    +0.389 N 
ATOM     27  C   UNL     1      34.894 -17.937 -23.636  0.00  0.00    -0.077 C 
ATOM     28  C   UNL     1      35.054 -16.404 -21.763  0.00  0.00    -0.077 C 
ATOM     29  C   UNL     1      34.561 -16.793 -24.594  0.00  0.00    -0.023 C 
ATOM     30  C   UNL     1      34.726 -15.210 -22.662  0.00  0.00    -0.023 C 
ATOM     31  C   UNL     1      33.892 -15.634 -23.865  0.00  0.00    -0.004 C 
ATOM     32  H   UNL     1      36.587 -17.079 -22.911  0.00  0.00    -0.080 HD
ENDBRANCH  25  26
ENDBRANCH  24  25
ENDBRANCH  23  24
ENDBRANCH  17  23
ENDBRANCH   4  18
TORSDOF 6
ENDMDL
MODEL 3
REMARK VINA RESULT:     -11.9      2.198      4.966
REMARK  Name = 10430360
REMARK  6 active torsions:
REMARK  status: ('A' for Active; 'I' for Inactive)
REMARK    1  A    between atoms: C_4  and  C_18
REMARK    2  A    between atoms: C_7  and  C_14
REMARK    3  A    between atoms: C_17  and  O_23
REMARK    4  A    between atoms: O_23  and  C_24
REMARK    5  A    between atoms: C_24  and  C_25
REMARK    6  A    between atoms: C_25  and  N_26
REMARK                            x       y       z     vdW  Elec       q    Type
REMARK                         _______ _______ _______ _____ _____    ______ ____
ROOT
ATOM      1  N   UNL     1      31.584 -23.310 -16.830  0.00  0.00    -0.276 N 
ATOM      2  N   UNL     1      32.139 -22.686 -17.883  0.00  0.00    -0.173 NA
ATOM      3  C   UNL     1      33.713 -23.216 -16.309  0.00  0.00    +0.036 A 
ATOM      4  C   UNL     1      33.437 -22.628 -17.565  0.00  0.00    +0.102 A 
ATOM      5  C   UNL     1      32.476 -23.655 -15.850  0.00  0.00    +0.075 A 
ATOM      6  C   UNL     1      34.855 -23.425 -15.517  0.00  0.00    +0.006 C 
ATOM      7  C   UNL     1      34.704 -24.072 -14.284  0.00  0.00    +0.033 C 
ATOM      8  C   UNL     1      32.304 -24.302 -14.624  0.00  0.00    +0.019 C 
ATOM      9  C   UNL     1      33.450 -24.502 -13.847  0.00  0.00    +0.004 C 
ATOM     10  H   UNL     1      30.621 -23.502 -16.769  0.00  0.00    +0.189 HD
ENDROOT
BRANCH   7  14
ATOM     11  N   UNL     1      36.982 -23.527 -13.525  0.00  0.00    -0.218 N 
ATOM     12  N   UNL     1      36.019 -25.226 -12.545  0.00  0.00    -0.206 NA
ATOM     13  N   UNL     1      37.910 -23.944 -12.650  0.00  0.00    -0.157 NA
ATOM     14  C   UNL     1      35.864 -24.295 -13.453  0.00  0.00    +0.149 C 
ATOM     15  C   UNL     1      37.280 -24.973 -12.083  0.00  0.00    +0.218 C 
ATOM     16  H   UNL     1      37.096 -22.764 -14.137  0.00  0.00    +0.176 HD
ENDBRANCH   7  14
BRANCH   4  18
ATOM     17  C   UNL     1      34.838 -20.624 -20.371  0.00  0.00    +0.138 C 
ATOM     18  C   UNL     1      34.376 -22.019 -18.465  0.00  0.00    +0.022 C 
ATOM     19  C   UNL     1      33.922 -21.209 -19.505  0.00  0.00    +0.038 C 
ATOM     20  C   UNL     1      36.202 -20.837 -20.210  0.00  0.00    +0.037 C 
ATOM     21  C   UNL     1      35.743 -22.238 -18.297  0.00  0.00    +0.002 C 
ATOM     22  C   UNL     1      36.657 -21.647 -19.170  0.00  0.00    +0.003 C 
BRANCH  17  23
ATOM     23  O   UNL     1      34.392 -19.827 -21.393  0.00  0.00    -0.478 OA
BRANCH  23  24
ATOM     24  C   UNL     1      34.964 -18.528 -21.489  0.00  0.00    +0.183 C 
BRANCH  24  25
ATOM     25  C   UNL     1      35.537 -18.349 -22.886  0.00  0.00    -0.029 C 
BRANCH  25  26
ATOM     26  N   UNL     1      35.230 -17.016 -23.403  0.00  0.00    +0.389 N 
ATOM     27  C   UNL     1      34.161 -17.087 -24.409  0.00  0.00    -0.077 C 
ATOM     28  C   UNL     1      34.866 -16.110 -22.304  0.00  0.00    -0.077 C 
ATOM     29  C   UNL     1      33.861 -15.707 -24.994  0.00  0.00    -0.023 C 
ATOM     30  C   UNL     1      34.590 -14.697 -22.822  0.00  0.00    -0.023 C 
ATOM     31  C   UNL     1      33.513 -14.703 -23.901  0.00  0.00    -0.004 C 
ATOM     32  H   UNL     1      36.063 -16.640 -23.856  0.00  0.00    -0.080 HD
ENDBRANCH  25  26
ENDBRANCH  24  25
ENDBRANCH  23  24
ENDBRANCH  17  23
ENDBRANCH   4  18
TORSDOF 6
ENDMDL
MODEL 4
REMARK VINA RESULT:     -11.8      2.181      3.972
REMARK  Name = 10430360
REMARK  6 active torsions:
REMARK  status: ('A' for Active; 'I' for Inactive)
REMARK    1  A    between atoms: C_4  and  C_18
REMARK    2  A    between atoms: C_7  and  C_14
REMARK    3  A    between atoms: C_17  and  O_23
REMARK    4  A    between atoms: O_23  and  C_24
REMARK    5  A    between atoms: C_24  and  C_25
REMARK    6  A    between atoms: C_25  and  N_26
REMARK                            x       y       z     vdW  Elec       q    Type
REMARK                         _______ _______ _______ _____ _____    ______ ____
ROOT
ATOM      1  N   UNL     1      37.568 -23.059 -16.002  0.00  0.00    -0.276 N 
ATOM      2  N   UNL     1      37.281 -22.440 -17.160  0.00  0.00    -0.173 NA
ATOM      3  C   UNL     1      35.377 -23.106 -16.079  0.00  0.00    +0.036 A 
ATOM      4  C   UNL     1      35.944 -22.469 -17.207  0.00  0.00    +0.102 A 
ATOM      5  C   UNL     1      36.468 -23.484 -15.306  0.00  0.00    +0.075 A 
ATOM      6  C   UNL     1      34.079 -23.404 -15.630  0.00  0.00    +0.006 C 
ATOM      7  C   UNL     1      33.931 -24.075 -14.410  0.00  0.00    +0.033 C 
ATOM      8  C   UNL     1      36.343 -24.154 -14.087  0.00  0.00    +0.019 C 
ATOM      9  C   UNL     1      35.045 -24.443 -13.653  0.00  0.00    +0.004 C 
ATOM     10  H   UNL     1      38.489 -23.196 -15.683  0.00  0.00    +0.189 HD
ENDROOT
BRANCH   7  14
ATOM     11  N   UNL     1      32.362 -25.399 -13.052  0.00  0.00    -0.218 N 
ATOM     12  N   UNL     1      31.486 -23.794 -14.248  0.00  0.00    -0.206 NA
ATOM     13  N   UNL     1      31.052 -25.483 -12.769  0.00  0.00    -0.157 NA
ATOM     14  C   UNL     1      32.607 -24.392 -13.930  0.00  0.00    +0.149 C 
ATOM     15  C   UNL     1      30.567 -24.492 -13.517  0.00  0.00    +0.218 C 
ATOM     16  H   UNL     1      33.052 -25.988 -12.671  0.00  0.00    +0.176 HD
ENDBRANCH   7  14
BRANCH   4  18
ATOM     17  C   UNL     1      35.261 -20.582 -20.342  0.00  0.00    +0.138 C 
ATOM     18  C   UNL     1      35.246 -21.888 -18.319  0.00  0.00    +0.022 C 
ATOM     19  C   UNL     1      35.944 -21.140 -19.268  0.00  0.00    +0.038 C 
ATOM     20  C   UNL     1      33.889 -20.762 -20.480  0.00  0.00    +0.037 C 
ATOM     21  C   UNL     1      33.870 -22.073 -18.452  0.00  0.00    +0.002 C 
ATOM     22  C   UNL     1      33.191 -21.510 -19.532  0.00  0.00    +0.003 C 
BRANCH  17  23
ATOM     23  O   UNL     1      35.946 -19.848 -21.274  0.00  0.00    -0.478 OA
BRANCH  23  24
ATOM     24  C   UNL     1      35.194 -18.903 -22.025  0.00  0.00    +0.183 C 
BRANCH  24  25
ATOM     25  C   UNL     1      35.526 -17.506 -21.524  0.00  0.00    -0.029 C 
BRANCH  25  26
ATOM     26  N   UNL     1      35.275 -16.511 -22.567  0.00  0.00    +0.389 N 
ATOM     27  C   UNL     1      34.546 -17.116 -23.691  0.00  0.00    -0.077 C 
ATOM     28  C   UNL     1      34.545 -15.362 -22.016  0.00  0.00    -0.077 C 
ATOM     29  C   UNL     1      34.319 -16.100 -24.811  0.00  0.00    -0.023 C 
ATOM     30  C   UNL     1      34.317 -14.289 -23.082  0.00  0.00    -0.023 C 
ATOM     31  C   UNL     1      33.596 -14.860 -24.298  0.00  0.00    -0.004 C 
ATOM     32  H   UNL     1      36.172 -16.174 -22.919  0.00  0.00    -0.080 HD
ENDBRANCH  25  26
ENDBRANCH  24  25
ENDBRANCH  23  24
ENDBRANCH  17  23
ENDBRANCH   4  18
TORSDOF 6
ENDMDL
MODEL 5
REMARK VINA RESULT:     -11.4      6.209     12.483
REMARK  Name = 10430360
REMARK  6 active torsions:
REMARK  status: ('A' for Active; 'I' for Inactive)
REMARK    1  A    between atoms: C_4  and  C_18
REMARK    2  A    between atoms: C_7  and  C_14
REMARK    3  A    between atoms: C_17  and  O_23
REMARK    4  A    between atoms: O_23  and  C_24
REMARK    5  A    between atoms: C_24  and  C_25
REMARK    6  A    between atoms: C_25  and  N_26
REMARK                            x       y       z     vdW  Elec       q    Type
REMARK                         _______ _______ _______ _____ _____    ______ ____
ROOT
ATOM      1  N   UNL     1      31.544 -12.627 -20.223  0.00  0.00    -0.276 N 
ATOM      2  N   UNL     1      32.044 -13.740 -20.786  0.00  0.00    -0.173 NA
ATOM      3  C   UNL     1      32.484 -11.893 -22.064  0.00  0.00    +0.036 A 
ATOM      4  C   UNL     1      32.618 -13.292 -21.909  0.00  0.00    +0.102 A 
ATOM      5  C   UNL     1      31.773 -11.484 -20.941  0.00  0.00    +0.075 A 
ATOM      6  C   UNL     1      32.877 -10.937 -23.015  0.00  0.00    +0.006 C 
ATOM      7  C   UNL     1      32.537  -9.596 -22.796  0.00  0.00    +0.033 C 
ATOM      8  C   UNL     1      31.424 -10.153 -20.704  0.00  0.00    +0.019 C 
ATOM      9  C   UNL     1      31.823  -9.213 -21.660  0.00  0.00    +0.004 C 
ATOM     10  H   UNL     1      31.054 -12.634 -19.370  0.00  0.00    +0.189 HD
ENDROOT
BRANCH   7  14
ATOM     11  N   UNL     1      34.214  -8.176 -23.907  0.00  0.00    -0.218 N 
ATOM     12  N   UNL     1      32.156  -7.966 -24.608  0.00  0.00    -0.206 NA
ATOM     13  N   UNL     1      34.310  -7.245 -24.868  0.00  0.00    -0.157 NA
ATOM     14  C   UNL     1      32.931  -8.597 -23.761  0.00  0.00    +0.149 C 
ATOM     15  C   UNL     1      33.039  -7.153 -25.261  0.00  0.00    +0.218 C 
ATOM     16  H   UNL     1      34.974  -8.511 -23.378  0.00  0.00    +0.176 HD
ENDBRANCH   7  14
BRANCH   4  18
ATOM     17  C   UNL     1      34.792 -16.041 -23.162  0.00  0.00    +0.138 C 
ATOM     18  C   UNL     1      33.277 -14.206 -22.800  0.00  0.00    +0.022 C 
ATOM     19  C   UNL     1      34.158 -15.161 -22.293  0.00  0.00    +0.038 C 
ATOM     20  C   UNL     1      34.557 -15.979 -24.531  0.00  0.00    +0.037 C 
ATOM     21  C   UNL     1      33.036 -14.137 -24.172  0.00  0.00    +0.002 C 
ATOM     22  C   UNL     1      33.676 -15.024 -25.038  0.00  0.00    +0.003 C 
BRANCH  17  23
ATOM     23  O   UNL     1      35.657 -16.981 -22.664  0.00  0.00    -0.478 OA
BRANCH  23  24
ATOM     24  C   UNL     1      35.304 -17.586 -21.426  0.00  0.00    +0.183 C 
BRANCH  24  25
ATOM     25  C   UNL     1      35.935 -18.967 -21.361  0.00  0.00    -0.029 C 
BRANCH  25  26
ATOM     26  N   UNL     1      35.289 -19.781 -20.330  0.00  0.00    +0.389 N 
ATOM     27  C   UNL     1      33.952 -20.203 -20.770  0.00  0.00    -0.077 C 
ATOM     28  C   UNL     1      36.128 -20.938 -19.989  0.00  0.00    -0.077 C 
ATOM     29  C   UNL     1      33.245 -21.014 -19.683  0.00  0.00    -0.023 C 
ATOM     30  C   UNL     1      35.491 -21.773 -18.877  0.00  0.00    -0.023 C 
ATOM     31  C   UNL     1      34.081 -22.214 -19.253  0.00  0.00    -0.004 C 
ATOM     32  H   UNL     1      35.179 -19.214 -19.489  0.00  0.00    -0.080 HD
ENDBRANCH  25  26
ENDBRANCH  24  25
ENDBRANCH  23  24
ENDBRANCH  17  23
ENDBRANCH   4  18
TORSDOF 6
ENDMDL
MODEL 6
REMARK VINA RESULT:     -11.0      2.961      6.100
REMARK  Name = 10430360
REMARK  6 active torsions:
REMARK  status: ('A' for Active; 'I' for Inactive)
REMARK    1  A    between atoms: C_4  and  C_18
REMARK    2  A    between atoms: C_7  and  C_14
REMARK    3  A    between atoms: C_17  and  O_23
REMARK    4  A    between atoms: O_23  and  C_24
REMARK    5  A    between atoms: C_24  and  C_25
REMARK    6  A    between atoms: C_25  and  N_26
REMARK                            x       y       z     vdW  Elec       q    Type
REMARK                         _______ _______ _______ _____ _____    ______ ____
ROOT
ATOM      1  N   UNL     1      34.020 -24.012 -11.446  0.00  0.00    -0.276 N 
ATOM      2  N   UNL     1      33.236 -23.676 -12.485  0.00  0.00    -0.173 NA
ATOM      3  C   UNL     1      35.321 -24.305 -13.187  0.00  0.00    +0.036 A 
ATOM      4  C   UNL     1      34.030 -23.855 -13.547  0.00  0.00    +0.102 A 
ATOM      5  C   UNL     1      35.285 -24.398 -11.800  0.00  0.00    +0.075 A 
ATOM      6  C   UNL     1      36.504 -24.639 -13.868  0.00  0.00    +0.006 C 
ATOM      7  C   UNL     1      37.611 -25.058 -13.119  0.00  0.00    +0.033 C 
ATOM      8  C   UNL     1      36.377 -24.812 -11.036  0.00  0.00    +0.019 C 
ATOM      9  C   UNL     1      37.547 -25.142 -11.728  0.00  0.00    +0.004 C 
ATOM     10  H   UNL     1      33.711 -23.981 -10.512  0.00  0.00    +0.189 HD
ENDROOT
BRANCH   7  14
ATOM     11  N   UNL     1      39.539 -26.534 -13.523  0.00  0.00    -0.218 N 
ATOM     12  N   UNL     1      39.440 -24.724 -14.742  0.00  0.00    -0.206 NA
ATOM     13  N   UNL     1      40.636 -26.620 -14.291  0.00  0.00    -0.157 NA
ATOM     14  C   UNL     1      38.837 -25.405 -13.799  0.00  0.00    +0.149 C 
ATOM     15  C   UNL     1      40.530 -25.501 -15.010  0.00  0.00    +0.218 C 
ATOM     16  H   UNL     1      39.278 -27.203 -12.849  0.00  0.00    +0.176 HD
ENDBRANCH   7  14
BRANCH   4  18
ATOM     17  C   UNL     1      33.946 -23.228 -17.214  0.00  0.00    +0.138 C 
ATOM     18  C   UNL     1      33.538 -23.596 -14.871  0.00  0.00    +0.022 C 
ATOM     19  C   UNL     1      34.431 -23.478 -15.936  0.00  0.00    +0.038 C 
ATOM     20  C   UNL     1      32.581 -23.093 -17.442  0.00  0.00    +0.037 C 
ATOM     21  C   UNL     1      32.167 -23.462 -15.091  0.00  0.00    +0.002 C 
ATOM     22  C   UNL     1      31.688 -23.211 -16.377  0.00  0.00    +0.003 C 
BRANCH  17  23
ATOM     23  O   UNL     1      34.822 -23.113 -18.262  0.00  0.00    -0.478 OA
BRANCH  23  24
ATOM     24  C   UNL     1      34.639 -22.004 -19.133  0.00  0.00    +0.183 C 
BRANCH  24  25
ATOM     25  C   UNL     1      35.972 -21.296 -19.310  0.00  0.00    -0.029 C 
BRANCH  25  26
ATOM     26  N   UNL     1      35.996 -20.545 -20.565  0.00  0.00    +0.389 N 
ATOM     27  C   UNL     1      34.639 -20.118 -20.935  0.00  0.00    -0.077 C 
ATOM     28  C   UNL     1      36.905 -19.396 -20.460  0.00  0.00    -0.077 C 
ATOM     29  C   UNL     1      34.640 -19.374 -22.270  0.00  0.00    -0.023 C 
ATOM     30  C   UNL     1      36.979 -18.628 -21.781  0.00  0.00    -0.023 C 
ATOM     31  C   UNL     1      35.596 -18.186 -22.245  0.00  0.00    -0.004 C 
ATOM     32  H   UNL     1      36.346 -21.155 -21.305  0.00  0.00    -0.080 HD
ENDBRANCH  25  26
ENDBRANCH  24  25
ENDBRANCH  23  24
ENDBRANCH  17  23
ENDBRANCH   4  18
TORSDOF 6
ENDMDL
MODEL 7
REMARK VINA RESULT:     -11.0      1.476      2.462
REMARK  Name = 10430360
REMARK  6 active torsions:
REMARK  status: ('A' for Active; 'I' for Inactive)
REMARK    1  A    between atoms: C_4  and  C_18
REMARK    2  A    between atoms: C_7  and  C_14
REMARK    3  A    between atoms: C_17  and  O_23
REMARK    4  A    between atoms: O_23  and  C_24
REMARK    5  A    between atoms: C_24  and  C_25
REMARK    6  A    between atoms: C_25  and  N_26
REMARK                            x       y       z     vdW  Elec       q    Type
REMARK                         _______ _______ _______ _____ _____    ______ ____
ROOT
ATOM      1  N   UNL     1      35.368 -23.902 -15.432  0.00  0.00    -0.276 N 
ATOM      2  N   UNL     1      35.711 -23.221 -16.539  0.00  0.00    -0.173 NA
ATOM      3  C   UNL     1      33.440 -23.267 -16.261  0.00  0.00    +0.036 A 
ATOM      4  C   UNL     1      34.534 -22.834 -17.045  0.00  0.00    +0.102 A 
ATOM      5  C   UNL     1      34.019 -23.967 -15.209  0.00  0.00    +0.075 A 
ATOM      6  C   UNL     1      32.041 -23.149 -16.322  0.00  0.00    +0.006 C 
ATOM      7  C   UNL     1      31.275 -23.744 -15.312  0.00  0.00    +0.033 C 
ATOM      8  C   UNL     1      33.274 -24.568 -14.192  0.00  0.00    +0.019 C 
ATOM      9  C   UNL     1      31.883 -24.441 -14.266  0.00  0.00    +0.004 C 
ATOM     10  H   UNL     1      36.030 -24.318 -14.835  0.00  0.00    +0.189 HD
ENDROOT
BRANCH   7  14
ATOM     11  N   UNL     1      29.025 -24.686 -15.646  0.00  0.00    -0.218 N 
ATOM     12  N   UNL     1      29.115 -22.564 -15.134  0.00  0.00    -0.206 NA
ATOM     13  N   UNL     1      27.734 -24.320 -15.622  0.00  0.00    -0.157 NA
ATOM     14  C   UNL     1      29.836 -23.636 -15.355  0.00  0.00    +0.149 C 
ATOM     15  C   UNL     1      27.843 -23.029 -15.307  0.00  0.00    +0.218 C 
ATOM     16  H   UNL     1      29.342 -25.597 -15.848  0.00  0.00    +0.176 HD
ENDBRANCH   7  14
BRANCH   4  18
ATOM     17  C   UNL     1      35.573 -20.666 -19.886  0.00  0.00    +0.138 C 
ATOM     18  C   UNL     1      34.485 -22.063 -18.255  0.00  0.00    +0.022 C 
ATOM     19  C   UNL     1      35.629 -21.410 -18.714  0.00  0.00    +0.038 C 
ATOM     20  C   UNL     1      34.388 -20.566 -20.607  0.00  0.00    +0.037 C 
ATOM     21  C   UNL     1      33.293 -21.967 -18.972  0.00  0.00    +0.002 C 
ATOM     22  C   UNL     1      33.244 -21.219 -20.148  0.00  0.00    +0.003 C 
BRANCH  17  23
ATOM     23  O   UNL     1      36.697 -20.025 -20.338  0.00  0.00    -0.478 OA
BRANCH  23  24
ATOM     24  C   UNL     1      36.533 -19.146 -21.444  0.00  0.00    +0.183 C 
BRANCH  24  25
ATOM     25  C   UNL     1      35.746 -17.929 -20.987  0.00  0.00    -0.029 C 
BRANCH  25  26
ATOM     26  N   UNL     1      34.897 -17.429 -22.068  0.00  0.00    +0.389 N 
ATOM     27  C   UNL     1      35.110 -15.988 -22.266  0.00  0.00    -0.077 C 
ATOM     28  C   UNL     1      35.146 -18.179 -23.307  0.00  0.00    -0.077 C 
ATOM     29  C   UNL     1      34.193 -15.440 -23.361  0.00  0.00    -0.023 C 
ATOM     30  C   UNL     1      34.230 -17.701 -24.435  0.00  0.00    -0.023 C 
ATOM     31  C   UNL     1      34.373 -16.202 -24.669  0.00  0.00    -0.004 C 
ATOM     32  H   UNL     1      33.920 -17.569 -21.808  0.00  0.00    -0.080 HD
ENDBRANCH  25  26
ENDBRANCH  24  25
ENDBRANCH  23  24
ENDBRANCH  17  23
ENDBRANCH   4  18
TORSDOF 6
ENDMDL
MODEL 8
REMARK VINA RESULT:     -10.6      7.279     12.113
REMARK  Name = 10430360
REMARK  6 active torsions:
REMARK  status: ('A' for Active; 'I' for Inactive)
REMARK    1  A    between atoms: C_4  and  C_18
REMARK    2  A    between atoms: C_7  and  C_14
REMARK    3  A    between atoms: C_17  and  O_23
REMARK    4  A    between atoms: O_23  and  C_24
REMARK    5  A    between atoms: C_24  and  C_25
REMARK    6  A    between atoms: C_25  and  N_26
REMARK                            x       y       z     vdW  Elec       q    Type
REMARK                         _______ _______ _______ _____ _____    ______ ____
ROOT
ATOM      1  N   UNL     1      33.143 -14.607 -25.239  0.00  0.00    -0.276 N 
ATOM      2  N   UNL     1      32.646 -13.657 -24.429  0.00  0.00    -0.173 NA
ATOM      3  C   UNL     1      33.803 -15.236 -23.244  0.00  0.00    +0.036 A 
ATOM      4  C   UNL     1      33.049 -14.040 -23.212  0.00  0.00    +0.102 A 
ATOM      5  C   UNL     1      33.848 -15.585 -24.589  0.00  0.00    +0.075 A 
ATOM      6  C   UNL     1      34.446 -16.055 -22.300  0.00  0.00    +0.006 C 
ATOM      7  C   UNL     1      35.113 -17.200 -22.751  0.00  0.00    +0.033 C 
ATOM      8  C   UNL     1      34.506 -16.722 -25.060  0.00  0.00    +0.019 C 
ATOM      9  C   UNL     1      35.141 -17.527 -24.108  0.00  0.00    +0.004 C 
ATOM     10  H   UNL     1      33.010 -14.601 -26.214  0.00  0.00    +0.189 HD
ENDROOT
BRANCH   7  14
ATOM     11  N   UNL     1      37.124 -18.245 -21.789  0.00  0.00    -0.218 N 
ATOM     12  N   UNL     1      35.224 -18.753 -20.837  0.00  0.00    -0.206 NA
ATOM     13  N   UNL     1      37.486 -19.084 -20.806  0.00  0.00    -0.157 NA
ATOM     14  C   UNL     1      35.779 -18.056 -21.797  0.00  0.00    +0.149 C 
ATOM     15  C   UNL     1      36.302 -19.363 -20.261  0.00  0.00    +0.218 C 
ATOM     16  H   UNL     1      37.751 -17.822 -22.419  0.00  0.00    +0.176 HD
ENDBRANCH   7  14
BRANCH   4  18
ATOM     17  C   UNL     1      31.971 -11.185 -21.081  0.00  0.00    +0.138 C 
ATOM     18  C   UNL     1      32.708 -13.260 -22.056  0.00  0.00    +0.022 C 
ATOM     19  C   UNL     1      32.300 -11.934 -22.205  0.00  0.00    +0.038 C 
ATOM     20  C   UNL     1      32.045 -11.744 -19.810  0.00  0.00    +0.037 C 
ATOM     21  C   UNL     1      32.785 -13.827 -20.785  0.00  0.00    +0.002 C 
ATOM     22  C   UNL     1      32.453 -13.069 -19.661  0.00  0.00    +0.003 C 
BRANCH  17  23
ATOM     23  O   UNL     1      31.569  -9.883 -21.227  0.00  0.00    -0.478 OA
BRANCH  23  24
ATOM     24  C   UNL     1      31.210  -9.466 -22.538  0.00  0.00    +0.183 C 
BRANCH  24  25
ATOM     25  C   UNL     1      31.587  -8.002 -22.705  0.00  0.00    -0.029 C 
BRANCH  25  26
ATOM     26  N   UNL     1      32.888  -7.876 -23.363  0.00  0.00    +0.389 N 
ATOM     27  C   UNL     1      32.805  -6.937 -24.491  0.00  0.00    -0.077 C 
ATOM     28  C   UNL     1      33.914  -7.459 -22.398  0.00  0.00    -0.077 C 
ATOM     29  C   UNL     1      34.145  -6.831 -25.219  0.00  0.00    -0.023 C 
ATOM     30  C   UNL     1      35.290  -7.370 -23.059  0.00  0.00    -0.023 C 
ATOM     31  C   UNL     1      35.267  -6.438 -24.265  0.00  0.00    -0.004 C 
ATOM     32  H   UNL     1      33.157  -8.789 -23.733  0.00  0.00    -0.080 HD
ENDBRANCH  25  26
ENDBRANCH  24  25
ENDBRANCH  23  24
ENDBRANCH  17  23
ENDBRANCH   4  18
TORSDOF 6
ENDMDL
MODEL 9
REMARK VINA RESULT:     -10.4      3.598      7.773
REMARK  Name = 10430360
REMARK  6 active torsions:
REMARK  status: ('A' for Active; 'I' for Inactive)
REMARK    1  A    between atoms: C_4  and  C_18
REMARK    2  A    between atoms: C_7  and  C_14
REMARK    3  A    between atoms: C_17  and  O_23
REMARK    4  A    between atoms: O_23  and  C_24
REMARK    5  A    between atoms: C_24  and  C_25
REMARK    6  A    between atoms: C_25  and  N_26
REMARK                            x       y       z     vdW  Elec       q    Type
REMARK                         _______ _______ _______ _____ _____    ______ ____
ROOT
ATOM      1  N   UNL     1      37.977 -19.058 -21.064  0.00  0.00    -0.276 N 
ATOM      2  N   UNL     1      37.350 -18.530 -22.129  0.00  0.00    -0.173 NA
ATOM      3  C   UNL     1      35.942 -19.859 -20.909  0.00  0.00    +0.036 A 
ATOM      4  C   UNL     1      36.108 -19.019 -22.035  0.00  0.00    +0.102 A 
ATOM      5  C   UNL     1      37.187 -19.866 -20.291  0.00  0.00    +0.075 A 
ATOM      6  C   UNL     1      34.892 -20.607 -20.349  0.00  0.00    +0.006 C 
ATOM      7  C   UNL     1      35.140 -21.337 -19.180  0.00  0.00    +0.033 C 
ATOM      8  C   UNL     1      37.456 -20.587 -19.126  0.00  0.00    +0.019 C 
ATOM      9  C   UNL     1      36.401 -21.326 -18.581  0.00  0.00    +0.004 C 
ATOM     10  H   UNL     1      38.923 -18.879 -20.859  0.00  0.00    +0.189 HD
ENDROOT
BRANCH   7  14
ATOM     11  N   UNL     1      32.766 -21.768 -18.690  0.00  0.00    -0.218 N 
ATOM     12  N   UNL     1      34.194 -23.217 -17.893  0.00  0.00    -0.206 NA
ATOM     13  N   UNL     1      31.984 -22.653 -18.054  0.00  0.00    -0.157 NA
ATOM     14  C   UNL     1      34.076 -22.113 -18.589  0.00  0.00    +0.149 C 
ATOM     15  C   UNL     1      32.895 -23.509 -17.589  0.00  0.00    +0.218 C 
ATOM     16  H   UNL     1      32.434 -20.974 -19.168  0.00  0.00    +0.176 HD
ENDBRANCH   7  14
BRANCH   4  18
ATOM     17  C   UNL     1      33.942 -17.007 -24.295  0.00  0.00    +0.138 C 
ATOM     18  C   UNL     1      35.117 -18.672 -23.013  0.00  0.00    +0.022 C 
ATOM     19  C   UNL     1      34.903 -17.334 -23.346  0.00  0.00    +0.038 C 
ATOM     20  C   UNL     1      33.191 -18.000 -24.916  0.00  0.00    +0.037 C 
ATOM     21  C   UNL     1      34.368 -19.673 -23.632  0.00  0.00    +0.002 C 
ATOM     22  C   UNL     1      33.405 -19.337 -24.583  0.00  0.00    +0.003 C 
BRANCH  17  23
ATOM     23  O   UNL     1      33.732 -15.694 -24.624  0.00  0.00    -0.478 OA
BRANCH  23  24
ATOM     24  C   UNL     1      34.211 -14.719 -23.706  0.00  0.00    +0.183 C 
BRANCH  24  25
ATOM     25  C   UNL     1      33.378 -13.456 -23.856  0.00  0.00    -0.029 C 
BRANCH  25  26
ATOM     26  N   UNL     1      32.544 -13.244 -22.672  0.00  0.00    +0.389 N 
ATOM     27  C   UNL     1      33.126 -13.921 -21.505  0.00  0.00    -0.077 C 
ATOM     28  C   UNL     1      32.365 -11.808 -22.420  0.00  0.00    -0.077 C 
ATOM     29  C   UNL     1      32.241 -13.749 -20.270  0.00  0.00    -0.023 C 
ATOM     30  C   UNL     1      31.455 -11.568 -21.214  0.00  0.00    -0.023 C 
ATOM     31  C   UNL     1      31.982 -12.277 -19.972  0.00  0.00    -0.004 C 
ATOM     32  H   UNL     1      31.623 -13.649 -22.844  0.00  0.00    -0.080 HD
ENDBRANCH  25  26
ENDBRANCH  24  25
ENDBRANCH  23  24
ENDBRANCH  17  23
ENDBRANCH   4  18
TORSDOF 6
ENDMDL
