MODEL 1
REMARK VINA RESULT:     -11.7      0.000      0.000
REMARK  Name = 11689883
REMARK  5 active torsions:
REMARK  status: ('A' for Active; 'I' for Inactive)
REMARK    1  A    between atoms: C_2  and  C_21
REMARK    2  A    between atoms: C_5  and  N_9
REMARK    3  A    between atoms: N_10  and  C_15
REMARK    4  A    between atoms: C_21  and  N_23
REMARK    5  A    between atoms: C_29  and  O_31
REMARK                            x       y       z     vdW  Elec       q    Type
REMARK                         _______ _______ _______ _____ _____    ______ ____
ROOT
ATOM      1  F   UNL     1      35.684 -17.343 -21.052  0.00  0.00    -0.203 F 
ATOM      2  C   UNL     1      34.755 -16.829 -23.170  0.00  0.00    -0.014 C 
ATOM      3  C   UNL     1      35.142 -17.753 -22.210  0.00  0.00    +0.147 C 
ATOM      4  C   UNL     1      34.193 -17.241 -24.371  0.00  0.00    -0.004 C 
ATOM      5  C   UNL     1      34.964 -19.115 -22.454  0.00  0.00    +0.079 C 
ATOM      6  C   UNL     1      34.015 -18.602 -24.616  0.00  0.00    +0.001 C 
ATOM      7  C   UNL     1      34.401 -19.540 -23.657  0.00  0.00    +0.017 C 
ENDROOT
BRANCH   5   9
ATOM      8  O   UNL     1      33.479 -20.177 -20.091  0.00  0.00    -0.252 OA
ATOM      9  N   UNL     1      35.350 -20.054 -21.497  0.00  0.00    -0.266 N 
ATOM     10  N   UNL     1      35.378 -21.477 -19.677  0.00  0.00    -0.267 N 
ATOM     11  C   UNL     1      34.615 -20.535 -20.385  0.00  0.00    +0.308 C 
ATOM     12  H   UNL     1      36.252 -20.433 -21.608  0.00  0.00    +0.156 HD
ATOM     13  H   UNL     1      36.277 -21.662 -20.036  0.00  0.00    +0.156 HD
BRANCH  10  15
ATOM     14  N   UNL     1      35.623 -22.981 -16.328  0.00  0.00    -0.247 NA
ATOM     15  C   UNL     1      35.017 -22.192 -18.511  0.00  0.00    +0.071 C 
ATOM     16  C   UNL     1      33.771 -22.775 -18.412  0.00  0.00    +0.018 C 
ATOM     17  C   UNL     1      35.904 -22.311 -17.469  0.00  0.00    +0.113 C 
ATOM     18  C   UNL     1      33.444 -23.472 -17.254  0.00  0.00    +0.016 C 
ATOM     19  C   UNL     1      34.397 -23.545 -16.251  0.00  0.00    +0.059 C 
ATOM     20  C   UNL     1      34.081 -24.285 -14.994  0.00  0.00    +0.052 C 
ENDBRANCH  10  15
ENDBRANCH   5   9
BRANCH   2  21
ATOM     21  C   UNL     1      34.944 -15.359 -22.910  0.00  0.00    -0.047 C 
BRANCH  21  23
ATOM     22  O   UNL     1      31.944 -11.379 -19.131  0.00  0.00    -0.226 OA
ATOM     23  N   UNL     1      33.749 -14.750 -22.326  0.00  0.00    +0.392 N 
ATOM     24  N   UNL     1      32.245 -12.701 -21.017  0.00  0.00    -0.250 N 
ATOM     25  C   UNL     1      33.957 -14.473 -20.898  0.00  0.00    -0.055 C 
ATOM     26  C   UNL     1      33.394 -13.517 -23.045  0.00  0.00    -0.055 C 
ATOM     27  C   UNL     1      32.698 -13.873 -20.273  0.00  0.00    +0.074 C 
ATOM     28  C   UNL     1      32.124 -12.893 -22.464  0.00  0.00    +0.074 C 
ATOM     29  C   UNL     1      31.844 -11.544 -20.345  0.00  0.00    +0.405 C 
ATOM     30  H   UNL     1      32.977 -15.410 -22.417  0.00  0.00    -0.079 HD
BRANCH  29  31
ATOM     31  O   UNL     1      31.318 -10.600 -21.187  0.00  0.00    -0.430 OA
ATOM     32  C   UNL     1      31.944  -9.312 -21.160  0.00  0.00    +0.257 C 
ENDBRANCH  29  31
ENDBRANCH  21  23
ENDBRANCH   2  21
TORSDOF 5
ENDMDL
MODEL 2
REMARK VINA RESULT:     -11.1      3.795     11.139
REMARK  Name = 11689883
REMARK  5 active torsions:
REMARK  status: ('A' for Active; 'I' for Inactive)
REMARK    1  A    between atoms: C_2  and  C_21
REMARK    2  A    between atoms: C_5  and  N_9
REMARK    3  A    between atoms: N_10  and  C_15
REMARK    4  A    between atoms: C_21  and  N_23
REMARK    5  A    between atoms: C_29  and  O_31
REMARK                            x       y       z     vdW  Elec       q    Type
REMARK                         _______ _______ _______ _____ _____    ______ ____
ROOT
ATOM      1  F   UNL     1      37.144 -20.975 -18.462  0.00  0.00    -0.203 F 
ATOM      2  C   UNL     1      35.683 -22.417 -17.278  0.00  0.00    -0.014 C 
ATOM      3  C   UNL     1      35.979 -21.639 -18.388  0.00  0.00    +0.147 C 
ATOM      4  C   UNL     1      34.482 -23.109 -17.190  0.00  0.00    -0.004 C 
ATOM      5  C   UNL     1      35.058 -21.550 -19.431  0.00  0.00    +0.079 C 
ATOM      6  C   UNL     1      33.561 -23.020 -18.233  0.00  0.00    +0.001 C 
ATOM      7  C   UNL     1      33.848 -22.241 -19.354  0.00  0.00    +0.017 C 
ENDROOT
BRANCH   5   9
ATOM      8  O   UNL     1      33.599 -19.206 -20.568  0.00  0.00    -0.252 OA
ATOM      9  N   UNL     1      35.343 -20.771 -20.553  0.00  0.00    -0.266 N 
ATOM     10  N   UNL     1      35.259 -19.168 -22.214  0.00  0.00    -0.267 N 
ATOM     11  C   UNL     1      34.624 -19.662 -21.064  0.00  0.00    +0.308 C 
ATOM     12  H   UNL     1      36.149 -21.025 -21.057  0.00  0.00    +0.156 HD
ATOM     13  H   UNL     1      36.078 -19.640 -22.492  0.00  0.00    +0.156 HD
BRANCH  10  15
ATOM     14  N   UNL     1      33.825 -17.297 -25.039  0.00  0.00    -0.247 NA
ATOM     15  C   UNL     1      34.869 -18.076 -23.024  0.00  0.00    +0.071 C 
ATOM     16  C   UNL     1      35.132 -16.784 -22.622  0.00  0.00    +0.018 C 
ATOM     17  C   UNL     1      34.224 -18.295 -24.218  0.00  0.00    +0.113 C 
ATOM     18  C   UNL     1      34.736 -15.730 -23.439  0.00  0.00    +0.016 C 
ATOM     19  C   UNL     1      34.093 -16.038 -24.627  0.00  0.00    +0.059 C 
ATOM     20  C   UNL     1      33.654 -14.932 -25.529  0.00  0.00    +0.052 C 
ENDBRANCH  10  15
ENDBRANCH   5   9
BRANCH   2  21
ATOM     21  C   UNL     1      36.675 -22.516 -16.150  0.00  0.00    -0.047 C 
BRANCH  21  23
ATOM     22  O   UNL     1      37.847 -26.309 -11.316  0.00  0.00    -0.226 OA
ATOM     23  N   UNL     1      36.461 -23.714 -15.339  0.00  0.00    +0.392 N 
ATOM     24  N   UNL     1      36.554 -25.300 -12.961  0.00  0.00    -0.250 N 
ATOM     25  C   UNL     1      37.742 -24.239 -14.844  0.00  0.00    -0.055 C 
ATOM     26  C   UNL     1      35.556 -23.422 -14.217  0.00  0.00    -0.055 C 
ATOM     27  C   UNL     1      37.528 -25.513 -14.029  0.00  0.00    +0.074 C 
ATOM     28  C   UNL     1      35.297 -24.678 -13.383  0.00  0.00    +0.074 C 
ATOM     29  C   UNL     1      36.793 -25.786 -11.674  0.00  0.00    +0.405 C 
ATOM     30  H   UNL     1      36.027 -24.426 -15.926  0.00  0.00    -0.079 HD
BRANCH  29  31
ATOM     31  O   UNL     1      35.719 -25.623 -10.840  0.00  0.00    -0.430 OA
ATOM     32  C   UNL     1      35.807 -24.544  -9.902  0.00  0.00    +0.257 C 
ENDBRANCH  29  31
ENDBRANCH  21  23
ENDBRANCH   2  21
TORSDOF 5
ENDMDL
MODEL 3
REMARK VINA RESULT:     -10.9      2.078      9.772
REMARK  Name = 11689883
REMARK  5 active torsions:
REMARK  status: ('A' for Active; 'I' for Inactive)
REMARK    1  A    between atoms: C_2  and  C_21
REMARK    2  A    between atoms: C_5  and  N_9
REMARK    3  A    between atoms: N_10  and  C_15
REMARK    4  A    between atoms: C_21  and  N_23
REMARK    5  A    between atoms: C_29  and  O_31
REMARK                            x       y       z     vdW  Elec       q    Type
REMARK                         _______ _______ _______ _____ _____    ______ ____
ROOT
ATOM      1  F   UNL     1      35.611 -16.318 -21.551  0.00  0.00    -0.203 F 
ATOM      2  C   UNL     1      35.148 -18.513 -22.315  0.00  0.00    -0.014 C 
ATOM      3  C   UNL     1      35.117 -17.138 -22.493  0.00  0.00    +0.147 C 
ATOM      4  C   UNL     1      34.642 -19.371 -23.282  0.00  0.00    -0.004 C 
ATOM      5  C   UNL     1      34.568 -16.608 -23.661  0.00  0.00    +0.079 C 
ATOM      6  C   UNL     1      34.092 -18.842 -24.449  0.00  0.00    +0.001 C 
ATOM      7  C   UNL     1      34.055 -17.460 -24.639  0.00  0.00    +0.017 C 
ENDROOT
BRANCH   5   9
ATOM      8  O   UNL     1      33.025 -14.504 -22.207  0.00  0.00    -0.252 OA
ATOM      9  N   UNL     1      34.529 -15.227 -23.853  0.00  0.00    -0.266 N 
ATOM     10  N   UNL     1      34.037 -12.978 -23.661  0.00  0.00    -0.267 N 
ATOM     11  C   UNL     1      33.782 -14.256 -23.140  0.00  0.00    +0.308 C 
ATOM     12  H   UNL     1      35.095 -14.879 -24.580  0.00  0.00    +0.156 HD
ATOM     13  H   UNL     1      34.671 -12.936 -24.414  0.00  0.00    +0.156 HD
BRANCH  10  15
ATOM     14  N   UNL     1      31.764 -10.562 -22.070  0.00  0.00    -0.247 NA
ATOM     15  C   UNL     1      33.496 -11.741 -23.238  0.00  0.00    +0.071 C 
ATOM     16  C   UNL     1      34.131 -10.559 -23.557  0.00  0.00    +0.018 C 
ATOM     17  C   UNL     1      32.334 -11.708 -22.505  0.00  0.00    +0.113 C 
ATOM     18  C   UNL     1      33.575  -9.359 -23.126  0.00  0.00    +0.016 C 
ATOM     19  C   UNL     1      32.401  -9.415 -22.394  0.00  0.00    +0.059 C 
ATOM     20  C   UNL     1      31.776  -8.146 -21.916  0.00  0.00    +0.052 C 
ENDBRANCH  10  15
ENDBRANCH   5   9
BRANCH   2  21
ATOM     21  C   UNL     1      35.741 -19.088 -21.056  0.00  0.00    -0.047 C 
BRANCH  21  23
ATOM     22  O   UNL     1      34.141 -23.602 -17.031  0.00  0.00    -0.226 OA
ATOM     23  N   UNL     1      35.111 -20.356 -20.687  0.00  0.00    +0.392 N 
ATOM     24  N   UNL     1      33.918 -22.249 -18.907  0.00  0.00    -0.250 N 
ATOM     25  C   UNL     1      35.935 -21.074 -19.704  0.00  0.00    -0.055 C 
ATOM     26  C   UNL     1      33.759 -20.125 -20.156  0.00  0.00    -0.055 C 
ATOM     27  C   UNL     1      35.302 -22.417 -19.343  0.00  0.00    +0.074 C 
ATOM     28  C   UNL     1      33.078 -21.448 -19.800  0.00  0.00    +0.074 C 
ATOM     29  C   UNL     1      33.440 -22.928 -17.784  0.00  0.00    +0.405 C 
ATOM     30  H   UNL     1      35.034 -20.932 -21.525  0.00  0.00    -0.079 HD
BRANCH  29  31
ATOM     31  O   UNL     1      32.091 -22.766 -17.604  0.00  0.00    -0.430 OA
ATOM     32  C   UNL     1      31.575 -23.154 -16.326  0.00  0.00    +0.257 C 
ENDBRANCH  29  31
ENDBRANCH  21  23
ENDBRANCH   2  21
TORSDOF 5
ENDMDL
MODEL 4
REMARK VINA RESULT:     -10.5      2.456      3.876
REMARK  Name = 11689883
REMARK  5 active torsions:
REMARK  status: ('A' for Active; 'I' for Inactive)
REMARK    1  A    between atoms: C_2  and  C_21
REMARK    2  A    between atoms: C_5  and  N_9
REMARK    3  A    between atoms: N_10  and  C_15
REMARK    4  A    between atoms: C_21  and  N_23
REMARK    5  A    between atoms: C_29  and  O_31
REMARK                            x       y       z     vdW  Elec       q    Type
REMARK                         _______ _______ _______ _____ _____    ______ ____
ROOT
ATOM      1  F   UNL     1      37.486 -19.577 -20.434  0.00  0.00    -0.203 F 
ATOM      2  C   UNL     1      35.375 -19.511 -21.510  0.00  0.00    -0.014 C 
ATOM      3  C   UNL     1      36.195 -19.943 -20.477  0.00  0.00    +0.147 C 
ATOM      4  C   UNL     1      34.039 -19.883 -21.564  0.00  0.00    -0.004 C 
ATOM      5  C   UNL     1      35.669 -20.764 -19.479  0.00  0.00    +0.079 C 
ATOM      6  C   UNL     1      33.513 -20.704 -20.566  0.00  0.00    +0.001 C 
ATOM      7  C   UNL     1      34.328 -21.145 -19.524  0.00  0.00    +0.017 C 
ENDROOT
BRANCH   5   9
ATOM      8  O   UNL     1      35.145 -22.802 -17.360  0.00  0.00    -0.252 OA
ATOM      9  N   UNL     1      36.483 -21.207 -18.435  0.00  0.00    -0.266 N 
ATOM     10  N   UNL     1      37.298 -22.321 -16.583  0.00  0.00    -0.267 N 
ATOM     11  C   UNL     1      36.199 -22.180 -17.445  0.00  0.00    +0.308 C 
ATOM     12  H   UNL     1      37.372 -20.788 -18.378  0.00  0.00    +0.156 HD
ATOM     13  H   UNL     1      38.076 -21.751 -16.778  0.00  0.00    +0.156 HD
BRANCH  10  15
ATOM     14  N   UNL     1      38.722 -24.819 -14.288  0.00  0.00    -0.247 NA
ATOM     15  C   UNL     1      37.424 -23.182 -15.468  0.00  0.00    +0.071 C 
ATOM     16  C   UNL     1      36.431 -23.234 -14.513  0.00  0.00    +0.018 C 
ATOM     17  C   UNL     1      38.539 -23.974 -15.328  0.00  0.00    +0.113 C 
ATOM     18  C   UNL     1      36.583 -24.090 -13.428  0.00  0.00    +0.016 C 
ATOM     19  C   UNL     1      37.737 -24.855 -13.363  0.00  0.00    +0.059 C 
ATOM     20  C   UNL     1      37.934 -25.786 -12.213  0.00  0.00    +0.052 C 
ENDBRANCH  10  15
ENDBRANCH   5   9
BRANCH   2  21
ATOM     21  C   UNL     1      35.939 -18.625 -22.588  0.00  0.00    -0.047 C 
BRANCH  21  23
ATOM     22  O   UNL     1      32.441 -13.439 -22.683  0.00  0.00    -0.226 OA
ATOM     23  N   UNL     1      35.680 -17.210 -22.321  0.00  0.00    +0.392 N 
ATOM     24  N   UNL     1      34.058 -14.899 -21.873  0.00  0.00    -0.250 N 
ATOM     25  C   UNL     1      34.924 -16.606 -23.428  0.00  0.00    -0.055 C 
ATOM     26  C   UNL     1      34.955 -17.049 -21.052  0.00  0.00    -0.055 C 
ATOM     27  C   UNL     1      34.685 -15.119 -23.174  0.00  0.00    +0.074 C 
ATOM     28  C   UNL     1      34.712 -15.569 -20.747  0.00  0.00    +0.074 C 
ATOM     29  C   UNL     1      32.993 -14.004 -21.740  0.00  0.00    +0.405 C 
ATOM     30  H   UNL     1      36.576 -16.730 -22.244  0.00  0.00    -0.079 HD
BRANCH  29  31
ATOM     31  O   UNL     1      32.623 -13.815 -20.435  0.00  0.00    -0.430 OA
ATOM     32  C   UNL     1      32.116 -12.517 -20.105  0.00  0.00    +0.257 C 
ENDBRANCH  29  31
ENDBRANCH  21  23
ENDBRANCH   2  21
TORSDOF 5
ENDMDL
MODEL 5
REMARK VINA RESULT:      -9.9      5.080     12.347
REMARK  Name = 11689883
REMARK  5 active torsions:
REMARK  status: ('A' for Active; 'I' for Inactive)
REMARK    1  A    between atoms: C_2  and  C_21
REMARK    2  A    between atoms: C_5  and  N_9
REMARK    3  A    between atoms: N_10  and  C_15
REMARK    4  A    between atoms: C_21  and  N_23
REMARK    5  A    between atoms: C_29  and  O_31
REMARK                            x       y       z     vdW  Elec       q    Type
REMARK                         _______ _______ _______ _____ _____    ______ ____
ROOT
ATOM      1  F   UNL     1      32.015 -10.690 -23.042  0.00  0.00    -0.203 F 
ATOM      2  C   UNL     1      31.739 -11.106 -20.725  0.00  0.00    -0.014 C 
ATOM      3  C   UNL     1      31.957 -10.232 -21.781  0.00  0.00    +0.147 C 
ATOM      4  C   UNL     1      31.676 -10.644 -19.417  0.00  0.00    -0.004 C 
ATOM      5  C   UNL     1      32.115  -8.870 -21.525  0.00  0.00    +0.079 C 
ATOM      6  C   UNL     1      31.834  -9.283 -19.161  0.00  0.00    +0.001 C 
ATOM      7  C   UNL     1      32.054  -8.395 -20.214  0.00  0.00    +0.017 C 
ENDROOT
BRANCH   5   9
ATOM      8  O   UNL     1      34.424  -8.647 -23.406  0.00  0.00    -0.252 OA
ATOM      9  N   UNL     1      32.336  -7.981 -22.577  0.00  0.00    -0.266 N 
ATOM     10  N   UNL     1      33.265  -6.859 -24.370  0.00  0.00    -0.267 N 
ATOM     11  C   UNL     1      33.448  -7.905 -23.451  0.00  0.00    +0.308 C 
ATOM     12  H   UNL     1      31.625  -7.317 -22.732  0.00  0.00    +0.156 HD
ATOM     13  H   UNL     1      32.427  -6.348 -24.282  0.00  0.00    +0.156 HD
BRANCH  10  15
ATOM     14  N   UNL     1      34.713  -6.514 -27.734  0.00  0.00    -0.247 NA
ATOM     15  C   UNL     1      34.135  -6.448 -25.407  0.00  0.00    +0.071 C 
ATOM     16  C   UNL     1      35.205  -5.624 -25.130  0.00  0.00    +0.018 C 
ATOM     17  C   UNL     1      33.920  -6.868 -26.698  0.00  0.00    +0.113 C 
ATOM     18  C   UNL     1      36.044  -5.237 -26.170  0.00  0.00    +0.016 C 
ATOM     19  C   UNL     1      35.757  -5.706 -27.442  0.00  0.00    +0.059 C 
ATOM     20  C   UNL     1      36.636  -5.312 -28.583  0.00  0.00    +0.052 C 
ENDBRANCH  10  15
ENDBRANCH   5   9
BRANCH   2  21
ATOM     21  C   UNL     1      31.567 -12.576 -20.998  0.00  0.00    -0.047 C 
BRANCH  21  23
ATOM     22  O   UNL     1      35.385 -17.505 -21.516  0.00  0.00    -0.226 OA
ATOM     23  N   UNL     1      32.839 -13.224 -21.316  0.00  0.00    +0.392 N 
ATOM     24  N   UNL     1      34.541 -15.404 -22.042  0.00  0.00    -0.250 N 
ATOM     25  C   UNL     1      33.129 -14.295 -20.351  0.00  0.00    -0.055 C 
ATOM     26  C   UNL     1      32.818 -13.757 -22.687  0.00  0.00    -0.055 C 
ATOM     27  C   UNL     1      34.475 -14.950 -20.655  0.00  0.00    +0.074 C 
ATOM     28  C   UNL     1      34.158 -14.405 -23.041  0.00  0.00    +0.074 C 
ATOM     29  C   UNL     1      35.061 -16.663 -22.353  0.00  0.00    +0.405 C 
ATOM     30  H   UNL     1      33.580 -12.526 -21.253  0.00  0.00    -0.079 HD
BRANCH  29  31
ATOM     31  O   UNL     1      35.179 -16.866 -23.702  0.00  0.00    -0.430 OA
ATOM     32  C   UNL     1      34.394 -17.932 -24.250  0.00  0.00    +0.257 C 
ENDBRANCH  29  31
ENDBRANCH  21  23
ENDBRANCH   2  21
TORSDOF 5
ENDMDL
MODEL 6
REMARK VINA RESULT:      -9.9      2.888     10.221
REMARK  Name = 11689883
REMARK  5 active torsions:
REMARK  status: ('A' for Active; 'I' for Inactive)
REMARK    1  A    between atoms: C_2  and  C_21
REMARK    2  A    between atoms: C_5  and  N_9
REMARK    3  A    between atoms: N_10  and  C_15
REMARK    4  A    between atoms: C_21  and  N_23
REMARK    5  A    between atoms: C_29  and  O_31
REMARK                            x       y       z     vdW  Elec       q    Type
REMARK                         _______ _______ _______ _____ _____    ______ ____
ROOT
ATOM      1  F   UNL     1      33.296 -20.535 -20.872  0.00  0.00    -0.203 F 
ATOM      2  C   UNL     1      34.901 -21.568 -19.468  0.00  0.00    -0.014 C 
ATOM      3  C   UNL     1      34.553 -20.606 -20.405  0.00  0.00    +0.147 C 
ATOM      4  C   UNL     1      36.197 -21.650 -18.978  0.00  0.00    -0.004 C 
ATOM      5  C   UNL     1      35.518 -19.708 -20.861  0.00  0.00    +0.079 C 
ATOM      6  C   UNL     1      37.163 -20.753 -19.433  0.00  0.00    +0.001 C 
ATOM      7  C   UNL     1      36.824 -19.781 -20.375  0.00  0.00    +0.017 C 
ENDROOT
BRANCH   5   9
ATOM      8  O   UNL     1      34.967 -16.794 -20.508  0.00  0.00    -0.252 OA
ATOM      9  N   UNL     1      35.181 -18.736 -21.803  0.00  0.00    -0.266 N 
ATOM     10  N   UNL     1      34.621 -16.739 -22.821  0.00  0.00    -0.267 N 
ATOM     11  C   UNL     1      34.926 -17.357 -21.598  0.00  0.00    +0.308 C 
ATOM     12  H   UNL     1      35.111 -19.048 -22.734  0.00  0.00    +0.156 HD
ATOM     13  H   UNL     1      34.627 -17.323 -23.614  0.00  0.00    +0.156 HD
BRANCH  10  15
ATOM     14  N   UNL     1      34.243 -13.127 -22.232  0.00  0.00    -0.247 NA
ATOM     15  C   UNL     1      34.306 -15.379 -23.055  0.00  0.00    +0.071 C 
ATOM     16  C   UNL     1      33.780 -14.987 -24.267  0.00  0.00    +0.018 C 
ATOM     17  C   UNL     1      34.522 -14.440 -22.075  0.00  0.00    +0.113 C 
ATOM     18  C   UNL     1      33.480 -13.643 -24.468  0.00  0.00    +0.016 C 
ATOM     19  C   UNL     1      33.727 -12.762 -23.427  0.00  0.00    +0.059 C 
ATOM     20  C   UNL     1      33.418 -11.313 -23.607  0.00  0.00    +0.052 C 
ENDBRANCH  10  15
ENDBRANCH   5   9
BRANCH   2  21
ATOM     21  C   UNL     1      33.862 -22.538 -18.974  0.00  0.00    -0.047 C 
BRANCH  21  23
ATOM     22  O   UNL     1      32.616 -25.162 -13.433  0.00  0.00    -0.226 OA
ATOM     23  N   UNL     1      33.773 -22.544 -17.514  0.00  0.00    +0.392 N 
ATOM     24  N   UNL     1      33.694 -23.733 -14.914  0.00  0.00    -0.250 N 
ATOM     25  C   UNL     1      32.585 -23.289 -17.072  0.00  0.00    -0.055 C 
ATOM     26  C   UNL     1      34.991 -23.120 -16.925  0.00  0.00    -0.055 C 
ATOM     27  C   UNL     1      32.464 -23.266 -15.549  0.00  0.00    +0.074 C 
ATOM     28  C   UNL     1      34.922 -23.096 -15.396  0.00  0.00    +0.074 C 
ATOM     29  C   UNL     1      33.645 -24.625 -13.841  0.00  0.00    +0.405 C 
ATOM     30  H   UNL     1      33.685 -21.580 -17.194  0.00  0.00    -0.079 HD
BRANCH  29  31
ATOM     31  O   UNL     1      34.875 -24.844 -13.280  0.00  0.00    -0.430 OA
ATOM     32  C   UNL     1      35.057 -24.348 -11.948  0.00  0.00    +0.257 C 
ENDBRANCH  29  31
ENDBRANCH  21  23
ENDBRANCH   2  21
TORSDOF 5
ENDMDL
MODEL 7
REMARK VINA RESULT:      -9.8      4.936     13.068
REMARK  Name = 11689883
REMARK  5 active torsions:
REMARK  status: ('A' for Active; 'I' for Inactive)
REMARK    1  A    between atoms: C_2  and  C_21
REMARK    2  A    between atoms: C_5  and  N_9
REMARK    3  A    between atoms: N_10  and  C_15
REMARK    4  A    between atoms: C_21  and  N_23
REMARK    5  A    between atoms: C_29  and  O_31
REMARK                            x       y       z     vdW  Elec       q    Type
REMARK                         _______ _______ _______ _____ _____    ______ ____
ROOT
ATOM      1  F   UNL     1      32.523 -10.112 -22.893  0.00  0.00    -0.203 F 
ATOM      2  C   UNL     1      31.747 -10.996 -20.836  0.00  0.00    -0.014 C 
ATOM      3  C   UNL     1      32.216  -9.935 -21.598  0.00  0.00    +0.147 C 
ATOM      4  C   UNL     1      31.424 -10.825 -19.496  0.00  0.00    -0.004 C 
ATOM      5  C   UNL     1      32.367  -8.679 -21.009  0.00  0.00    +0.079 C 
ATOM      6  C   UNL     1      31.576  -9.570 -18.908  0.00  0.00    +0.001 C 
ATOM      7  C   UNL     1      32.047  -8.496 -19.664  0.00  0.00    +0.017 C 
ENDROOT
BRANCH   5   9
ATOM      8  O   UNL     1      31.043  -7.133 -23.194  0.00  0.00    -0.252 OA
ATOM      9  N   UNL     1      32.839  -7.605 -21.764  0.00  0.00    -0.266 N 
ATOM     10  N   UNL     1      33.017  -5.881 -23.292  0.00  0.00    -0.267 N 
ATOM     11  C   UNL     1      32.179  -6.893 -22.797  0.00  0.00    +0.308 C 
ATOM     12  H   UNL     1      33.750  -7.300 -21.552  0.00  0.00    +0.156 HD
ATOM     13  H   UNL     1      33.904  -5.811 -22.871  0.00  0.00    +0.156 HD
BRANCH  10  15
ATOM     14  N   UNL     1      32.821  -4.404 -26.656  0.00  0.00    -0.247 NA
ATOM     15  C   UNL     1      32.743  -4.950 -24.321  0.00  0.00    +0.071 C 
ATOM     16  C   UNL     1      32.161  -3.736 -24.023  0.00  0.00    +0.018 C 
ATOM     17  C   UNL     1      33.054  -5.248 -25.626  0.00  0.00    +0.113 C 
ATOM     18  C   UNL     1      31.903  -2.841 -25.056  0.00  0.00    +0.016 C 
ATOM     19  C   UNL     1      32.250  -3.219 -26.343  0.00  0.00    +0.059 C 
ATOM     20  C   UNL     1      31.989  -2.283 -27.476  0.00  0.00    +0.052 C 
ENDBRANCH  10  15
ENDBRANCH   5   9
BRANCH   2  21
ATOM     21  C   UNL     1      31.581 -12.352 -21.467  0.00  0.00    -0.047 C 
BRANCH  21  23
ATOM     22  O   UNL     1      35.232 -17.398 -20.880  0.00  0.00    -0.226 OA
ATOM     23  N   UNL     1      32.852 -13.071 -21.555  0.00  0.00    +0.392 N 
ATOM     24  N   UNL     1      34.530 -15.375 -21.783  0.00  0.00    -0.250 N 
ATOM     25  C   UNL     1      33.000 -13.998 -20.424  0.00  0.00    -0.055 C 
ATOM     26  C   UNL     1      32.947 -13.796 -22.831  0.00  0.00    -0.055 C 
ATOM     27  C   UNL     1      34.343 -14.723 -20.489  0.00  0.00    +0.074 C 
ATOM     28  C   UNL     1      34.289 -14.521 -22.948  0.00  0.00    +0.074 C 
ATOM     29  C   UNL     1      35.028 -16.677 -21.857  0.00  0.00    +0.405 C 
ATOM     30  H   UNL     1      33.609 -12.389 -21.514  0.00  0.00    -0.079 HD
BRANCH  29  31
ATOM     31  O   UNL     1      35.273 -17.077 -23.144  0.00  0.00    -0.430 OA
ATOM     32  C   UNL     1      34.670 -18.312 -23.546  0.00  0.00    +0.257 C 
ENDBRANCH  29  31
ENDBRANCH  21  23
ENDBRANCH   2  21
TORSDOF 5
ENDMDL
MODEL 8
REMARK VINA RESULT:      -9.8      2.211     10.343
REMARK  Name = 11689883
REMARK  5 active torsions:
REMARK  status: ('A' for Active; 'I' for Inactive)
REMARK    1  A    between atoms: C_2  and  C_21
REMARK    2  A    between atoms: C_5  and  N_9
REMARK    3  A    between atoms: N_10  and  C_15
REMARK    4  A    between atoms: C_21  and  N_23
REMARK    5  A    between atoms: C_29  and  O_31
REMARK                            x       y       z     vdW  Elec       q    Type
REMARK                         _______ _______ _______ _____ _____    ______ ____
ROOT
ATOM      1  F   UNL     1      34.534 -14.976 -20.945  0.00  0.00    -0.203 F 
ATOM      2  C   UNL     1      35.090 -16.589 -22.589  0.00  0.00    -0.014 C 
ATOM      3  C   UNL     1      34.406 -15.448 -22.195  0.00  0.00    +0.147 C 
ATOM      4  C   UNL     1      34.966 -17.086 -23.879  0.00  0.00    -0.004 C 
ATOM      5  C   UNL     1      33.579 -14.792 -23.107  0.00  0.00    +0.079 C 
ATOM      6  C   UNL     1      34.140 -16.431 -24.792  0.00  0.00    +0.001 C 
ATOM      7  C   UNL     1      33.446 -15.284 -24.406  0.00  0.00    +0.017 C 
ENDROOT
BRANCH   5   9
ATOM      8  O   UNL     1      34.224 -11.911 -23.556  0.00  0.00    -0.252 OA
ATOM      9  N   UNL     1      32.884 -13.645 -22.724  0.00  0.00    -0.266 N 
ATOM     10  N   UNL     1      32.245 -11.449 -22.398  0.00  0.00    -0.267 N 
ATOM     11  C   UNL     1      33.222 -12.288 -22.956  0.00  0.00    +0.308 C 
ATOM     12  H   UNL     1      32.049 -13.797 -22.226  0.00  0.00    +0.156 HD
ATOM     13  H   UNL     1      31.496 -11.900 -21.945  0.00  0.00    +0.156 HD
BRANCH  10  15
ATOM     14  N   UNL     1      32.323  -7.996 -23.664  0.00  0.00    -0.247 NA
ATOM     15  C   UNL     1      32.204 -10.035 -22.406  0.00  0.00    +0.071 C 
ATOM     16  C   UNL     1      32.015  -9.338 -21.232  0.00  0.00    +0.018 C 
ATOM     17  C   UNL     1      32.351  -9.345 -23.586  0.00  0.00    +0.113 C 
ATOM     18  C   UNL     1      31.980  -7.948 -21.271  0.00  0.00    +0.016 C 
ATOM     19  C   UNL     1      32.138  -7.331 -22.502  0.00  0.00    +0.059 C 
ATOM     20  C   UNL     1      32.105  -5.841 -22.582  0.00  0.00    +0.052 C 
ENDBRANCH  10  15
ENDBRANCH   5   9
BRANCH   2  21
ATOM     21  C   UNL     1      35.983 -17.299 -21.607  0.00  0.00    -0.047 C 
BRANCH  21  23
ATOM     22  O   UNL     1      35.334 -22.615 -18.374  0.00  0.00    -0.226 OA
ATOM     23  N   UNL     1      35.615 -18.706 -21.454  0.00  0.00    +0.392 N 
ATOM     24  N   UNL     1      34.831 -21.051 -20.018  0.00  0.00    -0.250 N 
ATOM     25  C   UNL     1      36.573 -19.399 -20.581  0.00  0.00    -0.055 C 
ATOM     26  C   UNL     1      34.250 -18.827 -20.919  0.00  0.00    -0.055 C 
ATOM     27  C   UNL     1      36.216 -20.878 -20.448  0.00  0.00    +0.074 C 
ATOM     28  C   UNL     1      33.842 -20.295 -20.790  0.00  0.00    +0.074 C 
ATOM     29  C   UNL     1      34.506 -21.978 -19.025  0.00  0.00    +0.405 C 
ATOM     30  H   UNL     1      35.641 -19.146 -22.374  0.00  0.00    -0.079 HD
BRANCH  29  31
ATOM     31  O   UNL     1      33.154 -22.110 -18.848  0.00  0.00    -0.430 OA
ATOM     32  C   UNL     1      32.736 -22.736 -17.629  0.00  0.00    +0.257 C 
ENDBRANCH  29  31
ENDBRANCH  21  23
ENDBRANCH   2  21
TORSDOF 5
ENDMDL
MODEL 9
REMARK VINA RESULT:      -9.6      3.876     12.270
REMARK  Name = 11689883
REMARK  5 active torsions:
REMARK  status: ('A' for Active; 'I' for Inactive)
REMARK    1  A    between atoms: C_2  and  C_21
REMARK    2  A    between atoms: C_5  and  N_9
REMARK    3  A    between atoms: N_10  and  C_15
REMARK    4  A    between atoms: C_21  and  N_23
REMARK    5  A    between atoms: C_29  and  O_31
REMARK                            x       y       z     vdW  Elec       q    Type
REMARK                         _______ _______ _______ _____ _____    ______ ____
ROOT
ATOM      1  F   UNL     1      33.164 -11.088 -23.848  0.00  0.00    -0.203 F 
ATOM      2  C   UNL     1      33.059 -12.862 -22.280  0.00  0.00    -0.014 C 
ATOM      3  C   UNL     1      32.646 -11.615 -22.727  0.00  0.00    +0.147 C 
ATOM      4  C   UNL     1      32.529 -13.418 -21.124  0.00  0.00    -0.004 C 
ATOM      5  C   UNL     1      31.684 -10.909 -22.004  0.00  0.00    +0.079 C 
ATOM      6  C   UNL     1      31.568 -12.712 -20.400  0.00  0.00    +0.001 C 
ATOM      7  C   UNL     1      31.145 -11.458 -20.840  0.00  0.00    +0.017 C 
ENDROOT
BRANCH   5   9
ATOM      8  O   UNL     1      32.832  -8.201 -21.487  0.00  0.00    -0.252 OA
ATOM      9  N   UNL     1      31.260  -9.654 -22.441  0.00  0.00    -0.266 N 
ATOM     10  N   UNL     1      31.088  -7.380 -22.812  0.00  0.00    -0.267 N 
ATOM     11  C   UNL     1      31.833  -8.385 -22.175  0.00  0.00    +0.308 C 
ATOM     12  H   UNL     1      30.457  -9.648 -23.011  0.00  0.00    +0.156 HD
ATOM     13  H   UNL     1      30.308  -7.684 -23.331  0.00  0.00    +0.156 HD
BRANCH  10  15
ATOM     14  N   UNL     1      31.931  -4.005 -24.009  0.00  0.00    -0.247 NA
ATOM     15  C   UNL     1      31.320  -5.985 -22.800  0.00  0.00    +0.071 C 
ATOM     16  C   UNL     1      31.174  -5.266 -21.632  0.00  0.00    +0.018 C 
ATOM     17  C   UNL     1      31.693  -5.335 -23.952  0.00  0.00    +0.113 C 
ATOM     18  C   UNL     1      31.409  -3.895 -21.651  0.00  0.00    +0.016 C 
ATOM     19  C   UNL     1      31.783  -3.319 -22.855  0.00  0.00    +0.059 C 
ATOM     20  C   UNL     1      32.043  -1.850 -22.912  0.00  0.00    +0.052 C 
ENDBRANCH  10  15
ENDBRANCH   5   9
BRANCH   2  21
ATOM     21  C   UNL     1      34.095 -13.627 -23.058  0.00  0.00    -0.047 C 
BRANCH  21  23
ATOM     22  O   UNL     1      36.778 -19.264 -22.659  0.00  0.00    -0.226 OA
ATOM     23  N   UNL     1      34.138 -15.037 -22.670  0.00  0.00    +0.392 N 
ATOM     24  N   UNL     1      35.395 -17.517 -22.002  0.00  0.00    -0.250 N 
ATOM     25  C   UNL     1      34.800 -15.839 -23.709  0.00  0.00    -0.055 C 
ATOM     26  C   UNL     1      34.825 -15.196 -21.380  0.00  0.00    -0.055 C 
ATOM     27  C   UNL     1      34.813 -17.318 -23.327  0.00  0.00    +0.074 C 
ATOM     28  C   UNL     1      34.843 -16.663 -20.948  0.00  0.00    +0.074 C 
ATOM     29  C   UNL     1      36.313 -18.545 -21.776  0.00  0.00    +0.405 C 
ATOM     30  H   UNL     1      33.180 -15.371 -22.568  0.00  0.00    -0.079 HD
BRANCH  29  31
ATOM     31  O   UNL     1      36.644 -18.675 -20.454  0.00  0.00    -0.430 OA
ATOM     32  C   UNL     1      36.727 -20.015 -19.953  0.00  0.00    +0.257 C 
ENDBRANCH  29  31
ENDBRANCH  21  23
ENDBRANCH   2  21
TORSDOF 5
ENDMDL
