MODEL 1
REMARK VINA RESULT:     -11.2      0.000      0.000
REMARK  Name = 6433122
REMARK  5 active torsions:
REMARK  status: ('A' for Active; 'I' for Inactive)
REMARK    1  A    between atoms: N_2  and  C_22
REMARK    2  A    between atoms: C_8  and  C_11
REMARK    3  A    between atoms: C_16  and  C_21
REMARK    4  A    between atoms: C_22  and  C_23
REMARK    5  A    between atoms: C_23  and  C_25
REMARK                            x       y       z     vdW  Elec       q    Type
REMARK                         _______ _______ _______ _____ _____    ______ ____
ROOT
ATOM      1  O   UNL     1      37.340 -18.863 -20.637  0.00  0.00    -0.270 OA
ATOM      2  N   UNL     1      33.754 -22.024 -19.185  0.00  0.00    +0.389 N 
ATOM      3  N   UNL     1      35.442 -20.229 -20.645  0.00  0.00    -0.280 N 
ATOM      4  C   UNL     1      35.041 -21.589 -18.625  0.00  0.00    -0.055 C 
ATOM      5  C   UNL     1      33.167 -20.958 -20.010  0.00  0.00    -0.055 C 
ATOM      6  C   UNL     1      36.017 -21.221 -19.740  0.00  0.00    +0.071 C 
ATOM      7  C   UNL     1      34.106 -20.564 -21.151  0.00  0.00    +0.071 C 
ATOM      8  C   UNL     1      36.194 -19.110 -21.012  0.00  0.00    +0.250 C 
ATOM      9  H   UNL     1      33.918 -22.837 -19.778  0.00  0.00    -0.080 HD
ENDROOT
BRANCH   8  11
ATOM     10  N   UNL     1      35.047 -16.384 -20.204  0.00  0.00    -0.311 N 
ATOM     11  C   UNL     1      35.587 -18.137 -21.929  0.00  0.00    +0.067 C 
ATOM     12  C   UNL     1      35.089 -16.915 -21.474  0.00  0.00    +0.053 C 
ATOM     13  C   UNL     1      34.509 -15.977 -22.331  0.00  0.00    +0.024 C 
ATOM     14  C   UNL     1      35.495 -18.415 -23.292  0.00  0.00    +0.006 C 
ATOM     15  C   UNL     1      34.423 -16.275 -23.705  0.00  0.00    +0.002 C 
ATOM     16  C   UNL     1      34.120 -14.866 -21.531  0.00  0.00    +0.084 C 
ATOM     17  C   UNL     1      34.921 -17.498 -24.170  0.00  0.00    +0.000 C 
ATOM     18  C   UNL     1      34.463 -15.146 -20.228  0.00  0.00    +0.072 C 
ATOM     19  H   UNL     1      35.389 -16.830 -19.395  0.00  0.00    +0.152 HD
BRANCH  16  21
ATOM     20  N   UNL     1      32.966 -12.678 -22.309  0.00  0.00    -0.191 NA
ATOM     21  C   UNL     1      33.486 -13.664 -21.958  0.00  0.00    +0.102 C 
ENDBRANCH  16  21
ENDBRANCH   8  11
BRANCH   2  22
ATOM     22  C   UNL     1      32.833 -22.411 -18.117  0.00  0.00    -0.072 C 
BRANCH  22  23
ATOM     23  C   UNL     1      33.499 -23.390 -17.148  0.00  0.00    +0.004 C 
BRANCH  23  25
ATOM     24  F   UNL     1      30.630 -23.802 -12.334  0.00  0.00    -0.204 F 
ATOM     25  C   UNL     1      32.729 -23.501 -15.857  0.00  0.00    -0.024 C 
ATOM     26  C   UNL     1      31.369 -23.234 -15.850  0.00  0.00    -0.002 C 
ATOM     27  C   UNL     1      33.395 -23.868 -14.697  0.00  0.00    -0.002 C 
ATOM     28  C   UNL     1      30.657 -23.336 -14.655  0.00  0.00    +0.029 C 
ATOM     29  C   UNL     1      32.683 -23.972 -13.502  0.00  0.00    +0.029 C 
ATOM     30  C   UNL     1      31.314 -23.705 -13.480  0.00  0.00    +0.140 C 
ENDBRANCH  23  25
ENDBRANCH  22  23
ENDBRANCH   2  22
TORSDOF 5
ENDMDL
MODEL 2
REMARK VINA RESULT:     -11.0      4.313      9.710
REMARK  Name = 6433122
REMARK  5 active torsions:
REMARK  status: ('A' for Active; 'I' for Inactive)
REMARK    1  A    between atoms: N_2  and  C_22
REMARK    2  A    between atoms: C_8  and  C_11
REMARK    3  A    between atoms: C_16  and  C_21
REMARK    4  A    between atoms: C_22  and  C_23
REMARK    5  A    between atoms: C_23  and  C_25
REMARK                            x       y       z     vdW  Elec       q    Type
REMARK                         _______ _______ _______ _____ _____    ______ ____
ROOT
ATOM      1  O   UNL     1      35.239 -18.064 -23.582  0.00  0.00    -0.270 OA
ATOM      2  N   UNL     1      33.484 -14.206 -20.937  0.00  0.00    +0.389 N 
ATOM      3  N   UNL     1      34.935 -16.487 -21.882  0.00  0.00    -0.280 N 
ATOM      4  C   UNL     1      33.312 -14.679 -22.318  0.00  0.00    -0.055 C 
ATOM      5  C   UNL     1      33.759 -15.336 -20.038  0.00  0.00    -0.055 C 
ATOM      6  C   UNL     1      34.565 -15.409 -22.796  0.00  0.00    +0.071 C 
ATOM      7  C   UNL     1      35.016 -16.092 -20.471  0.00  0.00    +0.071 C 
ATOM      8  C   UNL     1      35.245 -17.750 -22.392  0.00  0.00    +0.250 C 
ATOM      9  H   UNL     1      34.281 -13.571 -20.910  0.00  0.00    -0.080 HD
ENDROOT
BRANCH   8  11
ATOM     10  N   UNL     1      33.309 -19.751 -21.107  0.00  0.00    -0.311 N 
ATOM     11  C   UNL     1      35.619 -18.808 -21.444  0.00  0.00    +0.067 C 
ATOM     12  C   UNL     1      34.670 -19.678 -20.907  0.00  0.00    +0.053 C 
ATOM     13  C   UNL     1      35.007 -20.690 -20.005  0.00  0.00    +0.024 C 
ATOM     14  C   UNL     1      36.949 -18.968 -21.057  0.00  0.00    +0.006 C 
ATOM     15  C   UNL     1      36.355 -20.837 -19.624  0.00  0.00    +0.002 C 
ATOM     16  C   UNL     1      33.802 -21.372 -19.674  0.00  0.00    +0.084 C 
ATOM     17  C   UNL     1      37.314 -19.969 -20.159  0.00  0.00    +0.000 C 
ATOM     18  C   UNL     1      32.776 -20.771 -20.366  0.00  0.00    +0.072 C 
ATOM     19  H   UNL     1      32.794 -19.156 -21.699  0.00  0.00    +0.152 HD
BRANCH  16  21
ATOM     20  N   UNL     1      33.510 -23.384 -18.065  0.00  0.00    -0.191 NA
ATOM     21  C   UNL     1      33.642 -22.477 -18.790  0.00  0.00    +0.102 C 
ENDBRANCH  16  21
ENDBRANCH   8  11
BRANCH   2  22
ATOM     22  C   UNL     1      32.298 -13.474 -20.493  0.00  0.00    -0.072 C 
BRANCH  22  23
ATOM     23  C   UNL     1      31.819 -12.501 -21.572  0.00  0.00    +0.004 C 
BRANCH  23  25
ATOM     24  F   UNL     1      31.979  -7.180 -19.773  0.00  0.00    -0.204 F 
ATOM     25  C   UNL     1      31.862 -11.074 -21.090  0.00  0.00    -0.024 C 
ATOM     26  C   UNL     1      31.728 -10.809 -19.735  0.00  0.00    -0.002 C 
ATOM     27  C   UNL     1      32.035 -10.050 -22.009  0.00  0.00    -0.002 C 
ATOM     28  C   UNL     1      31.769  -9.488 -19.289  0.00  0.00    +0.029 C 
ATOM     29  C   UNL     1      32.076  -8.729 -21.562  0.00  0.00    +0.029 C 
ATOM     30  C   UNL     1      31.942  -8.447 -20.202  0.00  0.00    +0.140 C 
ENDBRANCH  23  25
ENDBRANCH  22  23
ENDBRANCH   2  22
TORSDOF 5
ENDMDL
MODEL 3
REMARK VINA RESULT:     -11.0      1.245      2.083
REMARK  Name = 6433122
REMARK  5 active torsions:
REMARK  status: ('A' for Active; 'I' for Inactive)
REMARK    1  A    between atoms: N_2  and  C_22
REMARK    2  A    between atoms: C_8  and  C_11
REMARK    3  A    between atoms: C_16  and  C_21
REMARK    4  A    between atoms: C_22  and  C_23
REMARK    5  A    between atoms: C_23  and  C_25
REMARK                            x       y       z     vdW  Elec       q    Type
REMARK                         _______ _______ _______ _____ _____    ______ ____
ROOT
ATOM      1  O   UNL     1      37.225 -18.742 -20.599  0.00  0.00    -0.270 OA
ATOM      2  N   UNL     1      33.536 -21.923 -19.489  0.00  0.00    +0.389 N 
ATOM      3  N   UNL     1      35.185 -19.884 -20.641  0.00  0.00    -0.280 N 
ATOM      4  C   UNL     1      34.946 -21.792 -19.093  0.00  0.00    -0.055 C 
ATOM      5  C   UNL     1      32.970 -20.606 -19.814  0.00  0.00    -0.055 C 
ATOM      6  C   UNL     1      35.763 -21.157 -20.217  0.00  0.00    +0.071 C 
ATOM      7  C   UNL     1      33.750 -19.935 -20.946  0.00  0.00    +0.071 C 
ATOM      8  C   UNL     1      36.010 -18.767 -20.793  0.00  0.00    +0.250 C 
ATOM      9  H   UNL     1      33.487 -22.510 -20.321  0.00  0.00    -0.080 HD
ENDROOT
BRANCH   8  11
ATOM     10  N   UNL     1      35.217 -18.079 -23.673  0.00  0.00    -0.311 N 
ATOM     11  C   UNL     1      35.396 -17.506 -21.228  0.00  0.00    +0.067 C 
ATOM     12  C   UNL     1      35.066 -17.276 -22.565  0.00  0.00    +0.053 C 
ATOM     13  C   UNL     1      34.481 -16.084 -22.997  0.00  0.00    +0.024 C 
ATOM     14  C   UNL     1      35.125 -16.499 -20.303  0.00  0.00    +0.006 C 
ATOM     15  C   UNL     1      34.215 -15.077 -22.049  0.00  0.00    +0.002 C 
ATOM     16  C   UNL     1      34.286 -16.201 -24.402  0.00  0.00    +0.084 C 
ATOM     17  C   UNL     1      34.542 -15.299 -20.706  0.00  0.00    +0.000 C 
ATOM     18  C   UNL     1      34.749 -17.438 -24.789  0.00  0.00    +0.072 C 
ATOM     19  H   UNL     1      35.605 -18.984 -23.665  0.00  0.00    +0.152 HD
BRANCH  16  21
ATOM     20  N   UNL     1      33.257 -14.447 -26.012  0.00  0.00    -0.191 NA
ATOM     21  C   UNL     1      33.721 -15.237 -25.286  0.00  0.00    +0.102 C 
ENDBRANCH  16  21
ENDBRANCH   8  11
BRANCH   2  22
ATOM     22  C   UNL     1      32.762 -22.566 -18.427  0.00  0.00    -0.072 C 
BRANCH  22  23
ATOM     23  C   UNL     1      33.683 -23.164 -17.363  0.00  0.00    +0.004 C 
BRANCH  23  25
ATOM     24  F   UNL     1      30.928 -24.148 -12.565  0.00  0.00    -0.204 F 
ATOM     25  C   UNL     1      32.944 -23.428 -16.076  0.00  0.00    -0.024 C 
ATOM     26  C   UNL     1      31.561 -23.343 -16.056  0.00  0.00    -0.002 C 
ATOM     27  C   UNL     1      33.661 -23.751 -14.933  0.00  0.00    -0.002 C 
ATOM     28  C   UNL     1      30.877 -23.588 -14.865  0.00  0.00    +0.029 C 
ATOM     29  C   UNL     1      32.977 -23.996 -13.743  0.00  0.00    +0.029 C 
ATOM     30  C   UNL     1      31.585 -23.914 -13.708  0.00  0.00    +0.140 C 
ENDBRANCH  23  25
ENDBRANCH  22  23
ENDBRANCH   2  22
TORSDOF 5
ENDMDL
MODEL 4
REMARK VINA RESULT:     -10.6      4.180     10.073
REMARK  Name = 6433122
REMARK  5 active torsions:
REMARK  status: ('A' for Active; 'I' for Inactive)
REMARK    1  A    between atoms: N_2  and  C_22
REMARK    2  A    between atoms: C_8  and  C_11
REMARK    3  A    between atoms: C_16  and  C_21
REMARK    4  A    between atoms: C_22  and  C_23
REMARK    5  A    between atoms: C_23  and  C_25
REMARK                            x       y       z     vdW  Elec       q    Type
REMARK                         _______ _______ _______ _____ _____    ______ ____
ROOT
ATOM      1  O   UNL     1      33.062 -23.047 -17.159  0.00  0.00    -0.270 OA
ATOM      2  N   UNL     1      35.561 -20.449 -20.618  0.00  0.00    +0.389 N 
ATOM      3  N   UNL     1      34.774 -22.258 -18.541  0.00  0.00    -0.280 N 
ATOM      4  C   UNL     1      34.142 -20.612 -20.268  0.00  0.00    -0.055 C 
ATOM      5  C   UNL     1      36.406 -20.627 -19.428  0.00  0.00    -0.055 C 
ATOM      6  C   UNL     1      33.890 -21.996 -19.674  0.00  0.00    +0.071 C 
ATOM      7  C   UNL     1      36.197 -22.007 -18.804  0.00  0.00    +0.071 C 
ATOM      8  C   UNL     1      34.246 -22.776 -17.357  0.00  0.00    +0.250 C 
ATOM      9  H   UNL     1      35.809 -21.165 -21.300  0.00  0.00    -0.080 HD
ENDROOT
BRANCH   8  11
ATOM     10  N   UNL     1      33.473 -24.044 -14.674  0.00  0.00    -0.311 N 
ATOM     11  C   UNL     1      35.165 -23.034 -16.241  0.00  0.00    +0.067 C 
ATOM     12  C   UNL     1      34.727 -23.618 -15.052  0.00  0.00    +0.053 C 
ATOM     13  C   UNL     1      35.587 -23.872 -13.981  0.00  0.00    +0.024 C 
ATOM     14  C   UNL     1      36.514 -22.698 -16.349  0.00  0.00    +0.006 C 
ATOM     15  C   UNL     1      36.947 -23.525 -14.106  0.00  0.00    +0.002 C 
ATOM     16  C   UNL     1      34.806 -24.465 -12.950  0.00  0.00    +0.084 C 
ATOM     17  C   UNL     1      37.395 -22.940 -15.296  0.00  0.00    +0.000 C 
ATOM     18  C   UNL     1      33.510 -24.558 -13.406  0.00  0.00    +0.072 C 
ATOM     19  H   UNL     1      32.667 -23.989 -15.236  0.00  0.00    +0.152 HD
BRANCH  16  21
ATOM     20  N   UNL     1      35.600 -25.253 -10.611  0.00  0.00    -0.191 NA
ATOM     21  C   UNL     1      35.242 -24.898 -11.665  0.00  0.00    +0.102 C 
ENDBRANCH  16  21
ENDBRANCH   8  11
BRANCH   2  22
ATOM     22  C   UNL     1      35.794 -19.137 -21.222  0.00  0.00    -0.072 C 
BRANCH  22  23
ATOM     23  C   UNL     1      35.305 -19.107 -22.671  0.00  0.00    +0.004 C 
BRANCH  23  25
ATOM     24  F   UNL     1      33.810 -13.921 -24.237  0.00  0.00    -0.204 F 
ATOM     25  C   UNL     1      34.904 -17.716 -23.091  0.00  0.00    -0.024 C 
ATOM     26  C   UNL     1      35.082 -16.661 -22.209  0.00  0.00    -0.002 C 
ATOM     27  C   UNL     1      34.364 -17.515 -24.352  0.00  0.00    -0.002 C 
ATOM     28  C   UNL     1      34.711 -15.373 -22.598  0.00  0.00    +0.029 C 
ATOM     29  C   UNL     1      33.994 -16.228 -24.741  0.00  0.00    +0.029 C 
ATOM     30  C   UNL     1      34.167 -15.157 -23.865  0.00  0.00    +0.140 C 
ENDBRANCH  23  25
ENDBRANCH  22  23
ENDBRANCH   2  22
TORSDOF 5
ENDMDL
MODEL 5
REMARK VINA RESULT:     -10.2      4.218      9.210
REMARK  Name = 6433122
REMARK  5 active torsions:
REMARK  status: ('A' for Active; 'I' for Inactive)
REMARK    1  A    between atoms: N_2  and  C_22
REMARK    2  A    between atoms: C_8  and  C_11
REMARK    3  A    between atoms: C_16  and  C_21
REMARK    4  A    between atoms: C_22  and  C_23
REMARK    5  A    between atoms: C_23  and  C_25
REMARK                            x       y       z     vdW  Elec       q    Type
REMARK                         _______ _______ _______ _____ _____    ______ ____
ROOT
ATOM      1  O   UNL     1      34.644 -19.851 -23.585  0.00  0.00    -0.270 OA
ATOM      2  N   UNL     1      34.802 -15.027 -22.293  0.00  0.00    +0.389 N 
ATOM      3  N   UNL     1      34.968 -17.886 -22.359  0.00  0.00    -0.280 N 
ATOM      4  C   UNL     1      34.608 -15.757 -23.554  0.00  0.00    -0.055 C 
ATOM      5  C   UNL     1      34.316 -15.826 -21.158  0.00  0.00    -0.055 C 
ATOM      6  C   UNL     1      35.350 -17.091 -23.524  0.00  0.00    +0.071 C 
ATOM      7  C   UNL     1      35.041 -17.171 -21.080  0.00  0.00    +0.071 C 
ATOM      8  C   UNL     1      34.642 -19.235 -22.519  0.00  0.00    +0.250 C 
ATOM      9  H   UNL     1      35.801 -14.862 -22.166  0.00  0.00    -0.080 HD
ENDROOT
BRANCH   8  11
ATOM     10  N   UNL     1      36.606 -20.391 -20.468  0.00  0.00    -0.311 N 
ATOM     11  C   UNL     1      34.271 -20.005 -21.325  0.00  0.00    +0.067 C 
ATOM     12  C   UNL     1      35.233 -20.495 -20.441  0.00  0.00    +0.053 C 
ATOM     13  C   UNL     1      34.899 -21.228 -19.301  0.00  0.00    +0.024 C 
ATOM     14  C   UNL     1      32.930 -20.265 -21.044  0.00  0.00    +0.006 C 
ATOM     15  C   UNL     1      33.540 -21.482 -19.033  0.00  0.00    +0.002 C 
ATOM     16  C   UNL     1      36.118 -21.558 -18.645  0.00  0.00    +0.084 C 
ATOM     17  C   UNL     1      32.567 -20.994 -19.913  0.00  0.00    +0.000 C 
ATOM     18  C   UNL     1      37.150 -21.030 -19.387  0.00  0.00    +0.072 C 
ATOM     19  H   UNL     1      37.122 -19.923 -21.164  0.00  0.00    +0.152 HD
BRANCH  16  21
ATOM     20  N   UNL     1      36.424 -22.907 -16.452  0.00  0.00    -0.191 NA
ATOM     21  C   UNL     1      36.287 -22.299 -17.440  0.00  0.00    +0.102 C 
ENDBRANCH  16  21
ENDBRANCH   8  11
BRANCH   2  22
ATOM     22  C   UNL     1      34.123 -13.733 -22.338  0.00  0.00    -0.072 C 
BRANCH  22  23
ATOM     23  C   UNL     1      32.732 -13.822 -21.708  0.00  0.00    +0.004 C 
BRANCH  23  25
ATOM     24  F   UNL     1      31.152  -8.907 -19.488  0.00  0.00    -0.204 F 
ATOM     25  C   UNL     1      32.309 -12.503 -21.112  0.00  0.00    -0.024 C 
ATOM     26  C   UNL     1      32.302 -12.350 -19.735  0.00  0.00    -0.002 C 
ATOM     27  C   UNL     1      31.933 -11.467 -21.953  0.00  0.00    -0.002 C 
ATOM     28  C   UNL     1      31.910 -11.129 -19.184  0.00  0.00    +0.029 C 
ATOM     29  C   UNL     1      31.542 -10.247 -21.402  0.00  0.00    +0.029 C 
ATOM     30  C   UNL     1      31.529 -10.077 -20.018  0.00  0.00    +0.140 C 
ENDBRANCH  23  25
ENDBRANCH  22  23
ENDBRANCH   2  22
TORSDOF 5
ENDMDL
MODEL 6
REMARK VINA RESULT:     -10.2      4.761     10.559
REMARK  Name = 6433122
REMARK  5 active torsions:
REMARK  status: ('A' for Active; 'I' for Inactive)
REMARK    1  A    between atoms: N_2  and  C_22
REMARK    2  A    between atoms: C_8  and  C_11
REMARK    3  A    between atoms: C_16  and  C_21
REMARK    4  A    between atoms: C_22  and  C_23
REMARK    5  A    between atoms: C_23  and  C_25
REMARK                            x       y       z     vdW  Elec       q    Type
REMARK                         _______ _______ _______ _____ _____    ______ ____
ROOT
ATOM      1  O   UNL     1      34.269 -18.659 -24.203  0.00  0.00    -0.270 OA
ATOM      2  N   UNL     1      33.955 -13.910 -22.683  0.00  0.00    +0.389 N 
ATOM      3  N   UNL     1      34.754 -16.617 -23.174  0.00  0.00    -0.280 N 
ATOM      4  C   UNL     1      33.240 -14.732 -23.670  0.00  0.00    -0.055 C 
ATOM      5  C   UNL     1      34.455 -14.748 -21.583  0.00  0.00    -0.055 C 
ATOM      6  C   UNL     1      34.158 -15.812 -24.237  0.00  0.00    +0.071 C 
ATOM      7  C   UNL     1      35.391 -15.840 -22.103  0.00  0.00    +0.071 C 
ATOM      8  C   UNL     1      34.746 -18.010 -23.273  0.00  0.00    +0.250 C 
ATOM      9  H   UNL     1      34.753 -13.474 -23.144  0.00  0.00    -0.080 HD
ENDROOT
BRANCH   8  11
ATOM     10  N   UNL     1      33.271 -19.967 -21.432  0.00  0.00    -0.311 N 
ATOM     11  C   UNL     1      35.361 -18.786 -22.189  0.00  0.00    +0.067 C 
ATOM     12  C   UNL     1      34.612 -19.658 -21.397  0.00  0.00    +0.053 C 
ATOM     13  C   UNL     1      35.180 -20.405 -20.363  0.00  0.00    +0.024 C 
ATOM     14  C   UNL     1      36.725 -18.669 -21.925  0.00  0.00    +0.006 C 
ATOM     15  C   UNL     1      36.559 -20.273 -20.109  0.00  0.00    +0.002 C 
ATOM     16  C   UNL     1      34.133 -21.173 -19.780  0.00  0.00    +0.084 C 
ATOM     17  C   UNL     1      37.319 -19.402 -20.899  0.00  0.00    +0.000 C 
ATOM     18  C   UNL     1      32.971 -20.882 -20.458  0.00  0.00    +0.072 C 
ATOM     19  H   UNL     1      32.621 -19.587 -22.066  0.00  0.00    +0.152 HD
BRANCH  16  21
ATOM     20  N   UNL     1      34.300 -22.836 -17.798  0.00  0.00    -0.191 NA
ATOM     21  C   UNL     1      34.225 -22.087 -18.691  0.00  0.00    +0.102 C 
ENDBRANCH  16  21
ENDBRANCH   8  11
BRANCH   2  22
ATOM     22  C   UNL     1      33.086 -12.852 -22.168  0.00  0.00    -0.072 C 
BRANCH  22  23
ATOM     23  C   UNL     1      32.621 -11.928 -23.295  0.00  0.00    +0.004 C 
BRANCH  23  25
ATOM     24  F   UNL     1      35.255  -6.967 -23.115  0.00  0.00    -0.204 F 
ATOM     25  C   UNL     1      33.328 -10.598 -23.247  0.00  0.00    -0.024 C 
ATOM     26  C   UNL     1      34.603 -10.485 -23.778  0.00  0.00    -0.002 C 
ATOM     27  C   UNL     1      32.689  -9.509 -22.672  0.00  0.00    -0.002 C 
ATOM     28  C   UNL     1      35.257  -9.253 -23.733  0.00  0.00    +0.029 C 
ATOM     29  C   UNL     1      33.342  -8.277 -22.628  0.00  0.00    +0.029 C 
ATOM     30  C   UNL     1      34.626  -8.149 -23.158  0.00  0.00    +0.140 C 
ENDBRANCH  23  25
ENDBRANCH  22  23
ENDBRANCH   2  22
TORSDOF 5
ENDMDL
MODEL 7
REMARK VINA RESULT:     -10.2      5.026     10.483
REMARK  Name = 6433122
REMARK  5 active torsions:
REMARK  status: ('A' for Active; 'I' for Inactive)
REMARK    1  A    between atoms: N_2  and  C_22
REMARK    2  A    between atoms: C_8  and  C_11
REMARK    3  A    between atoms: C_16  and  C_21
REMARK    4  A    between atoms: C_22  and  C_23
REMARK    5  A    between atoms: C_23  and  C_25
REMARK                            x       y       z     vdW  Elec       q    Type
REMARK                         _______ _______ _______ _____ _____    ______ ____
ROOT
ATOM      1  O   UNL     1      33.406 -24.763 -12.265  0.00  0.00    -0.270 OA
ATOM      2  N   UNL     1      33.103 -23.285 -17.028  0.00  0.00    +0.389 N 
ATOM      3  N   UNL     1      33.909 -24.413 -14.521  0.00  0.00    -0.280 N 
ATOM      4  C   UNL     1      32.165 -23.336 -15.897  0.00  0.00    -0.055 C 
ATOM      5  C   UNL     1      34.481 -23.113 -16.545  0.00  0.00    -0.055 C 
ATOM      6  C   UNL     1      32.517 -24.488 -14.958  0.00  0.00    +0.071 C 
ATOM      7  C   UNL     1      34.883 -24.253 -15.608  0.00  0.00    +0.071 C 
ATOM      8  C   UNL     1      34.218 -24.564 -13.168  0.00  0.00    +0.250 C 
ATOM      9  H   UNL     1      33.047 -24.169 -17.534  0.00  0.00    -0.080 HD
ENDROOT
BRANCH   8  11
ATOM     10  N   UNL     1      36.473 -26.325 -14.269  0.00  0.00    -0.311 N 
ATOM     11  C   UNL     1      35.629 -24.490 -12.766  0.00  0.00    +0.067 C 
ATOM     12  C   UNL     1      36.593 -25.332 -13.321  0.00  0.00    +0.053 C 
ATOM     13  C   UNL     1      37.939 -25.276 -12.953  0.00  0.00    +0.024 C 
ATOM     14  C   UNL     1      36.041 -23.562 -11.810  0.00  0.00    +0.006 C 
ATOM     15  C   UNL     1      38.338 -24.333 -11.984  0.00  0.00    +0.002 C 
ATOM     16  C   UNL     1      38.621 -26.267 -13.713  0.00  0.00    +0.084 C 
ATOM     17  C   UNL     1      37.378 -23.483 -11.423  0.00  0.00    +0.000 C 
ATOM     18  C   UNL     1      37.694 -26.895 -14.512  0.00  0.00    +0.072 C 
ATOM     19  H   UNL     1      35.633 -26.585 -14.709  0.00  0.00    +0.152 HD
BRANCH  16  21
ATOM     20  N   UNL     1      41.148 -26.848 -13.657  0.00  0.00    -0.191 NA
ATOM     21  C   UNL     1      40.009 -26.586 -13.682  0.00  0.00    +0.102 C 
ENDBRANCH  16  21
ENDBRANCH   8  11
BRANCH   2  22
ATOM     22  C   UNL     1      32.742 -22.206 -17.947  0.00  0.00    -0.072 C 
BRANCH  22  23
ATOM     23  C   UNL     1      33.256 -22.493 -19.359  0.00  0.00    +0.004 C 
BRANCH  23  25
ATOM     24  F   UNL     1      37.095 -18.718 -20.966  0.00  0.00    -0.204 F 
ATOM     25  C   UNL     1      34.286 -21.481 -19.790  0.00  0.00    -0.024 C 
ATOM     26  C   UNL     1      35.617 -21.680 -19.458  0.00  0.00    -0.002 C 
ATOM     27  C   UNL     1      33.884 -20.367 -20.512  0.00  0.00    -0.002 C 
ATOM     28  C   UNL     1      36.570 -20.743 -19.857  0.00  0.00    +0.029 C 
ATOM     29  C   UNL     1      34.837 -19.430 -20.911  0.00  0.00    +0.029 C 
ATOM     30  C   UNL     1      36.180 -19.617 -20.584  0.00  0.00    +0.140 C 
ENDBRANCH  23  25
ENDBRANCH  22  23
ENDBRANCH   2  22
TORSDOF 5
ENDMDL
MODEL 8
REMARK VINA RESULT:     -10.1      2.521      4.478
REMARK  Name = 6433122
REMARK  5 active torsions:
REMARK  status: ('A' for Active; 'I' for Inactive)
REMARK    1  A    between atoms: N_2  and  C_22
REMARK    2  A    between atoms: C_8  and  C_11
REMARK    3  A    between atoms: C_16  and  C_21
REMARK    4  A    between atoms: C_22  and  C_23
REMARK    5  A    between atoms: C_23  and  C_25
REMARK                            x       y       z     vdW  Elec       q    Type
REMARK                         _______ _______ _______ _____ _____    ______ ____
ROOT
ATOM      1  O   UNL     1      36.864 -21.837 -17.848  0.00  0.00    -0.270 OA
ATOM      2  N   UNL     1      33.680 -24.154 -14.773  0.00  0.00    +0.389 N 
ATOM      3  N   UNL     1      35.020 -23.024 -17.039  0.00  0.00    -0.280 N 
ATOM      4  C   UNL     1      35.050 -23.634 -14.647  0.00  0.00    -0.055 C 
ATOM      5  C   UNL     1      32.927 -23.381 -15.771  0.00  0.00    -0.055 C 
ATOM      6  C   UNL     1      35.776 -23.702 -15.989  0.00  0.00    +0.071 C 
ATOM      7  C   UNL     1      33.613 -23.430 -17.138  0.00  0.00    +0.071 C 
ATOM      8  C   UNL     1      35.669 -22.128 -17.890  0.00  0.00    +0.250 C 
ATOM      9  H   UNL     1      33.731 -25.123 -15.087  0.00  0.00    -0.080 HD
ENDROOT
BRANCH   8  11
ATOM     10  N   UNL     1      36.748 -20.099 -19.919  0.00  0.00    -0.311 N 
ATOM     11  C   UNL     1      34.879 -21.471 -18.939  0.00  0.00    +0.067 C 
ATOM     12  C   UNL     1      35.453 -20.557 -19.824  0.00  0.00    +0.053 C 
ATOM     13  C   UNL     1      34.718 -19.923 -20.828  0.00  0.00    +0.024 C 
ATOM     14  C   UNL     1      33.520 -21.751 -19.077  0.00  0.00    +0.006 C 
ATOM     15  C   UNL     1      33.345 -20.217 -20.951  0.00  0.00    +0.002 C 
ATOM     16  C   UNL     1      35.617 -19.071 -21.529  0.00  0.00    +0.084 C 
ATOM     17  C   UNL     1      32.761 -21.133 -20.069  0.00  0.00    +0.000 C 
ATOM     18  C   UNL     1      36.857 -19.200 -20.947  0.00  0.00    +0.072 C 
ATOM     19  H   UNL     1      37.489 -20.378 -19.335  0.00  0.00    +0.152 HD
BRANCH  16  21
ATOM     20  N   UNL     1      35.092 -17.522 -23.541  0.00  0.00    -0.191 NA
ATOM     21  C   UNL     1      35.328 -18.220 -22.634  0.00  0.00    +0.102 C 
ENDBRANCH  16  21
ENDBRANCH   8  11
BRANCH   2  22
ATOM     22  C   UNL     1      32.998 -24.125 -13.480  0.00  0.00    -0.072 C 
BRANCH  22  23
ATOM     23  C   UNL     1      31.844 -25.127 -13.446  0.00  0.00    +0.004 C 
BRANCH  23  25
ATOM     24  F   UNL     1      27.336 -23.175 -16.175  0.00  0.00    -0.204 F 
ATOM     25  C   UNL     1      30.634 -24.604 -14.178  0.00  0.00    -0.024 C 
ATOM     26  C   UNL     1      29.885 -25.469 -14.959  0.00  0.00    -0.002 C 
ATOM     27  C   UNL     1      30.293 -23.265 -14.057  0.00  0.00    -0.002 C 
ATOM     28  C   UNL     1      28.765 -24.984 -15.636  0.00  0.00    +0.029 C 
ATOM     29  C   UNL     1      29.174 -22.781 -14.734  0.00  0.00    +0.029 C 
ATOM     30  C   UNL     1      28.410 -23.640 -15.524  0.00  0.00    +0.140 C 
ENDBRANCH  23  25
ENDBRANCH  22  23
ENDBRANCH   2  22
TORSDOF 5
ENDMDL
MODEL 9
REMARK VINA RESULT:      -9.9      3.889      7.228
REMARK  Name = 6433122
REMARK  5 active torsions:
REMARK  status: ('A' for Active; 'I' for Inactive)
REMARK    1  A    between atoms: N_2  and  C_22
REMARK    2  A    between atoms: C_8  and  C_11
REMARK    3  A    between atoms: C_16  and  C_21
REMARK    4  A    between atoms: C_22  and  C_23
REMARK    5  A    between atoms: C_23  and  C_25
REMARK                            x       y       z     vdW  Elec       q    Type
REMARK                         _______ _______ _______ _____ _____    ______ ____
ROOT
ATOM      1  O   UNL     1      33.238 -12.319 -24.379  0.00  0.00    -0.270 OA
ATOM      2  N   UNL     1      34.626 -16.356 -21.782  0.00  0.00    +0.389 N 
ATOM      3  N   UNL     1      33.321 -13.998 -22.754  0.00  0.00    -0.280 N 
ATOM      4  C   UNL     1      34.966 -15.805 -23.102  0.00  0.00    -0.055 C 
ATOM      5  C   UNL     1      34.256 -15.276 -20.855  0.00  0.00    -0.055 C 
ATOM      6  C   UNL     1      33.787 -15.027 -23.681  0.00  0.00    +0.071 C 
ATOM      7  C   UNL     1      33.067 -14.475 -21.389  0.00  0.00    +0.071 C 
ATOM      8  C   UNL     1      33.087 -12.702 -23.219  0.00  0.00    +0.250 C 
ATOM      9  H   UNL     1      33.825 -16.978 -21.889  0.00  0.00    -0.080 HD
ENDROOT
BRANCH   8  11
ATOM     10  N   UNL     1      33.549  -9.680 -23.441  0.00  0.00    -0.311 N 
ATOM     11  C   UNL     1      32.612 -11.696 -22.260  0.00  0.00    +0.067 C 
ATOM     12  C   UNL     1      32.868 -10.336 -22.440  0.00  0.00    +0.053 C 
ATOM     13  C   UNL     1      32.423  -9.365 -21.540  0.00  0.00    +0.024 C 
ATOM     14  C   UNL     1      31.884 -12.083 -21.136  0.00  0.00    +0.006 C 
ATOM     15  C   UNL     1      31.690  -9.774 -20.408  0.00  0.00    +0.002 C 
ATOM     16  C   UNL     1      32.861  -8.105 -22.036  0.00  0.00    +0.084 C 
ATOM     17  C   UNL     1      31.428 -11.136 -20.221  0.00  0.00    +0.000 C 
ATOM     18  C   UNL     1      33.550  -8.331 -23.206  0.00  0.00    +0.072 C 
ATOM     19  H   UNL     1      33.973 -10.117 -24.214  0.00  0.00    +0.152 HD
BRANCH  16  21
ATOM     20  N   UNL     1      32.474  -5.766 -20.986  0.00  0.00    -0.191 NA
ATOM     21  C   UNL     1      32.648  -6.820 -21.460  0.00  0.00    +0.102 C 
ENDBRANCH  16  21
ENDBRANCH   8  11
BRANCH   2  22
ATOM     22  C   UNL     1      35.743 -17.133 -21.246  0.00  0.00    -0.072 C 
BRANCH  22  23
ATOM     23  C   UNL     1      35.838 -18.498 -21.928  0.00  0.00    +0.004 C 
BRANCH  23  25
ATOM     24  F   UNL     1      34.573 -22.670 -18.382  0.00  0.00    -0.204 F 
ATOM     25  C   UNL     1      35.499 -19.617 -20.977  0.00  0.00    -0.024 C 
ATOM     26  C   UNL     1      36.520 -20.282 -20.317  0.00  0.00    -0.002 C 
ATOM     27  C   UNL     1      34.170 -19.962 -20.778  0.00  0.00    -0.002 C 
ATOM     28  C   UNL     1      36.206 -21.318 -19.436  0.00  0.00    +0.029 C 
ATOM     29  C   UNL     1      33.856 -20.997 -19.897  0.00  0.00    +0.029 C 
ATOM     30  C   UNL     1      34.874 -21.676 -19.226  0.00  0.00    +0.140 C 
ENDBRANCH  23  25
ENDBRANCH  22  23
ENDBRANCH   2  22
TORSDOF 5
ENDMDL
