MODEL 1
REMARK VINA RESULT:     -11.3      0.000      0.000
REMARK  Name = 46207586
REMARK  7 active torsions:
REMARK  status: ('A' for Active; 'I' for Inactive)
REMARK    1  A    between atoms: C_6  and  C_13
REMARK    2  A    between atoms: C_7  and  C_34
REMARK    3  A    between atoms: C_16  and  N_20
REMARK    4  A    between atoms: N_21  and  C_26
REMARK    5  A    between atoms: N_32  and  C_37
REMARK    6  A    between atoms: C_37  and  C_38
REMARK    7  A    between atoms: C_38  and  O_39
REMARK                            x       y       z     vdW  Elec       q    Type
REMARK                         _______ _______ _______ _____ _____    ______ ____
ROOT
ATOM      1  S   UNL     1      34.576 -15.655 -20.335  0.00  0.00    -0.086 S 
ATOM      2  N   UNL     1      34.361 -16.420 -24.744  0.00  0.00    -0.230 NA
ATOM      3  N   UNL     1      33.583 -14.208 -25.045  0.00  0.00    -0.343 N 
ATOM      4  C   UNL     1      34.101 -15.033 -22.800  0.00  0.00    +0.038 C 
ATOM      5  C   UNL     1      34.544 -16.091 -22.003  0.00  0.00    +0.034 C 
ATOM      6  C   UNL     1      33.796 -13.877 -22.005  0.00  0.00    +0.010 C 
ATOM      7  C   UNL     1      34.900 -17.324 -22.564  0.00  0.00    +0.028 C 
ATOM      8  C   UNL     1      34.021 -15.236 -24.186  0.00  0.00    +0.126 C 
ATOM      9  C   UNL     1      34.010 -14.081 -20.662  0.00  0.00    +0.036 C 
ATOM     10  C   UNL     1      34.783 -17.415 -23.940  0.00  0.00    +0.101 C 
ATOM     11  H   UNL     1      33.532 -14.365 -26.016  0.00  0.00    +0.144 HD
ATOM     12  H   UNL     1      33.328 -13.332 -24.675  0.00  0.00    +0.144 HD
ENDROOT
BRANCH   6  13
ATOM     13  C   UNL     1      33.315 -12.592 -22.446  0.00  0.00    +0.001 C 
ATOM     14  C   UNL     1      32.050 -12.149 -22.062  0.00  0.00    +0.001 C 
ATOM     15  C   UNL     1      34.117 -11.789 -23.258  0.00  0.00    +0.001 C 
ATOM     16  C   UNL     1      32.388 -10.103 -23.301  0.00  0.00    +0.052 C 
ATOM     17  C   UNL     1      31.585 -10.905 -22.489  0.00  0.00    +0.015 C 
ATOM     18  C   UNL     1      33.653 -10.545 -23.686  0.00  0.00    +0.015 C 
BRANCH  16  20
ATOM     19  O   UNL     1      33.258  -7.353 -22.527  0.00  0.00    -0.252 OA
ATOM     20  N   UNL     1      31.924  -8.858 -23.728  0.00  0.00    -0.268 N 
ATOM     21  N   UNL     1      31.623  -6.586 -24.012  0.00  0.00    -0.268 N 
ATOM     22  C   UNL     1      32.363  -7.570 -23.336  0.00  0.00    +0.308 C 
ATOM     23  H   UNL     1      31.194  -8.878 -24.389  0.00  0.00    +0.156 HD
ATOM     24  H   UNL     1      30.935  -6.914 -24.634  0.00  0.00    +0.156 HD
BRANCH  21  26
ATOM     25  F   UNL     1      31.363  -2.549 -21.425  0.00  0.00    -0.204 F 
ATOM     26  C   UNL     1      31.745  -5.180 -23.909  0.00  0.00    +0.054 C 
ATOM     27  C   UNL     1      31.489  -4.546 -22.693  0.00  0.00    +0.044 C 
ATOM     28  C   UNL     1      32.120  -4.429 -25.023  0.00  0.00    +0.015 C 
ATOM     29  C   UNL     1      31.608  -3.159 -22.591  0.00  0.00    +0.141 C 
ATOM     30  C   UNL     1      32.240  -3.043 -24.921  0.00  0.00    +0.004 C 
ATOM     31  C   UNL     1      31.983  -2.408 -23.705  0.00  0.00    +0.030 C 
ENDBRANCH  21  26
ENDBRANCH  16  20
ENDBRANCH   6  13
BRANCH   7  34
ATOM     32  N   UNL     1      35.356 -20.254 -20.579  0.00  0.00    -0.208 N 
ATOM     33  N   UNL     1      36.645 -19.872 -20.561  0.00  0.00    -0.176 NA
ATOM     34  C   UNL     1      35.358 -18.419 -21.764  0.00  0.00    +0.039 C 
ATOM     35  C   UNL     1      34.544 -19.417 -21.286  0.00  0.00    +0.086 C 
ATOM     36  C   UNL     1      36.639 -18.752 -21.286  0.00  0.00    +0.119 C 
BRANCH  32  37
ATOM     37  C   UNL     1      34.954 -21.454 -19.886  0.00  0.00    +0.148 C 
BRANCH  37  38
ATOM     38  C   UNL     1      33.477 -21.440 -19.507  0.00  0.00    +0.161 C 
BRANCH  38  39
ATOM     39  O   UNL     1      33.061 -22.752 -19.150  0.00  0.00    -0.380 OA
ATOM     40  H   UNL     1      33.837 -23.330 -19.080  0.00  0.00    +0.211 HD
ENDBRANCH  38  39
ENDBRANCH  37  38
ENDBRANCH  32  37
ENDBRANCH   7  34
TORSDOF 7
ENDMDL
MODEL 2
REMARK VINA RESULT:     -11.1      0.836      1.167
REMARK  Name = 46207586
REMARK  7 active torsions:
REMARK  status: ('A' for Active; 'I' for Inactive)
REMARK    1  A    between atoms: C_6  and  C_13
REMARK    2  A    between atoms: C_7  and  C_34
REMARK    3  A    between atoms: C_16  and  N_20
REMARK    4  A    between atoms: N_21  and  C_26
REMARK    5  A    between atoms: N_32  and  C_37
REMARK    6  A    between atoms: C_37  and  C_38
REMARK    7  A    between atoms: C_38  and  O_39
REMARK                            x       y       z     vdW  Elec       q    Type
REMARK                         _______ _______ _______ _____ _____    ______ ____
ROOT
ATOM      1  S   UNL     1      34.612 -15.656 -20.327  0.00  0.00    -0.086 S 
ATOM      2  N   UNL     1      34.386 -16.488 -24.723  0.00  0.00    -0.230 NA
ATOM      3  N   UNL     1      33.615 -14.278 -25.056  0.00  0.00    -0.343 N 
ATOM      4  C   UNL     1      34.134 -15.070 -22.800  0.00  0.00    +0.038 C 
ATOM      5  C   UNL     1      34.576 -16.118 -21.987  0.00  0.00    +0.034 C 
ATOM      6  C   UNL     1      33.835 -13.902 -22.022  0.00  0.00    +0.010 C 
ATOM      7  C   UNL     1      34.927 -17.360 -22.531  0.00  0.00    +0.028 C 
ATOM      8  C   UNL     1      34.051 -15.294 -24.182  0.00  0.00    +0.126 C 
ATOM      9  C   UNL     1      34.050 -14.085 -20.676  0.00  0.00    +0.036 C 
ATOM     10  C   UNL     1      34.807 -17.471 -23.904  0.00  0.00    +0.101 C 
ATOM     11  H   UNL     1      33.561 -14.450 -26.024  0.00  0.00    +0.144 HD
ATOM     12  H   UNL     1      33.363 -13.396 -24.699  0.00  0.00    +0.144 HD
ENDROOT
BRANCH   6  13
ATOM     13  C   UNL     1      33.357 -12.622 -22.482  0.00  0.00    +0.001 C 
ATOM     14  C   UNL     1      32.099 -12.164 -22.092  0.00  0.00    +0.001 C 
ATOM     15  C   UNL     1      34.155 -11.840 -23.317  0.00  0.00    +0.001 C 
ATOM     16  C   UNL     1      32.436 -10.144 -23.373  0.00  0.00    +0.052 C 
ATOM     17  C   UNL     1      31.637 -10.925 -22.538  0.00  0.00    +0.015 C 
ATOM     18  C   UNL     1      33.695 -10.600 -23.763  0.00  0.00    +0.015 C 
BRANCH  16  20
ATOM     19  O   UNL     1      33.301  -7.385 -22.626  0.00  0.00    -0.252 OA
ATOM     20  N   UNL     1      31.975  -8.904 -23.818  0.00  0.00    -0.268 N 
ATOM     21  N   UNL     1      31.677  -6.635 -24.131  0.00  0.00    -0.268 N 
ATOM     22  C   UNL     1      32.411  -7.611 -23.439  0.00  0.00    +0.308 C 
ATOM     23  H   UNL     1      31.250  -8.932 -24.484  0.00  0.00    +0.156 HD
ATOM     24  H   UNL     1      30.993  -6.971 -24.755  0.00  0.00    +0.156 HD
BRANCH  21  26
ATOM     25  F   UNL     1      32.909  -2.420 -26.074  0.00  0.00    -0.204 F 
ATOM     26  C   UNL     1      31.798  -5.228 -24.044  0.00  0.00    +0.054 C 
ATOM     27  C   UNL     1      32.303  -4.504 -25.123  0.00  0.00    +0.044 C 
ATOM     28  C   UNL     1      31.414  -4.566 -22.878  0.00  0.00    +0.015 C 
ATOM     29  C   UNL     1      32.425  -3.117 -25.038  0.00  0.00    +0.141 C 
ATOM     30  C   UNL     1      31.535  -3.179 -22.792  0.00  0.00    +0.004 C 
ATOM     31  C   UNL     1      32.040  -2.454 -23.872  0.00  0.00    +0.030 C 
ENDBRANCH  21  26
ENDBRANCH  16  20
ENDBRANCH   6  13
BRANCH   7  34
ATOM     32  N   UNL     1      35.378 -20.266 -20.509  0.00  0.00    -0.208 N 
ATOM     33  N   UNL     1      36.666 -19.879 -20.486  0.00  0.00    -0.176 NA
ATOM     34  C   UNL     1      35.382 -18.444 -21.714  0.00  0.00    +0.039 C 
ATOM     35  C   UNL     1      34.568 -19.440 -21.230  0.00  0.00    +0.086 C 
ATOM     36  C   UNL     1      36.661 -18.767 -21.224  0.00  0.00    +0.119 C 
BRANCH  32  37
ATOM     37  C   UNL     1      34.976 -21.459 -19.804  0.00  0.00    +0.148 C 
BRANCH  37  38
ATOM     38  C   UNL     1      33.491 -21.455 -19.456  0.00  0.00    +0.161 C 
BRANCH  38  39
ATOM     39  O   UNL     1      33.073 -22.774 -19.127  0.00  0.00    -0.380 OA
ATOM     40  H   UNL     1      32.187 -22.932 -19.488  0.00  0.00    +0.211 HD
ENDBRANCH  38  39
ENDBRANCH  37  38
ENDBRANCH  32  37
ENDBRANCH   7  34
TORSDOF 7
ENDMDL
MODEL 3
REMARK VINA RESULT:     -10.0      4.175     12.634
REMARK  Name = 46207586
REMARK  7 active torsions:
REMARK  status: ('A' for Active; 'I' for Inactive)
REMARK    1  A    between atoms: C_6  and  C_13
REMARK    2  A    between atoms: C_7  and  C_34
REMARK    3  A    between atoms: C_16  and  N_20
REMARK    4  A    between atoms: N_21  and  C_26
REMARK    5  A    between atoms: N_32  and  C_37
REMARK    6  A    between atoms: C_37  and  C_38
REMARK    7  A    between atoms: C_38  and  O_39
REMARK                            x       y       z     vdW  Elec       q    Type
REMARK                         _______ _______ _______ _____ _____    ______ ____
ROOT
ATOM      1  S   UNL     1      34.539  -8.924 -23.989  0.00  0.00    -0.086 S 
ATOM      2  N   UNL     1      30.554  -9.952 -22.218  0.00  0.00    -0.230 NA
ATOM      3  N   UNL     1      31.246 -12.208 -22.082  0.00  0.00    -0.343 N 
ATOM      4  C   UNL     1      32.758 -10.513 -22.993  0.00  0.00    +0.038 C 
ATOM      5  C   UNL     1      32.970  -9.171 -23.320  0.00  0.00    +0.034 C 
ATOM      6  C   UNL     1      33.910 -11.310 -23.307  0.00  0.00    +0.010 C 
ATOM      7  C   UNL     1      31.979  -8.205 -23.101  0.00  0.00    +0.028 C 
ATOM      8  C   UNL     1      31.521 -10.872 -22.436  0.00  0.00    +0.126 C 
ATOM      9  C   UNL     1      34.938 -10.575 -23.848  0.00  0.00    +0.036 C 
ATOM     10  C   UNL     1      30.799  -8.669 -22.547  0.00  0.00    +0.101 C 
ATOM     11  H   UNL     1      30.373 -12.445 -21.693  0.00  0.00    +0.144 HD
ATOM     12  H   UNL     1      31.926 -12.905 -22.226  0.00  0.00    +0.144 HD
ENDROOT
BRANCH   6  13
ATOM     13  C   UNL     1      34.090 -12.729 -23.121  0.00  0.00    +0.001 C 
ATOM     14  C   UNL     1      33.936 -13.600 -24.199  0.00  0.00    +0.001 C 
ATOM     15  C   UNL     1      34.420 -13.230 -21.862  0.00  0.00    +0.001 C 
ATOM     16  C   UNL     1      34.441 -15.473 -22.759  0.00  0.00    +0.052 C 
ATOM     17  C   UNL     1      34.111 -14.972 -24.019  0.00  0.00    +0.015 C 
ATOM     18  C   UNL     1      34.596 -14.603 -21.680  0.00  0.00    +0.015 C 
BRANCH  16  20
ATOM     19  O   UNL     1      34.990 -17.035 -20.274  0.00  0.00    -0.252 OA
ATOM     20  N   UNL     1      34.618 -16.845 -22.579  0.00  0.00    -0.268 N 
ATOM     21  N   UNL     1      34.986 -18.926 -21.648  0.00  0.00    -0.268 N 
ATOM     22  C   UNL     1      34.878 -17.553 -21.380  0.00  0.00    +0.308 C 
ATOM     23  H   UNL     1      34.553 -17.395 -23.393  0.00  0.00    +0.156 HD
ATOM     24  H   UNL     1      34.871 -19.194 -22.589  0.00  0.00    +0.156 HD
BRANCH  21  26
ATOM     25  F   UNL     1      33.417 -22.505 -18.857  0.00  0.00    -0.204 F 
ATOM     26  C   UNL     1      35.239 -19.976 -20.733  0.00  0.00    +0.054 C 
ATOM     27  C   UNL     1      34.182 -20.738 -20.237  0.00  0.00    +0.044 C 
ATOM     28  C   UNL     1      36.546 -20.246 -20.326  0.00  0.00    +0.015 C 
ATOM     29  C   UNL     1      34.431 -21.772 -19.334  0.00  0.00    +0.141 C 
ATOM     30  C   UNL     1      36.795 -21.280 -19.423  0.00  0.00    +0.004 C 
ATOM     31  C   UNL     1      35.738 -22.043 -18.927  0.00  0.00    +0.030 C 
ENDBRANCH  21  26
ENDBRANCH  16  20
ENDBRANCH   6  13
BRANCH   7  34
ATOM     32  N   UNL     1      32.251  -4.962 -24.565  0.00  0.00    -0.208 N 
ATOM     33  N   UNL     1      32.674  -4.598 -23.342  0.00  0.00    -0.176 NA
ATOM     34  C   UNL     1      32.178  -6.826 -23.428  0.00  0.00    +0.039 C 
ATOM     35  C   UNL     1      31.943  -6.287 -24.669  0.00  0.00    +0.086 C 
ATOM     36  C   UNL     1      32.626  -5.740 -22.652  0.00  0.00    +0.119 C 
BRANCH  32  37
ATOM     37  C   UNL     1      32.165  -3.977 -25.616  0.00  0.00    +0.148 C 
BRANCH  37  38
ATOM     38  C   UNL     1      31.286  -2.792 -25.229  0.00  0.00    +0.161 C 
BRANCH  38  39
ATOM     39  O   UNL     1      30.215  -3.237 -24.406  0.00  0.00    -0.380 OA
ATOM     40  H   UNL     1      29.686  -2.475 -24.124  0.00  0.00    +0.211 HD
ENDBRANCH  38  39
ENDBRANCH  37  38
ENDBRANCH  32  37
ENDBRANCH   7  34
TORSDOF 7
ENDMDL
MODEL 4
REMARK VINA RESULT:      -9.5      1.578      1.897
REMARK  Name = 46207586
REMARK  7 active torsions:
REMARK  status: ('A' for Active; 'I' for Inactive)
REMARK    1  A    between atoms: C_6  and  C_13
REMARK    2  A    between atoms: C_7  and  C_34
REMARK    3  A    between atoms: C_16  and  N_20
REMARK    4  A    between atoms: N_21  and  C_26
REMARK    5  A    between atoms: N_32  and  C_37
REMARK    6  A    between atoms: C_37  and  C_38
REMARK    7  A    between atoms: C_38  and  O_39
REMARK                            x       y       z     vdW  Elec       q    Type
REMARK                         _______ _______ _______ _____ _____    ______ ____
ROOT
ATOM      1  S   UNL     1      34.444 -15.435 -20.927  0.00  0.00    -0.086 S 
ATOM      2  N   UNL     1      33.864 -15.813 -25.353  0.00  0.00    -0.230 NA
ATOM      3  N   UNL     1      33.149 -13.560 -25.407  0.00  0.00    -0.343 N 
ATOM      4  C   UNL     1      33.805 -14.589 -23.286  0.00  0.00    +0.038 C 
ATOM      5  C   UNL     1      34.269 -15.726 -22.617  0.00  0.00    +0.034 C 
ATOM      6  C   UNL     1      33.605 -13.498 -22.375  0.00  0.00    +0.010 C 
ATOM      7  C   UNL     1      34.534 -16.916 -23.305  0.00  0.00    +0.028 C 
ATOM      8  C   UNL     1      33.612 -14.671 -24.673  0.00  0.00    +0.126 C 
ATOM      9  C   UNL     1      33.914 -13.822 -21.075  0.00  0.00    +0.036 C 
ATOM     10  C   UNL     1      34.309 -16.885 -24.670  0.00  0.00    +0.101 C 
ATOM     11  H   UNL     1      33.017 -13.632 -26.380  0.00  0.00    +0.144 HD
ATOM     12  H   UNL     1      32.956 -12.712 -24.946  0.00  0.00    +0.144 HD
ENDROOT
BRANCH   6  13
ATOM     13  C   UNL     1      33.141 -12.165 -22.669  0.00  0.00    +0.001 C 
ATOM     14  C   UNL     1      31.854 -11.776 -22.300  0.00  0.00    +0.001 C 
ATOM     15  C   UNL     1      33.980 -11.263 -23.324  0.00  0.00    +0.001 C 
ATOM     16  C   UNL     1      32.244  -9.585 -23.239  0.00  0.00    +0.052 C 
ATOM     17  C   UNL     1      31.405 -10.486 -22.584  0.00  0.00    +0.015 C 
ATOM     18  C   UNL     1      33.532  -9.972 -23.608  0.00  0.00    +0.015 C 
BRANCH  16  20
ATOM     19  O   UNL     1      33.783  -7.113 -23.905  0.00  0.00    -0.252 OA
ATOM     20  N   UNL     1      31.796  -8.294 -23.522  0.00  0.00    -0.268 N 
ATOM     21  N   UNL     1      31.706  -6.048 -24.051  0.00  0.00    -0.268 N 
ATOM     22  C   UNL     1      32.559  -7.142 -23.835  0.00  0.00    +0.308 C 
ATOM     23  H   UNL     1      30.820  -8.167 -23.502  0.00  0.00    +0.156 HD
ATOM     24  H   UNL     1      30.743  -6.226 -23.959  0.00  0.00    +0.156 HD
BRANCH  21  26
ATOM     25  F   UNL     1      34.244  -2.940 -26.690  0.00  0.00    -0.204 F 
ATOM     26  C   UNL     1      32.062  -4.719 -24.385  0.00  0.00    +0.054 C 
ATOM     27  C   UNL     1      32.996  -4.480 -25.393  0.00  0.00    +0.044 C 
ATOM     28  C   UNL     1      31.480  -3.649 -23.705  0.00  0.00    +0.015 C 
ATOM     29  C   UNL     1      33.348  -3.171 -25.722  0.00  0.00    +0.141 C 
ATOM     30  C   UNL     1      31.831  -2.340 -24.034  0.00  0.00    +0.004 C 
ATOM     31  C   UNL     1      32.765  -2.101 -25.042  0.00  0.00    +0.030 C 
ENDBRANCH  21  26
ENDBRANCH  16  20
ENDBRANCH   6  13
BRANCH   7  34
ATOM     32  N   UNL     1      36.094 -19.377 -21.245  0.00  0.00    -0.208 N 
ATOM     33  N   UNL     1      35.389 -20.246 -21.989  0.00  0.00    -0.176 NA
ATOM     34  C   UNL     1      35.010 -18.089 -22.637  0.00  0.00    +0.039 C 
ATOM     35  C   UNL     1      35.903 -18.073 -21.593  0.00  0.00    +0.086 C 
ATOM     36  C   UNL     1      34.728 -19.453 -22.836  0.00  0.00    +0.119 C 
BRANCH  32  37
ATOM     37  C   UNL     1      36.954 -19.867 -20.194  0.00  0.00    +0.148 C 
BRANCH  37  38
ATOM     38  C   UNL     1      36.428 -21.153 -19.566  0.00  0.00    +0.161 C 
BRANCH  38  39
ATOM     39  O   UNL     1      36.645 -21.123 -18.161  0.00  0.00    -0.380 OA
ATOM     40  H   UNL     1      37.441 -21.633 -17.946  0.00  0.00    +0.211 HD
ENDBRANCH  38  39
ENDBRANCH  37  38
ENDBRANCH  32  37
ENDBRANCH   7  34
TORSDOF 7
ENDMDL
MODEL 5
REMARK VINA RESULT:      -9.4      5.747     10.032
REMARK  Name = 46207586
REMARK  7 active torsions:
REMARK  status: ('A' for Active; 'I' for Inactive)
REMARK    1  A    between atoms: C_6  and  C_13
REMARK    2  A    between atoms: C_7  and  C_34
REMARK    3  A    between atoms: C_16  and  N_20
REMARK    4  A    between atoms: N_21  and  C_26
REMARK    5  A    between atoms: N_32  and  C_37
REMARK    6  A    between atoms: C_37  and  C_38
REMARK    7  A    between atoms: C_38  and  O_39
REMARK                            x       y       z     vdW  Elec       q    Type
REMARK                         _______ _______ _______ _____ _____    ______ ____
ROOT
ATOM      1  S   UNL     1      37.418 -22.860 -16.090  0.00  0.00    -0.086 S 
ATOM      2  N   UNL     1      33.102 -23.880 -16.719  0.00  0.00    -0.230 NA
ATOM      3  N   UNL     1      33.066 -22.399 -18.561  0.00  0.00    -0.343 N 
ATOM      4  C   UNL     1      35.125 -22.710 -17.276  0.00  0.00    +0.038 C 
ATOM      5  C   UNL     1      35.769 -23.347 -16.211  0.00  0.00    +0.034 C 
ATOM      6  C   UNL     1      36.020 -21.828 -17.970  0.00  0.00    +0.010 C 
ATOM      7  C   UNL     1      35.090 -24.255 -15.389  0.00  0.00    +0.028 C 
ATOM      8  C   UNL     1      33.772 -23.005 -17.503  0.00  0.00    +0.126 C 
ATOM      9  C   UNL     1      37.285 -21.818 -17.432  0.00  0.00    +0.036 C 
ATOM     10  C   UNL     1      33.760 -24.471 -15.703  0.00  0.00    +0.101 C 
ATOM     11  H   UNL     1      32.117 -22.615 -18.708  0.00  0.00    +0.144 HD
ATOM     12  H   UNL     1      33.522 -21.757 -19.153  0.00  0.00    +0.144 HD
ENDROOT
BRANCH   6  13
ATOM     13  C   UNL     1      35.743 -20.997 -19.116  0.00  0.00    +0.001 C 
ATOM     14  C   UNL     1      34.459 -20.962 -19.659  0.00  0.00    +0.001 C 
ATOM     15  C   UNL     1      36.760 -20.228 -19.680  0.00  0.00    +0.001 C 
ATOM     16  C   UNL     1      35.210 -19.388 -21.331  0.00  0.00    +0.052 C 
ATOM     17  C   UNL     1      34.192 -20.157 -20.767  0.00  0.00    +0.015 C 
ATOM     18  C   UNL     1      36.494 -19.423 -20.789  0.00  0.00    +0.015 C 
BRANCH  16  20
ATOM     19  O   UNL     1      34.612 -16.466 -21.491  0.00  0.00    -0.252 OA
ATOM     20  N   UNL     1      34.942 -18.583 -22.439  0.00  0.00    -0.268 N 
ATOM     21  N   UNL     1      34.452 -16.783 -23.801  0.00  0.00    -0.268 N 
ATOM     22  C   UNL     1      34.662 -17.195 -22.476  0.00  0.00    +0.308 C 
ATOM     23  H   UNL     1      34.949 -19.040 -23.311  0.00  0.00    +0.156 HD
ATOM     24  H   UNL     1      34.526 -17.485 -24.489  0.00  0.00    +0.156 HD
BRANCH  21  26
ATOM     25  F   UNL     1      34.214 -12.038 -23.109  0.00  0.00    -0.204 F 
ATOM     26  C   UNL     1      34.148 -15.484 -24.273  0.00  0.00    +0.054 C 
ATOM     27  C   UNL     1      34.335 -14.380 -23.442  0.00  0.00    +0.044 C 
ATOM     28  C   UNL     1      33.660 -15.308 -25.568  0.00  0.00    +0.015 C 
ATOM     29  C   UNL     1      34.035 -13.099 -23.906  0.00  0.00    +0.141 C 
ATOM     30  C   UNL     1      33.359 -14.028 -26.031  0.00  0.00    +0.004 C 
ATOM     31  C   UNL     1      33.546 -12.923 -25.200  0.00  0.00    +0.030 C 
ENDBRANCH  21  26
ENDBRANCH  16  20
ENDBRANCH   6  13
BRANCH   7  34
ATOM     32  N   UNL     1      36.509 -25.323 -12.294  0.00  0.00    -0.208 N 
ATOM     33  N   UNL     1      36.857 -26.418 -12.992  0.00  0.00    -0.176 NA
ATOM     34  C   UNL     1      35.733 -24.917 -14.296  0.00  0.00    +0.039 C 
ATOM     35  C   UNL     1      35.835 -24.393 -13.030  0.00  0.00    +0.086 C 
ATOM     36  C   UNL     1      36.379 -26.164 -14.213  0.00  0.00    +0.119 C 
BRANCH  32  37
ATOM     37  C   UNL     1      36.860 -25.221 -10.899  0.00  0.00    +0.148 C 
BRANCH  37  38
ATOM     38  C   UNL     1      35.972 -24.236 -10.147  0.00  0.00    +0.161 C 
BRANCH  38  39
ATOM     39  O   UNL     1      35.258 -24.918  -9.124  0.00  0.00    -0.380 OA
ATOM     40  H   UNL     1      35.474 -24.528  -8.262  0.00  0.00    +0.211 HD
ENDBRANCH  38  39
ENDBRANCH  37  38
ENDBRANCH  32  37
ENDBRANCH   7  34
TORSDOF 7
ENDMDL
