MODEL 1
REMARK VINA RESULT:     -11.4      0.000      0.000
REMARK  Name = 24778473
REMARK  2 active torsions:
REMARK  status: ('A' for Active; 'I' for Inactive)
REMARK    1  A    between atoms: C_11  and  C_22
REMARK    2  A    between atoms: C_17  and  N_29
REMARK                            x       y       z     vdW  Elec       q    Type
REMARK                         _______ _______ _______ _____ _____    ______ ____
ROOT
ATOM      1  O   UNL     1      32.699 -22.586 -17.897  0.00  0.00    -0.270 OA
ATOM      2  O   UNL     1      36.857 -23.156 -16.014  0.00  0.00    -0.270 OA
ATOM      3  N   UNL     1      31.237 -25.101 -13.503  0.00  0.00    -0.353 N 
ATOM      4  N   UNL     1      34.935 -22.696 -17.252  0.00  0.00    -0.248 N 
ATOM      5  C   UNL     1      32.252 -24.076 -15.212  0.00  0.00    +0.022 A 
ATOM      6  C   UNL     1      33.405 -23.608 -15.856  0.00  0.00    +0.060 C 
ATOM      7  C   UNL     1      32.466 -24.714 -13.980  0.00  0.00    +0.057 A 
ATOM      8  C   UNL     1      30.838 -24.097 -15.459  0.00  0.00    +0.018 A 
ATOM      9  C   UNL     1      34.667 -23.777 -15.289  0.00  0.00    +0.058 C 
ATOM     10  C   UNL     1      30.239 -24.742 -14.374  0.00  0.00    +0.057 A 
ATOM     11  C   UNL     1      34.865 -24.404 -14.081  0.00  0.00    +0.007 C 
ATOM     12  C   UNL     1      33.744 -24.888 -13.402  0.00  0.00    +0.017 C 
ATOM     13  C   UNL     1      33.581 -22.907 -17.127  0.00  0.00    +0.252 C 
ATOM     14  C   UNL     1      35.654 -23.188 -16.192  0.00  0.00    +0.252 C 
ATOM     15  C   UNL     1      29.997 -23.633 -16.493  0.00  0.00    +0.016 C 
ATOM     16  C   UNL     1      28.856 -24.945 -14.274  0.00  0.00    +0.018 C 
ATOM     17  C   UNL     1      28.612 -23.828 -16.408  0.00  0.00    +0.051 C 
ATOM     18  C   UNL     1      28.051 -24.475 -15.313  0.00  0.00    +0.016 C 
ATOM     19  H   UNL     1      31.093 -25.572 -12.652  0.00  0.00    +0.166 HD
ATOM     20  H   UNL     1      35.345 -22.240 -18.021  0.00  0.00    +0.158 HD
ENDROOT
BRANCH  11  22
ATOM     21 CL   UNL     1      36.515 -26.846 -14.987  0.00  0.00    -0.082 Cl
ATOM     22  C   UNL     1      36.177 -24.577 -13.495  0.00  0.00    +0.011 C 
ATOM     23  C   UNL     1      37.002 -25.648 -13.839  0.00  0.00    +0.058 C 
ATOM     24  C   UNL     1      36.611 -23.633 -12.564  0.00  0.00    +0.001 C 
ATOM     25  C   UNL     1      38.260 -25.777 -13.251  0.00  0.00    +0.011 C 
ATOM     26  C   UNL     1      37.870 -23.762 -11.976  0.00  0.00    +0.000 C 
ATOM     27  C   UNL     1      38.694 -24.834 -12.320  0.00  0.00    +0.001 C 
ENDBRANCH  11  22
BRANCH  17  29
ATOM     28  O   UNL     1      26.273 -21.897 -16.364  0.00  0.00    -0.265 OA
ATOM     29  N   UNL     1      27.787 -23.368 -17.436  0.00  0.00    -0.277 N 
ATOM     30  C   UNL     1      26.724 -22.475 -17.343  0.00  0.00    +0.303 C 
ATOM     31  H   UNL     1      27.980 -23.717 -18.335  0.00  0.00    +0.155 HD
ENDBRANCH  17  29
TORSDOF 2
ENDMDL
MODEL 2
REMARK VINA RESULT:     -11.2      2.349      7.585
REMARK  Name = 24778473
REMARK  2 active torsions:
REMARK  status: ('A' for Active; 'I' for Inactive)
REMARK    1  A    between atoms: C_11  and  C_22
REMARK    2  A    between atoms: C_17  and  N_29
REMARK                            x       y       z     vdW  Elec       q    Type
REMARK                         _______ _______ _______ _____ _____    ______ ____
ROOT
ATOM      1  O   UNL     1      36.071 -23.247 -16.735  0.00  0.00    -0.270 OA
ATOM      2  O   UNL     1      31.575 -22.665 -17.513  0.00  0.00    -0.270 OA
ATOM      3  N   UNL     1      34.233 -25.116 -12.165  0.00  0.00    -0.353 N 
ATOM      4  N   UNL     1      33.902 -22.812 -17.465  0.00  0.00    -0.248 N 
ATOM      5  C   UNL     1      34.602 -24.259 -14.197  0.00  0.00    +0.022 A 
ATOM      6  C   UNL     1      34.144 -23.714 -15.404  0.00  0.00    +0.060 C 
ATOM      7  C   UNL     1      33.602 -24.604 -13.273  0.00  0.00    +0.057 A 
ATOM      8  C   UNL     1      35.864 -24.585 -13.596  0.00  0.00    +0.018 A 
ATOM      9  C   UNL     1      32.782 -23.537 -15.645  0.00  0.00    +0.058 C 
ATOM     10  C   UNL     1      35.595 -25.117 -12.332  0.00  0.00    +0.057 A 
ATOM     11  C   UNL     1      31.811 -23.878 -14.732  0.00  0.00    +0.007 C 
ATOM     12  C   UNL     1      32.222 -24.426 -13.514  0.00  0.00    +0.017 C 
ATOM     13  C   UNL     1      34.867 -23.244 -16.584  0.00  0.00    +0.252 C 
ATOM     14  C   UNL     1      32.628 -22.953 -16.976  0.00  0.00    +0.252 C 
ATOM     15  C   UNL     1      37.216 -24.485 -13.992  0.00  0.00    +0.016 C 
ATOM     16  C   UNL     1      36.599 -25.547 -11.455  0.00  0.00    +0.018 C 
ATOM     17  C   UNL     1      38.231 -24.912 -13.127  0.00  0.00    +0.051 C 
ATOM     18  C   UNL     1      37.924 -25.436 -11.875  0.00  0.00    +0.016 C 
ATOM     19  H   UNL     1      33.769 -25.439 -11.360  0.00  0.00    +0.166 HD
ATOM     20  H   UNL     1      34.104 -22.440 -18.353  0.00  0.00    +0.158 HD
ENDROOT
BRANCH  11  22
ATOM     21 CL   UNL     1      30.212 -26.329 -15.701  0.00  0.00    -0.082 Cl
ATOM     22  C   UNL     1      30.399 -23.694 -14.986  0.00  0.00    +0.011 C 
ATOM     23  C   UNL     1      29.588 -24.740 -15.426  0.00  0.00    +0.058 C 
ATOM     24  C   UNL     1      29.852 -22.428 -14.776  0.00  0.00    +0.001 C 
ATOM     25  C   UNL     1      28.230 -24.520 -15.657  0.00  0.00    +0.011 C 
ATOM     26  C   UNL     1      28.494 -22.208 -15.008  0.00  0.00    +0.000 C 
ATOM     27  C   UNL     1      27.683 -23.254 -15.448  0.00  0.00    +0.001 C 
ENDBRANCH  11  22
BRANCH  17  29
ATOM     28  O   UNL     1      40.117 -26.975 -14.304  0.00  0.00    -0.265 OA
ATOM     29  N   UNL     1      39.565 -24.810 -13.525  0.00  0.00    -0.277 N 
ATOM     30  C   UNL     1      40.375 -25.805 -14.061  0.00  0.00    +0.303 C 
ATOM     31  H   UNL     1      39.982 -23.926 -13.413  0.00  0.00    +0.155 HD
ENDBRANCH  17  29
TORSDOF 2
ENDMDL
MODEL 3
REMARK VINA RESULT:     -10.6      3.072      5.659
REMARK  Name = 24778473
REMARK  2 active torsions:
REMARK  status: ('A' for Active; 'I' for Inactive)
REMARK    1  A    between atoms: C_11  and  C_22
REMARK    2  A    between atoms: C_17  and  N_29
REMARK                            x       y       z     vdW  Elec       q    Type
REMARK                         _______ _______ _______ _____ _____    ______ ____
ROOT
ATOM      1  O   UNL     1      32.096 -22.821 -17.647  0.00  0.00    -0.270 OA
ATOM      2  O   UNL     1      33.251 -24.955 -13.738  0.00  0.00    -0.270 OA
ATOM      3  N   UNL     1      37.262 -21.783 -17.678  0.00  0.00    -0.353 N 
ATOM      4  N   UNL     1      32.313 -23.988 -15.642  0.00  0.00    -0.248 N 
ATOM      5  C   UNL     1      35.154 -22.427 -17.300  0.00  0.00    +0.022 A 
ATOM      6  C   UNL     1      34.190 -23.084 -16.526  0.00  0.00    +0.060 C 
ATOM      7  C   UNL     1      36.465 -22.473 -16.798  0.00  0.00    +0.057 A 
ATOM      8  C   UNL     1      35.196 -21.676 -18.523  0.00  0.00    +0.018 A 
ATOM      9  C   UNL     1      34.534 -23.734 -15.341  0.00  0.00    +0.058 C 
ATOM     10  C   UNL     1      36.524 -21.293 -18.727  0.00  0.00    +0.057 A 
ATOM     11  C   UNL     1      35.822 -23.772 -14.858  0.00  0.00    +0.007 C 
ATOM     12  C   UNL     1      36.818 -23.129 -15.598  0.00  0.00    +0.017 C 
ATOM     13  C   UNL     1      32.750 -23.251 -16.718  0.00  0.00    +0.252 C 
ATOM     14  C   UNL     1      33.321 -24.316 -14.771  0.00  0.00    +0.252 C 
ATOM     15  C   UNL     1      34.243 -21.279 -19.486  0.00  0.00    +0.016 C 
ATOM     16  C   UNL     1      36.941 -20.540 -19.832  0.00  0.00    +0.018 C 
ATOM     17  C   UNL     1      34.644 -20.527 -20.597  0.00  0.00    +0.051 C 
ATOM     18  C   UNL     1      35.976 -20.163 -20.766  0.00  0.00    +0.016 C 
ATOM     19  H   UNL     1      38.232 -21.658 -17.572  0.00  0.00    +0.166 HD
ATOM     20  H   UNL     1      31.374 -24.253 -15.510  0.00  0.00    +0.158 HD
ENDROOT
BRANCH  11  22
ATOM     21 CL   UNL     1      36.732 -26.711 -15.065  0.00  0.00    -0.082 Cl
ATOM     22  C   UNL     1      36.177 -24.448 -13.629  0.00  0.00    +0.011 C 
ATOM     23  C   UNL     1      36.601 -25.777 -13.616  0.00  0.00    +0.058 C 
ATOM     24  C   UNL     1      36.087 -23.732 -12.435  0.00  0.00    +0.001 C 
ATOM     25  C   UNL     1      36.936 -26.391 -12.408  0.00  0.00    +0.011 C 
ATOM     26  C   UNL     1      36.421 -24.346 -11.228  0.00  0.00    +0.000 C 
ATOM     27  C   UNL     1      36.845 -25.675 -11.215  0.00  0.00    +0.001 C 
ENDBRANCH  11  22
BRANCH  17  29
ATOM     28  O   UNL     1      34.976 -19.379 -23.385  0.00  0.00    -0.265 OA
ATOM     29  N   UNL     1      33.696 -20.137 -21.544  0.00  0.00    -0.277 N 
ATOM     30  C   UNL     1      33.921 -19.615 -22.814  0.00  0.00    +0.303 C 
ATOM     31  H   UNL     1      32.754 -20.246 -21.282  0.00  0.00    +0.155 HD
ENDBRANCH  17  29
TORSDOF 2
ENDMDL
MODEL 4
REMARK VINA RESULT:      -9.5      5.190      8.369
REMARK  Name = 24778473
REMARK  2 active torsions:
REMARK  status: ('A' for Active; 'I' for Inactive)
REMARK    1  A    between atoms: C_11  and  C_22
REMARK    2  A    between atoms: C_17  and  N_29
REMARK                            x       y       z     vdW  Elec       q    Type
REMARK                         _______ _______ _______ _____ _____    ______ ____
ROOT
ATOM      1  O   UNL     1      37.404 -21.712 -17.708  0.00  0.00    -0.270 OA
ATOM      2  O   UNL     1      37.367 -19.020 -21.438  0.00  0.00    -0.270 OA
ATOM      3  N   UNL     1      32.262 -21.983 -18.826  0.00  0.00    -0.353 N 
ATOM      4  N   UNL     1      37.758 -20.312 -19.536  0.00  0.00    -0.248 N 
ATOM      5  C   UNL     1      34.463 -21.615 -18.694  0.00  0.00    +0.022 A 
ATOM      6  C   UNL     1      35.642 -21.025 -19.168  0.00  0.00    +0.060 C 
ATOM      7  C   UNL     1      33.304 -21.326 -19.432  0.00  0.00    +0.057 A 
ATOM      8  C   UNL     1      34.073 -22.475 -17.613  0.00  0.00    +0.018 A 
ATOM      9  C   UNL     1      35.637 -20.209 -20.299  0.00  0.00    +0.058 C 
ATOM     10  C   UNL     1      32.696 -22.683 -17.728  0.00  0.00    +0.057 A 
ATOM     11  C   UNL     1      34.495 -19.932 -21.014  0.00  0.00    +0.007 C 
ATOM     12  C   UNL     1      33.295 -20.499 -20.578  0.00  0.00    +0.017 C 
ATOM     13  C   UNL     1      37.017 -21.090 -18.677  0.00  0.00    +0.252 C 
ATOM     14  C   UNL     1      37.004 -19.749 -20.535  0.00  0.00    +0.252 C 
ATOM     15  C   UNL     1      34.744 -23.105 -16.543  0.00  0.00    +0.016 C 
ATOM     16  C   UNL     1      31.966 -23.479 -16.835  0.00  0.00    +0.018 C 
ATOM     17  C   UNL     1      34.029 -23.904 -15.643  0.00  0.00    +0.051 C 
ATOM     18  C   UNL     1      32.659 -24.088 -15.789  0.00  0.00    +0.016 C 
ATOM     19  H   UNL     1      31.329 -21.955 -19.137  0.00  0.00    +0.166 HD
ATOM     20  H   UNL     1      38.728 -20.174 -19.445  0.00  0.00    +0.158 HD
ENDROOT
BRANCH  11  22
ATOM     21 CL   UNL     1      35.007 -16.920 -20.595  0.00  0.00    -0.082 Cl
ATOM     22  C   UNL     1      34.493 -19.086 -22.188  0.00  0.00    +0.011 C 
ATOM     23  C   UNL     1      34.716 -17.711 -22.105  0.00  0.00    +0.058 C 
ATOM     24  C   UNL     1      34.263 -19.682 -23.428  0.00  0.00    +0.001 C 
ATOM     25  C   UNL     1      34.708 -16.932 -23.262  0.00  0.00    +0.011 C 
ATOM     26  C   UNL     1      34.254 -18.902 -24.585  0.00  0.00    +0.000 C 
ATOM     27  C   UNL     1      34.476 -17.528 -24.502  0.00  0.00    +0.001 C 
ENDBRANCH  11  22
BRANCH  17  29
ATOM     28  O   UNL     1      35.779 -26.382 -15.579  0.00  0.00    -0.265 OA
ATOM     29  N   UNL     1      34.701 -24.523 -14.587  0.00  0.00    -0.277 N 
ATOM     30  C   UNL     1      35.492 -25.666 -14.630  0.00  0.00    +0.303 C 
ATOM     31  H   UNL     1      34.602 -24.099 -13.704  0.00  0.00    +0.155 HD
ENDBRANCH  17  29
TORSDOF 2
ENDMDL
MODEL 5
REMARK VINA RESULT:      -9.4     14.233     16.450
REMARK  Name = 24778473
REMARK  2 active torsions:
REMARK  status: ('A' for Active; 'I' for Inactive)
REMARK    1  A    between atoms: C_11  and  C_22
REMARK    2  A    between atoms: C_17  and  N_29
REMARK                            x       y       z     vdW  Elec       q    Type
REMARK                         _______ _______ _______ _____ _____    ______ ____
ROOT
ATOM      1  O   UNL     1      30.990  -9.716 -20.625  0.00  0.00    -0.270 OA
ATOM      2  O   UNL     1      31.894 -14.180 -21.278  0.00  0.00    -0.270 OA
ATOM      3  N   UNL     1      34.802  -9.231 -24.231  0.00  0.00    -0.353 N 
ATOM      4  N   UNL     1      31.177 -12.037 -20.696  0.00  0.00    -0.248 N 
ATOM      5  C   UNL     1      33.252  -9.855 -22.745  0.00  0.00    +0.022 A 
ATOM      6  C   UNL     1      32.550 -10.842 -22.042  0.00  0.00    +0.060 C 
ATOM      7  C   UNL     1      34.225 -10.329 -23.641  0.00  0.00    +0.057 A 
ATOM      8  C   UNL     1      33.269  -8.422 -22.821  0.00  0.00    +0.018 A 
ATOM      9  C   UNL     1      32.819 -12.197 -22.236  0.00  0.00    +0.058 C 
ATOM     10  C   UNL     1      34.245  -8.069 -23.756  0.00  0.00    +0.057 A 
ATOM     11  C   UNL     1      33.775 -12.649 -23.116  0.00  0.00    +0.007 C 
ATOM     12  C   UNL     1      34.500 -11.700 -23.840  0.00  0.00    +0.017 C 
ATOM     13  C   UNL     1      31.486 -10.742 -21.044  0.00  0.00    +0.252 C 
ATOM     14  C   UNL     1      31.932 -12.967 -21.367  0.00  0.00    +0.252 C 
ATOM     15  C   UNL     1      32.556  -7.378 -22.192  0.00  0.00    +0.016 C 
ATOM     16  C   UNL     1      34.540  -6.741 -24.089  0.00  0.00    +0.018 C 
ATOM     17  C   UNL     1      32.839  -6.045 -22.514  0.00  0.00    +0.051 C 
ATOM     18  C   UNL     1      33.818  -5.732 -23.451  0.00  0.00    +0.016 C 
ATOM     19  H   UNL     1      35.518  -9.272 -24.905  0.00  0.00    +0.166 HD
ATOM     20  H   UNL     1      30.487 -12.273 -20.036  0.00  0.00    +0.158 HD
ENDROOT
BRANCH  11  22
ATOM     21 CL   UNL     1      32.893 -13.901 -25.792  0.00  0.00    -0.082 Cl
ATOM     22  C   UNL     1      34.051 -14.056 -23.317  0.00  0.00    +0.011 C 
ATOM     23  C   UNL     1      33.693 -14.715 -24.493  0.00  0.00    +0.058 C 
ATOM     24  C   UNL     1      34.696 -14.752 -22.295  0.00  0.00    +0.001 C 
ATOM     25  C   UNL     1      33.978 -16.072 -24.647  0.00  0.00    +0.011 C 
ATOM     26  C   UNL     1      34.980 -16.109 -22.448  0.00  0.00    +0.000 C 
ATOM     27  C   UNL     1      34.622 -16.768 -23.624  0.00  0.00    +0.001 C 
ENDBRANCH  11  22
BRANCH  17  29
ATOM     28  O   UNL     1      30.810  -4.074 -23.611  0.00  0.00    -0.265 OA
ATOM     29  N   UNL     1      32.129  -5.019 -21.888  0.00  0.00    -0.277 N 
ATOM     30  C   UNL     1      31.207  -4.147 -22.456  0.00  0.00    +0.303 C 
ATOM     31  H   UNL     1      32.303  -4.898 -20.927  0.00  0.00    +0.155 HD
ENDBRANCH  17  29
TORSDOF 2
ENDMDL
MODEL 6
REMARK VINA RESULT:      -9.3      3.970      6.553
REMARK  Name = 24778473
REMARK  2 active torsions:
REMARK  status: ('A' for Active; 'I' for Inactive)
REMARK    1  A    between atoms: C_11  and  C_22
REMARK    2  A    between atoms: C_17  and  N_29
REMARK                            x       y       z     vdW  Elec       q    Type
REMARK                         _______ _______ _______ _____ _____    ______ ____
ROOT
ATOM      1  O   UNL     1      32.825 -22.650 -19.445  0.00  0.00    -0.270 OA
ATOM      2  O   UNL     1      33.775 -24.570 -15.374  0.00  0.00    -0.270 OA
ATOM      3  N   UNL     1      37.489 -20.362 -18.563  0.00  0.00    -0.353 N 
ATOM      4  N   UNL     1      32.972 -23.798 -17.423  0.00  0.00    -0.248 N 
ATOM      5  C   UNL     1      35.577 -21.522 -18.561  0.00  0.00    +0.022 A 
ATOM      6  C   UNL     1      34.688 -22.426 -17.966  0.00  0.00    +0.060 C 
ATOM      7  C   UNL     1      36.749 -21.259 -17.832  0.00  0.00    +0.057 A 
ATOM      8  C   UNL     1      35.643 -20.741 -19.764  0.00  0.00    +0.018 A 
ATOM      9  C   UNL     1      34.971 -23.012 -16.733  0.00  0.00    +0.058 C 
ATOM     10  C   UNL     1      36.847 -20.033 -19.731  0.00  0.00    +0.057 A 
ATOM     11  C   UNL     1      36.122 -22.746 -16.027  0.00  0.00    +0.007 C 
ATOM     12  C   UNL     1      37.039 -21.850 -16.583  0.00  0.00    +0.017 C 
ATOM     13  C   UNL     1      33.393 -22.938 -18.411  0.00  0.00    +0.252 C 
ATOM     14  C   UNL     1      33.862 -23.897 -16.384  0.00  0.00    +0.252 C 
ATOM     15  C   UNL     1      34.805 -20.558 -20.885  0.00  0.00    +0.016 C 
ATOM     16  C   UNL     1      37.249 -19.160 -20.751  0.00  0.00    +0.018 C 
ATOM     17  C   UNL     1      35.193 -19.690 -21.914  0.00  0.00    +0.051 C 
ATOM     18  C   UNL     1      36.399 -19.002 -21.846  0.00  0.00    +0.016 C 
ATOM     19  H   UNL     1      38.362 -20.004 -18.286  0.00  0.00    +0.166 HD
ATOM     20  H   UNL     1      32.122 -24.292 -17.459  0.00  0.00    +0.158 HD
ENDROOT
BRANCH  11  22
ATOM     21 CL   UNL     1      38.835 -24.179 -15.723  0.00  0.00    -0.082 Cl
ATOM     22  C   UNL     1      36.414 -23.357 -14.748  0.00  0.00    +0.011 C 
ATOM     23  C   UNL     1      37.613 -24.027 -14.509  0.00  0.00    +0.058 C 
ATOM     24  C   UNL     1      35.456 -23.258 -13.738  0.00  0.00    +0.001 C 
ATOM     25  C   UNL     1      37.856 -24.601 -13.261  0.00  0.00    +0.011 C 
ATOM     26  C   UNL     1      35.698 -23.832 -12.490  0.00  0.00    +0.000 C 
ATOM     27  C   UNL     1      36.898 -24.503 -12.251  0.00  0.00    +0.001 C 
ENDBRANCH  11  22
BRANCH  17  29
ATOM     28  O   UNL     1      34.935 -17.379 -23.862  0.00  0.00    -0.265 OA
ATOM     29  N   UNL     1      34.359 -19.515 -23.019  0.00  0.00    -0.277 N 
ATOM     30  C   UNL     1      34.294 -18.420 -23.875  0.00  0.00    +0.303 C 
ATOM     31  H   UNL     1      33.742 -20.255 -23.217  0.00  0.00    +0.155 HD
ENDBRANCH  17  29
TORSDOF 2
ENDMDL
MODEL 7
REMARK VINA RESULT:      -9.2     16.007     18.372
REMARK  Name = 24778473
REMARK  2 active torsions:
REMARK  status: ('A' for Active; 'I' for Inactive)
REMARK    1  A    between atoms: C_11  and  C_22
REMARK    2  A    between atoms: C_17  and  N_29
REMARK                            x       y       z     vdW  Elec       q    Type
REMARK                         _______ _______ _______ _____ _____    ______ ____
ROOT
ATOM      1  O   UNL     1      35.774  -9.719 -24.268  0.00  0.00    -0.270 OA
ATOM      2  O   UNL     1      34.469  -5.311 -24.445  0.00  0.00    -0.270 OA
ATOM      3  N   UNL     1      31.047 -10.204 -21.992  0.00  0.00    -0.353 N 
ATOM      4  N   UNL     1      35.450  -7.426 -24.522  0.00  0.00    -0.248 N 
ATOM      5  C   UNL     1      32.953  -9.585 -22.983  0.00  0.00    +0.022 A 
ATOM      6  C   UNL     1      33.787  -8.609 -23.543  0.00  0.00    +0.060 C 
ATOM      7  C   UNL     1      31.720  -9.119 -22.497  0.00  0.00    +0.057 A 
ATOM      8  C   UNL     1      32.992 -11.000 -22.748  0.00  0.00    +0.018 A 
ATOM      9  C   UNL     1      33.396  -7.272 -23.601  0.00  0.00    +0.058 C 
ATOM     10  C   UNL     1      31.789 -11.350 -22.130  0.00  0.00    +0.057 A 
ATOM     11  C   UNL     1      32.186  -6.826 -23.120  0.00  0.00    +0.007 C 
ATOM     12  C   UNL     1      31.321  -7.765 -22.553  0.00  0.00    +0.017 C 
ATOM     13  C   UNL     1      35.117  -8.706 -24.141  0.00  0.00    +0.252 C 
ATOM     14  C   UNL     1      34.471  -6.509 -24.233  0.00  0.00    +0.252 C 
ATOM     15  C   UNL     1      33.926 -12.030 -22.995  0.00  0.00    +0.016 C 
ATOM     16  C   UNL     1      31.478 -12.663 -21.750  0.00  0.00    +0.018 C 
ATOM     17  C   UNL     1      33.630 -13.347 -22.622  0.00  0.00    +0.051 C 
ATOM     18  C   UNL     1      32.422 -13.657 -22.008  0.00  0.00    +0.016 C 
ATOM     19  H   UNL     1      30.151 -10.164 -21.585  0.00  0.00    +0.166 HD
ATOM     20  H   UNL     1      36.300  -7.193 -24.958  0.00  0.00    +0.158 HD
ENDROOT
BRANCH  11  22
ATOM     21 CL   UNL     1      32.694  -5.087 -20.626  0.00  0.00    -0.082 Cl
ATOM     22  C   UNL     1      31.783  -5.437 -23.182  0.00  0.00    +0.011 C 
ATOM     23  C   UNL     1      31.970  -4.568 -22.108  0.00  0.00    +0.058 C 
ATOM     24  C   UNL     1      31.195  -4.976 -24.360  0.00  0.00    +0.001 C 
ATOM     25  C   UNL     1      31.568  -3.236 -22.210  0.00  0.00    +0.011 C 
ATOM     26  C   UNL     1      30.792  -3.644 -24.461  0.00  0.00    +0.000 C 
ATOM     27  C   UNL     1      30.979  -2.774 -23.387  0.00  0.00    +0.001 C 
ENDBRANCH  11  22
BRANCH  17  29
ATOM     28  O   UNL     1      33.580 -15.653 -24.592  0.00  0.00    -0.265 OA
ATOM     29  N   UNL     1      34.559 -14.359 -22.869  0.00  0.00    -0.277 N 
ATOM     30  C   UNL     1      34.471 -15.392 -23.796  0.00  0.00    +0.303 C 
ATOM     31  H   UNL     1      35.377 -14.338 -22.322  0.00  0.00    +0.155 HD
ENDBRANCH  17  29
TORSDOF 2
ENDMDL
MODEL 8
REMARK VINA RESULT:      -9.1     15.909     18.160
REMARK  Name = 24778473
REMARK  2 active torsions:
REMARK  status: ('A' for Active; 'I' for Inactive)
REMARK    1  A    between atoms: C_11  and  C_22
REMARK    2  A    between atoms: C_17  and  N_29
REMARK                            x       y       z     vdW  Elec       q    Type
REMARK                         _______ _______ _______ _____ _____    ______ ____
ROOT
ATOM      1  O   UNL     1      35.619  -9.854 -24.229  0.00  0.00    -0.270 OA
ATOM      2  O   UNL     1      34.522  -5.388 -24.091  0.00  0.00    -0.270 OA
ATOM      3  N   UNL     1      31.198 -10.214 -21.384  0.00  0.00    -0.353 N 
ATOM      4  N   UNL     1      35.379  -7.540 -24.363  0.00  0.00    -0.248 N 
ATOM      5  C   UNL     1      32.992  -9.643 -22.590  0.00  0.00    +0.022 A 
ATOM      6  C   UNL     1      33.796  -8.684 -23.220  0.00  0.00    +0.060 C 
ATOM      7  C   UNL     1      31.856  -9.141 -21.935  0.00  0.00    +0.057 A 
ATOM      8  C   UNL     1      32.991 -11.067 -22.409  0.00  0.00    +0.018 A 
ATOM      9  C   UNL     1      33.468  -7.329 -23.182  0.00  0.00    +0.058 C 
ATOM     10  C   UNL     1      31.860 -11.386 -21.654  0.00  0.00    +0.057 A 
ATOM     11  C   UNL     1      32.352  -6.849 -22.536  0.00  0.00    +0.007 C 
ATOM     12  C   UNL     1      31.520  -7.770 -21.894  0.00  0.00    +0.017 C 
ATOM     13  C   UNL     1      35.034  -8.817 -23.986  0.00  0.00    +0.252 C 
ATOM     14  C   UNL     1      34.491  -6.592 -23.921  0.00  0.00    +0.252 C 
ATOM     15  C   UNL     1      33.834 -12.127 -22.807  0.00  0.00    +0.016 C 
ATOM     16  C   UNL     1      31.534 -12.697 -21.282  0.00  0.00    +0.018 C 
ATOM     17  C   UNL     1      33.523 -13.443 -22.444  0.00  0.00    +0.051 C 
ATOM     18  C   UNL     1      32.387 -13.722 -21.691  0.00  0.00    +0.016 C 
ATOM     19  H   UNL     1      30.364 -10.150 -20.865  0.00  0.00    +0.166 HD
ATOM     20  H   UNL     1      36.178  -7.328 -24.896  0.00  0.00    +0.158 HD
ENDROOT
BRANCH  11  22
ATOM     21 CL   UNL     1      31.141  -5.615 -25.088  0.00  0.00    -0.082 Cl
ATOM     22  C   UNL     1      32.014  -5.443 -22.500  0.00  0.00    +0.011 C 
ATOM     23  C   UNL     1      31.460  -4.791 -23.602  0.00  0.00    +0.058 C 
ATOM     24  C   UNL     1      32.253  -4.738 -21.320  0.00  0.00    +0.001 C 
ATOM     25  C   UNL     1      31.146  -3.434 -23.525  0.00  0.00    +0.011 C 
ATOM     26  C   UNL     1      31.940  -3.381 -21.243  0.00  0.00    +0.000 C 
ATOM     27  C   UNL     1      31.387  -2.729 -22.345  0.00  0.00    +0.001 C 
ENDBRANCH  11  22
BRANCH  17  29
ATOM     28  O   UNL     1      33.313 -15.391 -24.760  0.00  0.00    -0.265 OA
ATOM     29  N   UNL     1      34.362 -14.485 -22.841  0.00  0.00    -0.277 N 
ATOM     30  C   UNL     1      34.203 -15.345 -23.923  0.00  0.00    +0.303 C 
ATOM     31  H   UNL     1      35.164 -14.628 -22.289  0.00  0.00    +0.155 HD
ENDBRANCH  17  29
TORSDOF 2
ENDMDL
MODEL 9
REMARK VINA RESULT:      -8.6     19.262     21.452
REMARK  Name = 24778473
REMARK  2 active torsions:
REMARK  status: ('A' for Active; 'I' for Inactive)
REMARK    1  A    between atoms: C_11  and  C_22
REMARK    2  A    between atoms: C_17  and  N_29
REMARK                            x       y       z     vdW  Elec       q    Type
REMARK                         _______ _______ _______ _____ _____    ______ ____
ROOT
ATOM      1  O   UNL     1      31.651  -2.891 -24.923  0.00  0.00    -0.270 OA
ATOM      2  O   UNL     1      30.418  -5.677 -21.475  0.00  0.00    -0.270 OA
ATOM      3  N   UNL     1      35.704  -6.251 -25.136  0.00  0.00    -0.353 N 
ATOM      4  N   UNL     1      30.726  -4.073 -23.141  0.00  0.00    -0.248 N 
ATOM      5  C   UNL     1      33.851  -5.070 -24.722  0.00  0.00    +0.022 A 
ATOM      6  C   UNL     1      32.674  -4.841 -23.997  0.00  0.00    +0.060 C 
ATOM      7  C   UNL     1      34.600  -6.188 -24.321  0.00  0.00    +0.057 A 
ATOM      8  C   UNL     1      34.554  -4.460 -25.815  0.00  0.00    +0.018 A 
ATOM      9  C   UNL     1      32.295  -5.683 -22.952  0.00  0.00    +0.058 C 
ATOM     10  C   UNL     1      35.702  -5.223 -26.045  0.00  0.00    +0.057 A 
ATOM     11  C   UNL     1      33.037  -6.776 -22.567  0.00  0.00    +0.007 C 
ATOM     12  C   UNL     1      34.219  -7.043 -23.263  0.00  0.00    +0.017 C 
ATOM     13  C   UNL     1      31.656  -3.800 -24.117  0.00  0.00    +0.252 C 
ATOM     14  C   UNL     1      31.037  -5.185 -22.400  0.00  0.00    +0.252 C 
ATOM     15  C   UNL     1      34.338  -3.335 -26.640  0.00  0.00    +0.016 C 
ATOM     16  C   UNL     1      36.634  -4.919 -27.046  0.00  0.00    +0.018 C 
ATOM     17  C   UNL     1      35.260  -3.018 -27.646  0.00  0.00    +0.051 C 
ATOM     18  C   UNL     1      36.392  -3.801 -27.845  0.00  0.00    +0.016 C 
ATOM     19  H   UNL     1      36.402  -6.942 -25.076  0.00  0.00    +0.166 HD
ATOM     20  H   UNL     1      29.920  -3.528 -22.989  0.00  0.00    +0.158 HD
ENDROOT
BRANCH  11  22
ATOM     21 CL   UNL     1      31.535  -9.365 -23.306  0.00  0.00    -0.082 Cl
ATOM     22  C   UNL     1      32.640  -7.648 -21.483  0.00  0.00    +0.011 C 
ATOM     23  C   UNL     1      31.958  -8.843 -21.712  0.00  0.00    +0.058 C 
ATOM     24  C   UNL     1      32.961  -7.267 -20.180  0.00  0.00    +0.001 C 
ATOM     25  C   UNL     1      31.595  -9.656 -20.639  0.00  0.00    +0.011 C 
ATOM     26  C   UNL     1      32.598  -8.080 -19.107  0.00  0.00    +0.000 C 
ATOM     27  C   UNL     1      31.915  -9.274 -19.336  0.00  0.00    +0.001 C 
ENDBRANCH  11  22
BRANCH  17  29
ATOM     28  O   UNL     1      33.391  -2.611 -30.000  0.00  0.00    -0.265 OA
ATOM     29  N   UNL     1      35.040  -1.904 -28.457  0.00  0.00    -0.277 N 
ATOM     30  C   UNL     1      34.160  -1.786 -29.528  0.00  0.00    +0.303 C 
ATOM     31  H   UNL     1      35.572  -1.103 -28.245  0.00  0.00    +0.155 HD
ENDBRANCH  17  29
TORSDOF 2
ENDMDL
