MODEL 1
REMARK VINA RESULT:     -11.6      0.000      0.000
REMARK  Name = 51039095
REMARK  7 active torsions:
REMARK  status: ('A' for Active; 'I' for Inactive)
REMARK    1  A    between atoms: C_5  and  C_16
REMARK    2  A    between atoms: C_6  and  C_27
REMARK    3  A    between atoms: C_11  and  N_17
REMARK    4  A    between atoms: C_27  and  C_28
REMARK    5  A    between atoms: C_28  and  C_29
REMARK    6  A    between atoms: C_32  and  O_35
REMARK    7  A    between atoms: C_33  and  O_37
REMARK                            x       y       z     vdW  Elec       q    Type
REMARK                         _______ _______ _______ _____ _____    ______ ____
ROOT
ATOM      1  O   UNL     1      34.209 -14.040 -24.173  0.00  0.00    -0.270 OA
ATOM      2  N   UNL     1      34.241 -13.907 -21.831  0.00  0.00    -0.265 N 
ATOM      3  N   UNL     1      35.070 -16.895 -20.267  0.00  0.00    -0.239 N 
ATOM      4  N   UNL     1      34.732 -15.597 -20.171  0.00  0.00    -0.166 NA
ATOM      5  C   UNL     1      34.069 -13.392 -23.123  0.00  0.00    +0.251 C 
ATOM      6  C   UNL     1      35.153 -17.349 -21.552  0.00  0.00    +0.046 C 
ATOM      7  C   UNL     1      34.598 -15.224 -21.446  0.00  0.00    +0.153 C 
ATOM      8  C   UNL     1      34.848 -16.273 -22.350  0.00  0.00    +0.048 C 
ATOM      9  H   UNL     1      34.094 -13.272 -21.094  0.00  0.00    +0.157 HD
ATOM     10  H   UNL     1      35.242 -17.464 -19.484  0.00  0.00    +0.174 HD
ENDROOT
BRANCH   5  16
ATOM     11  C   UNL     1      32.909  -9.316 -23.348  0.00  0.00    +0.048 C 
ATOM     12  C   UNL     1      34.190  -9.699 -23.745  0.00  0.00    +0.015 C 
ATOM     13  C   UNL     1      32.008 -10.272 -22.878  0.00  0.00    +0.015 C 
ATOM     14  C   UNL     1      34.571 -11.039 -23.671  0.00  0.00    +0.006 C 
ATOM     15  C   UNL     1      32.390 -11.612 -22.805  0.00  0.00    +0.006 C 
ATOM     16  C   UNL     1      33.670 -11.996 -23.201  0.00  0.00    +0.054 C 
BRANCH  11  17
ATOM     17  N   UNL     1      32.525  -7.972 -23.422  0.00  0.00    -0.312 N 
ATOM     18  N   UNL     1      31.962  -5.180 -23.511  0.00  0.00    +0.389 N 
ATOM     19  C   UNL     1      31.227  -6.049 -22.586  0.00  0.00    -0.042 C 
ATOM     20  C   UNL     1      32.296  -5.902 -24.743  0.00  0.00    -0.042 C 
ATOM     21  C   UNL     1      32.067  -7.280 -22.212  0.00  0.00    +0.069 C 
ATOM     22  C   UNL     1      33.170  -7.126 -24.435  0.00  0.00    +0.069 C 
ATOM     23  C   UNL     1      33.017  -4.953 -25.698  0.00  0.00    -0.022 C 
ATOM     24  C   UNL     1      30.859  -5.251 -21.336  0.00  0.00    -0.022 C 
ATOM     25  H   UNL     1      32.823  -4.865 -23.063  0.00  0.00    -0.084 HD
ATOM     26  H   UNL     1      31.374  -4.380 -23.747  0.00  0.00    -0.084 HD
ENDBRANCH  11  17
ENDBRANCH   5  16
BRANCH   6  27
ATOM     27  C   UNL     1      35.510 -18.740 -21.870  0.00  0.00    +0.047 C 
BRANCH  27  28
ATOM     28  C   UNL     1      34.343 -19.753 -21.747  0.00  0.00    +0.033 C 
BRANCH  28  29
ATOM     29  C   UNL     1      34.449 -20.627 -20.520  0.00  0.00    -0.016 C 
ATOM     30  C   UNL     1      35.696 -20.881 -19.949  0.00  0.00    +0.033 C 
ATOM     31  C   UNL     1      33.299 -21.178 -19.957  0.00  0.00    +0.033 C 
ATOM     32  C   UNL     1      33.394 -21.985 -18.823  0.00  0.00    +0.141 C 
ATOM     33  C   UNL     1      35.792 -21.687 -18.815  0.00  0.00    +0.141 C 
ATOM     34  C   UNL     1      34.642 -22.239 -18.252  0.00  0.00    +0.074 C 
BRANCH  32  35
ATOM     35  O   UNL     1      32.272 -22.523 -18.272  0.00  0.00    -0.471 OA
ATOM     36  C   UNL     1      32.399 -23.094 -16.970  0.00  0.00    +0.252 C 
ENDBRANCH  32  35
BRANCH  33  37
ATOM     37  O   UNL     1      37.009 -21.934 -18.257  0.00  0.00    -0.471 OA
ATOM     38  C   UNL     1      37.058 -22.060 -16.836  0.00  0.00    +0.252 C 
ENDBRANCH  33  37
ENDBRANCH  28  29
ENDBRANCH  27  28
ENDBRANCH   6  27
TORSDOF 7
ENDMDL
MODEL 2
REMARK VINA RESULT:     -11.6      0.043      1.836
REMARK  Name = 51039095
REMARK  7 active torsions:
REMARK  status: ('A' for Active; 'I' for Inactive)
REMARK    1  A    between atoms: C_5  and  C_16
REMARK    2  A    between atoms: C_6  and  C_27
REMARK    3  A    between atoms: C_11  and  N_17
REMARK    4  A    between atoms: C_27  and  C_28
REMARK    5  A    between atoms: C_28  and  C_29
REMARK    6  A    between atoms: C_32  and  O_35
REMARK    7  A    between atoms: C_33  and  O_37
REMARK                            x       y       z     vdW  Elec       q    Type
REMARK                         _______ _______ _______ _____ _____    ______ ____
ROOT
ATOM      1  O   UNL     1      34.201 -14.051 -24.173  0.00  0.00    -0.270 OA
ATOM      2  N   UNL     1      34.250 -13.924 -21.831  0.00  0.00    -0.265 N 
ATOM      3  N   UNL     1      35.078 -16.918 -20.279  0.00  0.00    -0.239 N 
ATOM      4  N   UNL     1      34.746 -15.619 -20.178  0.00  0.00    -0.166 NA
ATOM      5  C   UNL     1      34.071 -13.405 -23.121  0.00  0.00    +0.251 C 
ATOM      6  C   UNL     1      35.150 -17.370 -21.564  0.00  0.00    +0.046 C 
ATOM      7  C   UNL     1      34.604 -15.242 -21.451  0.00  0.00    +0.153 C 
ATOM      8  C   UNL     1      34.843 -16.291 -22.359  0.00  0.00    +0.048 C 
ATOM      9  H   UNL     1      34.112 -13.289 -21.091  0.00  0.00    +0.157 HD
ATOM     10  H   UNL     1      35.253 -17.489 -19.497  0.00  0.00    +0.174 HD
ENDROOT
BRANCH   5  16
ATOM     11  C   UNL     1      32.927  -9.324 -23.329  0.00  0.00    +0.048 C 
ATOM     12  C   UNL     1      34.205  -9.711 -23.732  0.00  0.00    +0.015 C 
ATOM     13  C   UNL     1      32.024 -10.278 -22.859  0.00  0.00    +0.015 C 
ATOM     14  C   UNL     1      34.581 -11.052 -23.663  0.00  0.00    +0.006 C 
ATOM     15  C   UNL     1      32.401 -11.619 -22.791  0.00  0.00    +0.006 C 
ATOM     16  C   UNL     1      33.678 -12.007 -23.193  0.00  0.00    +0.054 C 
BRANCH  11  17
ATOM     17  N   UNL     1      32.548  -7.979 -23.398  0.00  0.00    -0.312 N 
ATOM     18  N   UNL     1      31.992  -5.184 -23.467  0.00  0.00    +0.389 N 
ATOM     19  C   UNL     1      31.220  -6.066 -22.586  0.00  0.00    -0.042 C 
ATOM     20  C   UNL     1      32.375  -5.888 -24.696  0.00  0.00    -0.042 C 
ATOM     21  C   UNL     1      32.042  -7.304 -22.197  0.00  0.00    +0.069 C 
ATOM     22  C   UNL     1      33.235  -7.118 -24.371  0.00  0.00    +0.069 C 
ATOM     23  C   UNL     1      33.136  -4.925 -25.606  0.00  0.00    -0.022 C 
ATOM     24  C   UNL     1      30.802  -5.287 -21.339  0.00  0.00    -0.022 C 
ATOM     25  H   UNL     1      32.835  -4.878 -22.980  0.00  0.00    -0.084 HD
ATOM     26  H   UNL     1      31.416  -4.380 -23.714  0.00  0.00    -0.084 HD
ENDBRANCH  11  17
ENDBRANCH   5  16
BRANCH   6  27
ATOM     27  C   UNL     1      35.499 -18.762 -21.887  0.00  0.00    +0.047 C 
BRANCH  27  28
ATOM     28  C   UNL     1      34.331 -19.771 -21.751  0.00  0.00    +0.033 C 
BRANCH  28  29
ATOM     29  C   UNL     1      34.444 -20.640 -20.521  0.00  0.00    -0.016 C 
ATOM     30  C   UNL     1      33.299 -21.194 -19.949  0.00  0.00    +0.033 C 
ATOM     31  C   UNL     1      35.695 -20.889 -19.957  0.00  0.00    +0.033 C 
ATOM     32  C   UNL     1      35.802 -21.691 -18.821  0.00  0.00    +0.141 C 
ATOM     33  C   UNL     1      33.405 -21.997 -18.814  0.00  0.00    +0.141 C 
ATOM     34  C   UNL     1      34.656 -22.245 -18.249  0.00  0.00    +0.074 C 
BRANCH  32  35
ATOM     35  O   UNL     1      37.022 -21.936 -18.271  0.00  0.00    -0.471 OA
ATOM     36  C   UNL     1      37.082 -22.040 -16.849  0.00  0.00    +0.252 C 
ENDBRANCH  32  35
BRANCH  33  37
ATOM     37  O   UNL     1      32.288 -22.539 -18.256  0.00  0.00    -0.471 OA
ATOM     38  C   UNL     1      32.424 -23.111 -16.956  0.00  0.00    +0.252 C 
ENDBRANCH  33  37
ENDBRANCH  28  29
ENDBRANCH  27  28
ENDBRANCH   6  27
TORSDOF 7
ENDMDL
MODEL 3
REMARK VINA RESULT:     -11.5      4.163     13.582
REMARK  Name = 51039095
REMARK  7 active torsions:
REMARK  status: ('A' for Active; 'I' for Inactive)
REMARK    1  A    between atoms: C_5  and  C_16
REMARK    2  A    between atoms: C_6  and  C_27
REMARK    3  A    between atoms: C_11  and  N_17
REMARK    4  A    between atoms: C_27  and  C_28
REMARK    5  A    between atoms: C_28  and  C_29
REMARK    6  A    between atoms: C_32  and  O_35
REMARK    7  A    between atoms: C_33  and  O_37
REMARK                            x       y       z     vdW  Elec       q    Type
REMARK                         _______ _______ _______ _____ _____    ______ ____
ROOT
ATOM      1  O   UNL     1      33.853 -21.378 -19.734  0.00  0.00    -0.270 OA
ATOM      2  N   UNL     1      35.976 -20.387 -19.866  0.00  0.00    -0.265 N 
ATOM      3  N   UNL     1      36.357 -18.237 -22.566  0.00  0.00    -0.239 N 
ATOM      4  N   UNL     1      36.879 -18.822 -21.474  0.00  0.00    -0.166 NA
ATOM      5  C   UNL     1      35.003 -21.219 -19.294  0.00  0.00    +0.251 C 
ATOM      6  C   UNL     1      35.064 -18.595 -22.817  0.00  0.00    +0.046 C 
ATOM      7  C   UNL     1      35.874 -19.577 -21.024  0.00  0.00    +0.153 C 
ATOM      8  C   UNL     1      34.718 -19.476 -21.821  0.00  0.00    +0.048 C 
ATOM      9  H   UNL     1      36.845 -20.364 -19.403  0.00  0.00    +0.157 HD
ATOM     10  H   UNL     1      36.860 -17.608 -23.131  0.00  0.00    +0.174 HD
ENDROOT
BRANCH   5  16
ATOM     11  C   UNL     1      36.203 -23.367 -15.836  0.00  0.00    +0.048 C 
ATOM     12  C   UNL     1      34.904 -23.503 -16.326  0.00  0.00    +0.015 C 
ATOM     13  C   UNL     1      37.109 -22.526 -16.483  0.00  0.00    +0.015 C 
ATOM     14  C   UNL     1      34.510 -22.797 -17.462  0.00  0.00    +0.006 C 
ATOM     15  C   UNL     1      36.714 -21.820 -17.620  0.00  0.00    +0.006 C 
ATOM     16  C   UNL     1      35.415 -21.956 -18.110  0.00  0.00    +0.054 C 
BRANCH  11  17
ATOM     17  N   UNL     1      36.600 -24.075 -14.696  0.00  0.00    -0.312 N 
ATOM     18  N   UNL     1      37.474 -25.312 -12.282  0.00  0.00    +0.389 N 
ATOM     19  C   UNL     1      38.089 -25.681 -13.562  0.00  0.00    -0.042 C 
ATOM     20  C   UNL     1      36.058 -24.979 -12.466  0.00  0.00    -0.042 C 
ATOM     21  C   UNL     1      37.992 -24.523 -14.566  0.00  0.00    +0.069 C 
ATOM     22  C   UNL     1      35.900 -23.798 -13.434  0.00  0.00    +0.069 C 
ATOM     23  C   UNL     1      35.443 -24.647 -11.108  0.00  0.00    -0.022 C 
ATOM     24  C   UNL     1      39.549 -26.062 -13.324  0.00  0.00    -0.022 C 
ATOM     25  H   UNL     1      37.962 -24.503 -11.897  0.00  0.00    -0.084 HD
ATOM     26  H   UNL     1      37.546 -26.104 -11.643  0.00  0.00    -0.084 HD
ENDBRANCH  11  17
ENDBRANCH   5  16
BRANCH   6  27
ATOM     27  C   UNL     1      34.313 -18.064 -23.966  0.00  0.00    +0.047 C 
BRANCH  27  28
ATOM     28  C   UNL     1      34.818 -16.698 -24.495  0.00  0.00    +0.033 C 
BRANCH  28  29
ATOM     29  C   UNL     1      34.311 -15.529 -23.684  0.00  0.00    -0.016 C 
ATOM     30  C   UNL     1      33.941 -14.345 -24.322  0.00  0.00    +0.033 C 
ATOM     31  C   UNL     1      34.210 -15.635 -22.298  0.00  0.00    +0.033 C 
ATOM     32  C   UNL     1      33.741 -14.557 -21.547  0.00  0.00    +0.141 C 
ATOM     33  C   UNL     1      33.472 -13.267 -23.573  0.00  0.00    +0.141 C 
ATOM     34  C   UNL     1      33.372 -13.372 -22.186  0.00  0.00    +0.074 C 
BRANCH  32  35
ATOM     35  O   UNL     1      33.642 -14.659 -20.194  0.00  0.00    -0.471 OA
ATOM     36  C   UNL     1      32.339 -14.526 -19.628  0.00  0.00    +0.252 C 
ENDBRANCH  32  35
BRANCH  33  37
ATOM     37  O   UNL     1      33.111 -12.111 -24.195  0.00  0.00    -0.471 OA
ATOM     38  C   UNL     1      32.860 -10.978 -23.364  0.00  0.00    +0.252 C 
ENDBRANCH  33  37
ENDBRANCH  28  29
ENDBRANCH  27  28
ENDBRANCH   6  27
TORSDOF 7
ENDMDL
MODEL 4
REMARK VINA RESULT:     -11.5      4.181     13.641
REMARK  Name = 51039095
REMARK  7 active torsions:
REMARK  status: ('A' for Active; 'I' for Inactive)
REMARK    1  A    between atoms: C_5  and  C_16
REMARK    2  A    between atoms: C_6  and  C_27
REMARK    3  A    between atoms: C_11  and  N_17
REMARK    4  A    between atoms: C_27  and  C_28
REMARK    5  A    between atoms: C_28  and  C_29
REMARK    6  A    between atoms: C_32  and  O_35
REMARK    7  A    between atoms: C_33  and  O_37
REMARK                            x       y       z     vdW  Elec       q    Type
REMARK                         _______ _______ _______ _____ _____    ______ ____
ROOT
ATOM      1  O   UNL     1      33.907 -21.424 -19.658  0.00  0.00    -0.270 OA
ATOM      2  N   UNL     1      36.029 -20.428 -19.777  0.00  0.00    -0.265 N 
ATOM      3  N   UNL     1      36.416 -18.267 -22.467  0.00  0.00    -0.239 N 
ATOM      4  N   UNL     1      36.935 -18.855 -21.375  0.00  0.00    -0.166 NA
ATOM      5  C   UNL     1      35.055 -21.263 -19.212  0.00  0.00    +0.251 C 
ATOM      6  C   UNL     1      35.125 -18.627 -22.726  0.00  0.00    +0.046 C 
ATOM      7  C   UNL     1      35.930 -19.613 -20.932  0.00  0.00    +0.153 C 
ATOM      8  C   UNL     1      34.777 -19.512 -21.734  0.00  0.00    +0.048 C 
ATOM      9  H   UNL     1      36.895 -20.404 -19.311  0.00  0.00    +0.157 HD
ATOM     10  H   UNL     1      36.920 -17.635 -23.028  0.00  0.00    +0.174 HD
ENDROOT
BRANCH   5  16
ATOM     11  C   UNL     1      36.245 -23.421 -15.757  0.00  0.00    +0.048 C 
ATOM     12  C   UNL     1      34.937 -23.527 -16.229  0.00  0.00    +0.015 C 
ATOM     13  C   UNL     1      37.163 -22.607 -16.420  0.00  0.00    +0.015 C 
ATOM     14  C   UNL     1      34.546 -22.818 -17.364  0.00  0.00    +0.006 C 
ATOM     15  C   UNL     1      36.771 -21.898 -17.556  0.00  0.00    +0.006 C 
ATOM     16  C   UNL     1      35.464 -22.004 -18.029  0.00  0.00    +0.054 C 
BRANCH  11  17
ATOM     17  N   UNL     1      36.639 -24.132 -14.618  0.00  0.00    -0.312 N 
ATOM     18  N   UNL     1      37.505 -25.377 -12.205  0.00  0.00    +0.389 N 
ATOM     19  C   UNL     1      38.127 -25.739 -13.483  0.00  0.00    -0.042 C 
ATOM     20  C   UNL     1      36.089 -25.047 -12.394  0.00  0.00    -0.042 C 
ATOM     21  C   UNL     1      38.031 -24.578 -14.484  0.00  0.00    +0.069 C 
ATOM     22  C   UNL     1      35.932 -23.863 -13.358  0.00  0.00    +0.069 C 
ATOM     23  C   UNL     1      35.467 -24.721 -11.037  0.00  0.00    -0.022 C 
ATOM     24  C   UNL     1      39.587 -26.118 -13.241  0.00  0.00    -0.022 C 
ATOM     25  H   UNL     1      37.989 -24.567 -11.815  0.00  0.00    -0.084 HD
ATOM     26  H   UNL     1      37.576 -26.171 -11.569  0.00  0.00    -0.084 HD
ENDBRANCH  11  17
ENDBRANCH   5  16
BRANCH   6  27
ATOM     27  C   UNL     1      34.378 -18.093 -23.875  0.00  0.00    +0.047 C 
BRANCH  27  28
ATOM     28  C   UNL     1      34.887 -16.728 -24.403  0.00  0.00    +0.033 C 
BRANCH  28  29
ATOM     29  C   UNL     1      34.346 -15.556 -23.619  0.00  0.00    -0.016 C 
ATOM     30  C   UNL     1      34.255 -15.627 -22.229  0.00  0.00    +0.033 C 
ATOM     31  C   UNL     1      33.940 -14.401 -24.286  0.00  0.00    +0.033 C 
ATOM     32  C   UNL     1      33.441 -13.317 -23.564  0.00  0.00    +0.141 C 
ATOM     33  C   UNL     1      33.758 -14.544 -21.507  0.00  0.00    +0.141 C 
ATOM     34  C   UNL     1      33.350 -13.388 -22.173  0.00  0.00    +0.074 C 
BRANCH  32  35
ATOM     35  O   UNL     1      33.044 -12.189 -24.214  0.00  0.00    -0.471 OA
ATOM     36  C   UNL     1      32.855 -11.017 -23.422  0.00  0.00    +0.252 C 
ENDBRANCH  32  35
BRANCH  33  37
ATOM     37  O   UNL     1      33.669 -14.612 -20.150  0.00  0.00    -0.471 OA
ATOM     38  C   UNL     1      32.360 -14.572 -19.582  0.00  0.00    +0.252 C 
ENDBRANCH  33  37
ENDBRANCH  28  29
ENDBRANCH  27  28
ENDBRANCH   6  27
TORSDOF 7
ENDMDL
MODEL 5
REMARK VINA RESULT:     -11.4      4.198     13.545
REMARK  Name = 51039095
REMARK  7 active torsions:
REMARK  status: ('A' for Active; 'I' for Inactive)
REMARK    1  A    between atoms: C_5  and  C_16
REMARK    2  A    between atoms: C_6  and  C_27
REMARK    3  A    between atoms: C_11  and  N_17
REMARK    4  A    between atoms: C_27  and  C_28
REMARK    5  A    between atoms: C_28  and  C_29
REMARK    6  A    between atoms: C_32  and  O_35
REMARK    7  A    between atoms: C_33  and  O_37
REMARK                            x       y       z     vdW  Elec       q    Type
REMARK                         _______ _______ _______ _____ _____    ______ ____
ROOT
ATOM      1  O   UNL     1      33.977 -21.423 -19.648  0.00  0.00    -0.270 OA
ATOM      2  N   UNL     1      36.079 -20.388 -19.787  0.00  0.00    -0.265 N 
ATOM      3  N   UNL     1      36.423 -18.270 -22.516  0.00  0.00    -0.239 N 
ATOM      4  N   UNL     1      36.953 -18.827 -21.414  0.00  0.00    -0.166 NA
ATOM      5  C   UNL     1      35.122 -21.231 -19.206  0.00  0.00    +0.251 C 
ATOM      6  C   UNL     1      35.139 -18.659 -22.767  0.00  0.00    +0.046 C 
ATOM      7  C   UNL     1      35.963 -19.597 -20.957  0.00  0.00    +0.153 C 
ATOM      8  C   UNL     1      34.809 -19.532 -21.760  0.00  0.00    +0.048 C 
ATOM      9  H   UNL     1      36.944 -20.338 -19.322  0.00  0.00    +0.157 HD
ATOM     10  H   UNL     1      36.914 -17.638 -23.089  0.00  0.00    +0.174 HD
ENDROOT
BRANCH   5  16
ATOM     11  C   UNL     1      36.361 -23.307 -15.717  0.00  0.00    +0.048 C 
ATOM     12  C   UNL     1      37.259 -22.481 -16.394  0.00  0.00    +0.015 C 
ATOM     13  C   UNL     1      35.055 -23.449 -16.186  0.00  0.00    +0.015 C 
ATOM     14  C   UNL     1      36.852 -21.799 -17.540  0.00  0.00    +0.006 C 
ATOM     15  C   UNL     1      34.648 -22.767 -17.333  0.00  0.00    +0.006 C 
ATOM     16  C   UNL     1      35.545 -21.942 -18.009  0.00  0.00    +0.054 C 
BRANCH  11  17
ATOM     17  N   UNL     1      36.768 -23.991 -14.567  0.00  0.00    -0.312 N 
ATOM     18  N   UNL     1      37.535 -25.583 -12.331  0.00  0.00    +0.389 N 
ATOM     19  C   UNL     1      36.494 -24.561 -12.183  0.00  0.00    -0.042 C 
ATOM     20  C   UNL     1      38.541 -25.158 -13.310  0.00  0.00    -0.042 C 
ATOM     21  C   UNL     1      35.787 -24.306 -13.523  0.00  0.00    +0.069 C 
ATOM     22  C   UNL     1      37.896 -24.925 -14.684  0.00  0.00    +0.069 C 
ATOM     23  C   UNL     1      39.630 -26.225 -13.402  0.00  0.00    -0.022 C 
ATOM     24  C   UNL     1      35.490 -25.018 -11.126  0.00  0.00    -0.022 C 
ATOM     25  H   UNL     1      37.107 -26.454 -12.646  0.00  0.00    -0.084 HD
ATOM     26  H   UNL     1      37.991 -25.720 -11.429  0.00  0.00    -0.084 HD
ENDBRANCH  11  17
ENDBRANCH   5  16
BRANCH   6  27
ATOM     27  C   UNL     1      34.381 -18.162 -23.926  0.00  0.00    +0.047 C 
BRANCH  27  28
ATOM     28  C   UNL     1      34.861 -16.795 -24.477  0.00  0.00    +0.033 C 
BRANCH  28  29
ATOM     29  C   UNL     1      34.333 -15.623 -23.685  0.00  0.00    -0.016 C 
ATOM     30  C   UNL     1      33.917 -14.466 -24.343  0.00  0.00    +0.033 C 
ATOM     31  C   UNL     1      34.259 -15.699 -22.294  0.00  0.00    +0.033 C 
ATOM     32  C   UNL     1      33.771 -14.618 -21.561  0.00  0.00    +0.141 C 
ATOM     33  C   UNL     1      33.428 -13.385 -23.611  0.00  0.00    +0.141 C 
ATOM     34  C   UNL     1      33.355 -13.460 -22.220  0.00  0.00    +0.074 C 
BRANCH  32  35
ATOM     35  O   UNL     1      33.699 -14.691 -20.204  0.00  0.00    -0.471 OA
ATOM     36  C   UNL     1      32.397 -14.640 -19.621  0.00  0.00    +0.252 C 
ENDBRANCH  32  35
BRANCH  33  37
ATOM     37  O   UNL     1      33.021 -12.256 -24.253  0.00  0.00    -0.471 OA
ATOM     38  C   UNL     1      32.933 -11.063 -23.474  0.00  0.00    +0.252 C 
ENDBRANCH  33  37
ENDBRANCH  28  29
ENDBRANCH  27  28
ENDBRANCH   6  27
TORSDOF 7
ENDMDL
MODEL 6
REMARK VINA RESULT:     -11.0      1.434      2.913
REMARK  Name = 51039095
REMARK  7 active torsions:
REMARK  status: ('A' for Active; 'I' for Inactive)
REMARK    1  A    between atoms: C_5  and  C_16
REMARK    2  A    between atoms: C_6  and  C_27
REMARK    3  A    between atoms: C_11  and  N_17
REMARK    4  A    between atoms: C_27  and  C_28
REMARK    5  A    between atoms: C_28  and  C_29
REMARK    6  A    between atoms: C_32  and  O_35
REMARK    7  A    between atoms: C_33  and  O_37
REMARK                            x       y       z     vdW  Elec       q    Type
REMARK                         _______ _______ _______ _____ _____    ______ ____
ROOT
ATOM      1  O   UNL     1      33.719 -14.339 -21.300  0.00  0.00    -0.270 OA
ATOM      2  N   UNL     1      33.938 -14.589 -23.622  0.00  0.00    -0.265 N 
ATOM      3  N   UNL     1      34.786 -17.807 -24.615  0.00  0.00    -0.239 N 
ATOM      4  N   UNL     1      34.500 -16.536 -24.944  0.00  0.00    -0.166 NA
ATOM      5  C   UNL     1      33.683 -13.868 -22.448  0.00  0.00    +0.251 C 
ATOM      6  C   UNL     1      34.752 -18.049 -23.272  0.00  0.00    +0.046 C 
ATOM      7  C   UNL     1      34.279 -15.958 -23.761  0.00  0.00    +0.153 C 
ATOM      8  C   UNL     1      34.422 -16.852 -22.683  0.00  0.00    +0.048 C 
ATOM      9  H   UNL     1      33.872 -14.079 -24.461  0.00  0.00    +0.157 HD
ATOM     10  H   UNL     1      34.998 -18.500 -25.280  0.00  0.00    +0.174 HD
ENDROOT
BRANCH   5  16
ATOM     11  C   UNL     1      32.802  -9.748 -22.962  0.00  0.00    +0.048 C 
ATOM     12  C   UNL     1      31.966 -10.549 -22.183  0.00  0.00    +0.015 C 
ATOM     13  C   UNL     1      33.929 -10.301 -23.571  0.00  0.00    +0.015 C 
ATOM     14  C   UNL     1      32.256 -11.902 -22.014  0.00  0.00    +0.006 C 
ATOM     15  C   UNL     1      34.218 -11.656 -23.401  0.00  0.00    +0.006 C 
ATOM     16  C   UNL     1      33.383 -12.456 -22.623  0.00  0.00    +0.054 C 
BRANCH  11  17
ATOM     17  N   UNL     1      32.513  -8.390 -23.132  0.00  0.00    -0.312 N 
ATOM     18  N   UNL     1      31.710  -5.687 -23.544  0.00  0.00    +0.389 N 
ATOM     19  C   UNL     1      32.824  -6.249 -24.315  0.00  0.00    -0.042 C 
ATOM     20  C   UNL     1      31.667  -6.269 -22.199  0.00  0.00    -0.042 C 
ATOM     21  C   UNL     1      32.678  -7.771 -24.453  0.00  0.00    +0.069 C 
ATOM     22  C   UNL     1      31.483  -7.792 -22.273  0.00  0.00    +0.069 C 
ATOM     23  C   UNL     1      30.525  -5.627 -21.413  0.00  0.00    -0.022 C 
ATOM     24  C   UNL     1      32.863  -5.588 -25.693  0.00  0.00    -0.022 C 
ATOM     25  H   UNL     1      30.833  -5.890 -24.026  0.00  0.00    -0.084 HD
ATOM     26  H   UNL     1      31.842  -4.679 -23.463  0.00  0.00    -0.084 HD
ENDBRANCH  11  17
ENDBRANCH   5  16
BRANCH   6  27
ATOM     27  C   UNL     1      35.035 -19.378 -22.707  0.00  0.00    +0.047 C 
BRANCH  27  28
ATOM     28  C   UNL     1      35.995 -19.375 -21.491  0.00  0.00    +0.033 C 
BRANCH  28  29
ATOM     29  C   UNL     1      35.580 -20.345 -20.411  0.00  0.00    -0.016 C 
ATOM     30  C   UNL     1      34.232 -20.661 -20.236  0.00  0.00    +0.033 C 
ATOM     31  C   UNL     1      36.544 -20.926 -19.589  0.00  0.00    +0.033 C 
ATOM     32  C   UNL     1      36.162 -21.823 -18.591  0.00  0.00    +0.141 C 
ATOM     33  C   UNL     1      33.850 -21.558 -19.240  0.00  0.00    +0.141 C 
ATOM     34  C   UNL     1      34.814 -22.139 -18.416  0.00  0.00    +0.074 C 
BRANCH  32  35
ATOM     35  O   UNL     1      37.103 -22.392 -17.789  0.00  0.00    -0.471 OA
ATOM     36  C   UNL     1      36.884 -22.317 -16.381  0.00  0.00    +0.252 C 
ENDBRANCH  32  35
BRANCH  33  37
ATOM     37  O   UNL     1      32.535 -21.867 -19.069  0.00  0.00    -0.471 OA
ATOM     38  C   UNL     1      32.164 -22.461 -17.826  0.00  0.00    +0.252 C 
ENDBRANCH  33  37
ENDBRANCH  28  29
ENDBRANCH  27  28
ENDBRANCH   6  27
TORSDOF 7
ENDMDL
MODEL 7
REMARK VINA RESULT:     -11.0      1.430      2.142
REMARK  Name = 51039095
REMARK  7 active torsions:
REMARK  status: ('A' for Active; 'I' for Inactive)
REMARK    1  A    between atoms: C_5  and  C_16
REMARK    2  A    between atoms: C_6  and  C_27
REMARK    3  A    between atoms: C_11  and  N_17
REMARK    4  A    between atoms: C_27  and  C_28
REMARK    5  A    between atoms: C_28  and  C_29
REMARK    6  A    between atoms: C_32  and  O_35
REMARK    7  A    between atoms: C_33  and  O_37
REMARK                            x       y       z     vdW  Elec       q    Type
REMARK                         _______ _______ _______ _____ _____    ______ ____
ROOT
ATOM      1  O   UNL     1      33.529 -14.402 -21.296  0.00  0.00    -0.270 OA
ATOM      2  N   UNL     1      33.960 -14.628 -23.592  0.00  0.00    -0.265 N 
ATOM      3  N   UNL     1      34.903 -17.834 -24.534  0.00  0.00    -0.239 N 
ATOM      4  N   UNL     1      34.645 -16.560 -24.876  0.00  0.00    -0.166 NA
ATOM      5  C   UNL     1      33.597 -13.919 -22.438  0.00  0.00    +0.251 C 
ATOM      6  C   UNL     1      34.747 -18.089 -23.202  0.00  0.00    +0.046 C 
ATOM      7  C   UNL     1      34.316 -15.994 -23.712  0.00  0.00    +0.153 C 
ATOM      8  C   UNL     1      34.362 -16.899 -22.635  0.00  0.00    +0.048 C 
ATOM      9  H   UNL     1      33.969 -14.109 -24.428  0.00  0.00    +0.157 HD
ATOM     10  H   UNL     1      35.177 -18.519 -25.185  0.00  0.00    +0.174 HD
ENDROOT
BRANCH   5  16
ATOM     11  C   UNL     1      32.763  -9.794 -22.986  0.00  0.00    +0.048 C 
ATOM     12  C   UNL     1      33.838 -10.383 -23.652  0.00  0.00    +0.015 C 
ATOM     13  C   UNL     1      31.961 -10.560 -22.140  0.00  0.00    +0.015 C 
ATOM     14  C   UNL     1      34.111 -11.738 -23.472  0.00  0.00    +0.006 C 
ATOM     15  C   UNL     1      32.235 -11.916 -21.961  0.00  0.00    +0.006 C 
ATOM     16  C   UNL     1      33.309 -12.506 -22.626  0.00  0.00    +0.054 C 
BRANCH  11  17
ATOM     17  N   UNL     1      32.487  -8.434 -23.165  0.00  0.00    -0.312 N 
ATOM     18  N   UNL     1      31.709  -5.726 -23.597  0.00  0.00    +0.389 N 
ATOM     19  C   UNL     1      32.820  -6.303 -24.362  0.00  0.00    -0.042 C 
ATOM     20  C   UNL     1      31.658  -6.299 -22.248  0.00  0.00    -0.042 C 
ATOM     21  C   UNL     1      32.661  -7.825 -24.489  0.00  0.00    +0.069 C 
ATOM     22  C   UNL     1      31.460  -7.820 -22.312  0.00  0.00    +0.069 C 
ATOM     23  C   UNL     1      30.520  -5.641 -21.470  0.00  0.00    -0.022 C 
ATOM     24  C   UNL     1      32.869  -5.652 -25.743  0.00  0.00    -0.022 C 
ATOM     25  H   UNL     1      30.832  -5.924 -24.080  0.00  0.00    -0.084 HD
ATOM     26  H   UNL     1      31.851  -4.719 -23.522  0.00  0.00    -0.084 HD
ENDBRANCH  11  17
ENDBRANCH   5  16
BRANCH   6  27
ATOM     27  C   UNL     1      34.981 -19.423 -22.628  0.00  0.00    +0.047 C 
BRANCH  27  28
ATOM     28  C   UNL     1      35.975 -19.452 -21.439  0.00  0.00    +0.033 C 
BRANCH  28  29
ATOM     29  C   UNL     1      35.575 -20.432 -20.362  0.00  0.00    -0.016 C 
ATOM     30  C   UNL     1      36.545 -20.979 -19.521  0.00  0.00    +0.033 C 
ATOM     31  C   UNL     1      34.237 -20.789 -20.207  0.00  0.00    +0.033 C 
ATOM     32  C   UNL     1      33.866 -21.694 -19.212  0.00  0.00    +0.141 C 
ATOM     33  C   UNL     1      36.175 -21.883 -18.526  0.00  0.00    +0.141 C 
ATOM     34  C   UNL     1      34.836 -22.242 -18.371  0.00  0.00    +0.074 C 
BRANCH  32  35
ATOM     35  O   UNL     1      32.559 -22.044 -19.060  0.00  0.00    -0.471 OA
ATOM     36  C   UNL     1      32.152 -22.480 -17.764  0.00  0.00    +0.252 C 
ENDBRANCH  32  35
BRANCH  33  37
ATOM     37  O   UNL     1      37.120 -22.416 -17.704  0.00  0.00    -0.471 OA
ATOM     38  C   UNL     1      36.851 -22.393 -16.303  0.00  0.00    +0.252 C 
ENDBRANCH  33  37
ENDBRANCH  28  29
ENDBRANCH  27  28
ENDBRANCH   6  27
TORSDOF 7
ENDMDL
MODEL 8
REMARK VINA RESULT:     -10.6      4.237     13.061
REMARK  Name = 51039095
REMARK  7 active torsions:
REMARK  status: ('A' for Active; 'I' for Inactive)
REMARK    1  A    between atoms: C_5  and  C_16
REMARK    2  A    between atoms: C_6  and  C_27
REMARK    3  A    between atoms: C_11  and  N_17
REMARK    4  A    between atoms: C_27  and  C_28
REMARK    5  A    between atoms: C_28  and  C_29
REMARK    6  A    between atoms: C_32  and  O_35
REMARK    7  A    between atoms: C_33  and  O_37
REMARK                            x       y       z     vdW  Elec       q    Type
REMARK                         _______ _______ _______ _____ _____    ______ ____
ROOT
ATOM      1  O   UNL     1      36.654 -19.366 -20.292  0.00  0.00    -0.270 OA
ATOM      2  N   UNL     1      34.670 -20.299 -21.127  0.00  0.00    -0.265 N 
ATOM      3  N   UNL     1      33.541 -18.810 -24.053  0.00  0.00    -0.239 N 
ATOM      4  N   UNL     1      33.378 -19.735 -23.092  0.00  0.00    -0.166 NA
ATOM      5  C   UNL     1      35.727 -20.189 -20.213  0.00  0.00    +0.251 C 
ATOM      6  C   UNL     1      34.654 -18.036 -23.890  0.00  0.00    +0.046 C 
ATOM      7  C   UNL     1      34.429 -19.534 -22.295  0.00  0.00    +0.153 C 
ATOM      8  C   UNL     1      35.258 -18.488 -22.742  0.00  0.00    +0.048 C 
ATOM      9  H   UNL     1      34.007 -21.001 -20.932  0.00  0.00    +0.157 HD
ATOM     10  H   UNL     1      32.916 -18.701 -24.806  0.00  0.00    +0.174 HD
ENDROOT
BRANCH   5  16
ATOM     11  C   UNL     1      35.613 -22.863 -16.919  0.00  0.00    +0.048 C 
ATOM     12  C   UNL     1      34.519 -22.769 -17.780  0.00  0.00    +0.015 C 
ATOM     13  C   UNL     1      36.745 -22.079 -17.141  0.00  0.00    +0.015 C 
ATOM     14  C   UNL     1      34.557 -21.891 -18.863  0.00  0.00    +0.006 C 
ATOM     15  C   UNL     1      36.782 -21.200 -18.224  0.00  0.00    +0.006 C 
ATOM     16  C   UNL     1      35.689 -21.106 -19.085  0.00  0.00    +0.054 C 
BRANCH  11  17
ATOM     17  N   UNL     1      35.576 -23.744 -15.833  0.00  0.00    -0.312 N 
ATOM     18  N   UNL     1      35.496 -25.352 -13.481  0.00  0.00    +0.389 N 
ATOM     19  C   UNL     1      36.635 -25.449 -14.400  0.00  0.00    -0.042 C 
ATOM     20  C   UNL     1      34.261 -25.066 -14.219  0.00  0.00    -0.042 C 
ATOM     21  C   UNL     1      36.826 -24.134 -15.171  0.00  0.00    +0.069 C 
ATOM     22  C   UNL     1      34.379 -23.739 -14.982  0.00  0.00    +0.069 C 
ATOM     23  C   UNL     1      33.092 -25.019 -13.236  0.00  0.00    -0.022 C 
ATOM     24  C   UNL     1      37.893 -25.790 -13.603  0.00  0.00    -0.022 C 
ATOM     25  H   UNL     1      35.668 -24.601 -12.812  0.00  0.00    -0.084 HD
ATOM     26  H   UNL     1      35.390 -26.242 -12.995  0.00  0.00    -0.084 HD
ENDBRANCH  11  17
ENDBRANCH   5  16
BRANCH   6  27
ATOM     27  C   UNL     1      35.010 -16.967 -24.834  0.00  0.00    +0.047 C 
BRANCH  27  28
ATOM     28  C   UNL     1      33.882 -15.941 -25.109  0.00  0.00    +0.033 C 
BRANCH  28  29
ATOM     29  C   UNL     1      33.807 -14.853 -24.065  0.00  0.00    -0.016 C 
ATOM     30  C   UNL     1      34.190 -15.120 -22.750  0.00  0.00    +0.033 C 
ATOM     31  C   UNL     1      33.359 -13.581 -24.416  0.00  0.00    +0.033 C 
ATOM     32  C   UNL     1      33.290 -12.574 -23.452  0.00  0.00    +0.141 C 
ATOM     33  C   UNL     1      34.122 -14.115 -21.787  0.00  0.00    +0.141 C 
ATOM     34  C   UNL     1      33.672 -12.842 -22.137  0.00  0.00    +0.074 C 
BRANCH  32  35
ATOM     35  O   UNL     1      32.853 -11.331 -23.794  0.00  0.00    -0.471 OA
ATOM     36  C   UNL     1      32.148 -10.596 -22.794  0.00  0.00    +0.252 C 
ENDBRANCH  32  35
BRANCH  33  37
ATOM     37  O   UNL     1      34.496 -14.374 -20.504  0.00  0.00    -0.471 OA
ATOM     38  C   UNL     1      34.635 -15.745 -20.133  0.00  0.00    +0.252 C 
ENDBRANCH  33  37
ENDBRANCH  28  29
ENDBRANCH  27  28
ENDBRANCH   6  27
TORSDOF 7
ENDMDL
MODEL 9
REMARK VINA RESULT:     -10.2      3.293      6.143
REMARK  Name = 51039095
REMARK  7 active torsions:
REMARK  status: ('A' for Active; 'I' for Inactive)
REMARK    1  A    between atoms: C_5  and  C_16
REMARK    2  A    between atoms: C_6  and  C_27
REMARK    3  A    between atoms: C_11  and  N_17
REMARK    4  A    between atoms: C_27  and  C_28
REMARK    5  A    between atoms: C_28  and  C_29
REMARK    6  A    between atoms: C_32  and  O_35
REMARK    7  A    between atoms: C_33  and  O_37
REMARK                            x       y       z     vdW  Elec       q    Type
REMARK                         _______ _______ _______ _____ _____    ______ ____
ROOT
ATOM      1  O   UNL     1      34.748  -9.918 -23.358  0.00  0.00    -0.270 OA
ATOM      2  N   UNL     1      32.464  -9.608 -22.919  0.00  0.00    -0.265 N 
ATOM      3  N   UNL     1      30.990 -12.251 -21.217  0.00  0.00    -0.239 N 
ATOM      4  N   UNL     1      30.875 -11.041 -21.791  0.00  0.00    -0.166 NA
ATOM      5  C   UNL     1      33.715  -9.234 -23.431  0.00  0.00    +0.251 C 
ATOM      6  C   UNL     1      32.248 -12.774 -21.282  0.00  0.00    +0.046 C 
ATOM      7  C   UNL     1      32.111 -10.797 -22.234  0.00  0.00    +0.153 C 
ATOM      8  C   UNL     1      33.009 -11.842 -21.945  0.00  0.00    +0.048 C 
ATOM      9  H   UNL     1      31.736  -8.960 -23.054  0.00  0.00    +0.157 HD
ATOM     10  H   UNL     1      30.235 -12.715 -20.788  0.00  0.00    +0.174 HD
ENDROOT
BRANCH   5  16
ATOM     11  C   UNL     1      33.853  -5.495 -25.434  0.00  0.00    +0.048 C 
ATOM     12  C   UNL     1      32.647  -6.192 -25.338  0.00  0.00    +0.015 C 
ATOM     13  C   UNL     1      35.013  -6.027 -24.871  0.00  0.00    +0.015 C 
ATOM     14  C   UNL     1      32.603  -7.420 -24.680  0.00  0.00    +0.006 C 
ATOM     15  C   UNL     1      34.967  -7.256 -24.212  0.00  0.00    +0.006 C 
ATOM     16  C   UNL     1      33.763  -7.952 -24.116  0.00  0.00    +0.054 C 
BRANCH  11  17
ATOM     17  N   UNL     1      33.899  -4.263 -26.095  0.00  0.00    -0.312 N 
ATOM     18  N   UNL     1      33.957  -1.867 -27.638  0.00  0.00    +0.389 N 
ATOM     19  C   UNL     1      35.132  -2.268 -26.858  0.00  0.00    -0.042 C 
ATOM     20  C   UNL     1      32.722  -2.274 -26.958  0.00  0.00    -0.042 C 
ATOM     21  C   UNL     1      35.166  -3.791 -26.666  0.00  0.00    +0.069 C 
ATOM     22  C   UNL     1      32.682  -3.798 -26.773  0.00  0.00    +0.069 C 
ATOM     23  C   UNL     1      31.523  -1.800 -27.776  0.00  0.00    -0.022 C 
ATOM     24  C   UNL     1      36.395  -1.790 -27.574  0.00  0.00    -0.022 C 
ATOM     25  H   UNL     1      33.996  -2.312 -28.556  0.00  0.00    -0.084 HD
ATOM     26  H   UNL     1      33.959  -0.852 -27.738  0.00  0.00    -0.084 HD
ENDBRANCH  11  17
ENDBRANCH   5  16
BRANCH   6  27
ATOM     27  C   UNL     1      32.581 -14.089 -20.711  0.00  0.00    +0.047 C 
BRANCH  27  28
ATOM     28  C   UNL     1      34.065 -14.505 -20.864  0.00  0.00    +0.033 C 
BRANCH  28  29
ATOM     29  C   UNL     1      34.303 -15.418 -22.043  0.00  0.00    -0.016 C 
ATOM     30  C   UNL     1      34.866 -16.679 -21.848  0.00  0.00    +0.033 C 
ATOM     31  C   UNL     1      33.957 -15.000 -23.327  0.00  0.00    +0.033 C 
ATOM     32  C   UNL     1      34.175 -15.842 -24.418  0.00  0.00    +0.141 C 
ATOM     33  C   UNL     1      35.083 -17.522 -22.937  0.00  0.00    +0.141 C 
ATOM     34  C   UNL     1      34.739 -17.104 -24.223  0.00  0.00    +0.074 C 
BRANCH  32  35
ATOM     35  O   UNL     1      33.837 -15.435 -25.672  0.00  0.00    -0.471 OA
ATOM     36  C   UNL     1      33.228 -14.151 -25.794  0.00  0.00    +0.252 C 
ENDBRANCH  32  35
BRANCH  33  37
ATOM     37  O   UNL     1      35.632 -18.753 -22.748  0.00  0.00    -0.471 OA
ATOM     38  C   UNL     1      35.067 -19.564 -21.718  0.00  0.00    +0.252 C 
ENDBRANCH  33  37
ENDBRANCH  28  29
ENDBRANCH  27  28
ENDBRANCH   6  27
TORSDOF 7
ENDMDL
