MODEL 1
REMARK VINA RESULT:     -11.9      0.000      0.000
REMARK  Name = 24880024
REMARK  5 active torsions:
REMARK  status: ('A' for Active; 'I' for Inactive)
REMARK    1  A    between atoms: N_5  and  C_12
REMARK    2  A    between atoms: C_6  and  C_22
REMARK    3  A    between atoms: C_13  and  C_21
REMARK    4  A    between atoms: C_22  and  C_23
REMARK    5  A    between atoms: C_23  and  N_25
REMARK                            x       y       z     vdW  Elec       q    Type
REMARK                         _______ _______ _______ _____ _____    ______ ____
ROOT
ATOM      1  S   UNL     1      36.450 -20.699 -19.843  0.00  0.00    -0.056 S 
ATOM      2  O   UNL     1      35.242 -23.391 -16.224  0.00  0.00    -0.252 OA
ATOM      3  N   UNL     1      34.464 -21.911 -18.714  0.00  0.00    -0.223 NA
ATOM      4  N   UNL     1      36.614 -22.121 -17.646  0.00  0.00    -0.248 N 
ATOM      5  N   UNL     1      37.525 -23.163 -15.767  0.00  0.00    -0.268 N 
ATOM      6  C   UNL     1      34.907 -20.572 -20.581  0.00  0.00    +0.031 C 
ATOM      7  C   UNL     1      33.981 -21.276 -19.841  0.00  0.00    +0.103 C 
ATOM      8  C   UNL     1      35.754 -21.675 -18.615  0.00  0.00    +0.166 C 
ATOM      9  C   UNL     1      36.350 -22.945 -16.504  0.00  0.00    +0.310 C 
ATOM     10  H   UNL     1      37.550 -21.833 -17.750  0.00  0.00    +0.158 HD
ATOM     11  H   UNL     1      38.341 -22.739 -16.118  0.00  0.00    +0.156 HD
ENDROOT
BRANCH   5  12
ATOM     12  C   UNL     1      37.680 -23.920 -14.581  0.00  0.00    +0.052 C 
ATOM     13  C   UNL     1      36.989 -24.440 -12.325  0.00  0.00    +0.073 C 
ATOM     14  C   UNL     1      36.837 -23.694 -13.493  0.00  0.00    +0.019 C 
ATOM     15  C   UNL     1      38.676 -24.893 -14.501  0.00  0.00    +0.015 C 
ATOM     16  C   UNL     1      37.986 -25.413 -12.245  0.00  0.00    +0.004 C 
ATOM     17  C   UNL     1      38.829 -25.640 -13.333  0.00  0.00    +0.001 C 
BRANCH  13  21
ATOM     18  F   UNL     1      35.707 -25.341 -10.518  0.00  0.00    -0.166 F 
ATOM     19  F   UNL     1      36.646 -23.413 -10.192  0.00  0.00    -0.166 F 
ATOM     20  F   UNL     1      34.929 -23.573 -11.516  0.00  0.00    -0.166 F 
ATOM     21  C   UNL     1      36.088 -24.199 -11.161  0.00  0.00    +0.419 C 
ENDBRANCH  13  21
ENDBRANCH   5  12
BRANCH   6  22
ATOM     22  C   UNL     1      34.727 -19.775 -21.850  0.00  0.00    +0.056 C 
BRANCH  22  23
ATOM     23  C   UNL     1      35.713 -18.614 -21.974  0.00  0.00    +0.093 C 
BRANCH  23  25
ATOM     24  S   UNL     1      34.013 -15.383 -24.837  0.00  0.00    -0.101 S 
ATOM     25  N   UNL     1      35.181 -17.576 -22.803  0.00  0.00    -0.320 N 
ATOM     26  N   UNL     1      34.862 -16.083 -20.977  0.00  0.00    -0.233 NA
ATOM     27  N   UNL     1      33.943 -13.863 -21.264  0.00  0.00    -0.247 NA
ATOM     28  C   UNL     1      34.764 -16.330 -22.298  0.00  0.00    +0.118 C 
ATOM     29  C   UNL     1      34.251 -15.348 -23.138  0.00  0.00    +0.145 C 
ATOM     30  C   UNL     1      33.850 -14.128 -22.594  0.00  0.00    +0.073 C 
ATOM     31  C   UNL     1      33.351 -13.238 -23.591  0.00  0.00    +0.022 C 
ATOM     32  C   UNL     1      33.383 -13.794 -24.850  0.00  0.00    +0.033 C 
ATOM     33  C   UNL     1      34.451 -14.877 -20.544  0.00  0.00    +0.251 C 
ATOM     34  H   UNL     1      35.101 -17.741 -23.770  0.00  0.00    +0.148 HD
ENDBRANCH  23  25
ENDBRANCH  22  23
ENDBRANCH   6  22
TORSDOF 5
ENDMDL
MODEL 2
REMARK VINA RESULT:     -11.8      1.133      1.725
REMARK  Name = 24880024
REMARK  5 active torsions:
REMARK  status: ('A' for Active; 'I' for Inactive)
REMARK    1  A    between atoms: N_5  and  C_12
REMARK    2  A    between atoms: C_6  and  C_22
REMARK    3  A    between atoms: C_13  and  C_21
REMARK    4  A    between atoms: C_22  and  C_23
REMARK    5  A    between atoms: C_23  and  N_25
REMARK                            x       y       z     vdW  Elec       q    Type
REMARK                         _______ _______ _______ _____ _____    ______ ____
ROOT
ATOM      1  S   UNL     1      36.569 -20.632 -19.752  0.00  0.00    -0.056 S 
ATOM      2  O   UNL     1      35.278 -23.426 -16.240  0.00  0.00    -0.252 OA
ATOM      3  N   UNL     1      34.562 -21.888 -18.713  0.00  0.00    -0.223 NA
ATOM      4  N   UNL     1      36.681 -22.109 -17.589  0.00  0.00    -0.248 N 
ATOM      5  N   UNL     1      37.545 -23.193 -15.710  0.00  0.00    -0.268 N 
ATOM      6  C   UNL     1      35.048 -20.498 -20.532  0.00  0.00    +0.031 C 
ATOM      7  C   UNL     1      34.106 -21.229 -19.838  0.00  0.00    +0.103 C 
ATOM      8  C   UNL     1      35.846 -21.646 -18.570  0.00  0.00    +0.166 C 
ATOM      9  C   UNL     1      36.390 -22.965 -16.476  0.00  0.00    +0.310 C 
ATOM     10  H   UNL     1      37.617 -21.812 -17.657  0.00  0.00    +0.158 HD
ATOM     11  H   UNL     1      38.367 -22.754 -16.026  0.00  0.00    +0.156 HD
ENDROOT
BRANCH   5  12
ATOM     12  C   UNL     1      37.671 -23.979 -14.540  0.00  0.00    +0.052 C 
ATOM     13  C   UNL     1      36.987 -24.495 -12.282  0.00  0.00    +0.073 C 
ATOM     14  C   UNL     1      36.862 -23.720 -13.434  0.00  0.00    +0.019 C 
ATOM     15  C   UNL     1      38.605 -25.014 -14.494  0.00  0.00    +0.015 C 
ATOM     16  C   UNL     1      37.920 -25.530 -12.235  0.00  0.00    +0.004 C 
ATOM     17  C   UNL     1      38.730 -25.790 -13.341  0.00  0.00    +0.001 C 
BRANCH  13  21
ATOM     18  F   UNL     1      36.669 -23.331 -10.216  0.00  0.00    -0.166 F 
ATOM     19  F   UNL     1      34.903 -23.692 -11.423  0.00  0.00    -0.166 F 
ATOM     20  F   UNL     1      35.854 -25.341 -10.370  0.00  0.00    -0.166 F 
ATOM     21  C   UNL     1      36.122 -24.218 -11.098  0.00  0.00    +0.419 C 
ENDBRANCH  13  21
ENDBRANCH   5  12
BRANCH   6  22
ATOM     22  C   UNL     1      34.899 -19.670 -21.785  0.00  0.00    +0.056 C 
BRANCH  22  23
ATOM     23  C   UNL     1      35.996 -18.618 -21.942  0.00  0.00    +0.093 C 
BRANCH  23  25
ATOM     24  S   UNL     1      34.303 -14.318 -21.528  0.00  0.00    -0.101 S 
ATOM     25  N   UNL     1      35.451 -17.295 -21.879  0.00  0.00    -0.320 N 
ATOM     26  N   UNL     1      34.643 -17.366 -24.117  0.00  0.00    -0.233 NA
ATOM     27  N   UNL     1      33.467 -15.510 -25.129  0.00  0.00    -0.247 NA
ATOM     28  C   UNL     1      34.785 -16.689 -22.961  0.00  0.00    +0.118 C 
ATOM     29  C   UNL     1      34.270 -15.402 -22.858  0.00  0.00    +0.145 C 
ATOM     30  C   UNL     1      33.619 -14.840 -23.956  0.00  0.00    +0.073 C 
ATOM     31  C   UNL     1      33.154 -13.519 -23.680  0.00  0.00    +0.022 C 
ATOM     32  C   UNL     1      33.459 -13.115 -22.401  0.00  0.00    +0.033 C 
ATOM     33  C   UNL     1      33.999 -16.742 -25.121  0.00  0.00    +0.251 C 
ATOM     34  H   UNL     1      35.547 -16.787 -21.042  0.00  0.00    +0.148 HD
ENDBRANCH  23  25
ENDBRANCH  22  23
ENDBRANCH   6  22
TORSDOF 5
ENDMDL
MODEL 3
REMARK VINA RESULT:     -11.7      3.770      4.418
REMARK  Name = 24880024
REMARK  5 active torsions:
REMARK  status: ('A' for Active; 'I' for Inactive)
REMARK    1  A    between atoms: N_5  and  C_12
REMARK    2  A    between atoms: C_6  and  C_22
REMARK    3  A    between atoms: C_13  and  C_21
REMARK    4  A    between atoms: C_22  and  C_23
REMARK    5  A    between atoms: C_23  and  N_25
REMARK                            x       y       z     vdW  Elec       q    Type
REMARK                         _______ _______ _______ _____ _____    ______ ____
ROOT
ATOM      1  S   UNL     1      35.836 -21.290 -19.857  0.00  0.00    -0.056 S 
ATOM      2  O   UNL     1      31.878 -22.417 -17.651  0.00  0.00    -0.252 OA
ATOM      3  N   UNL     1      33.269 -20.983 -19.888  0.00  0.00    -0.223 NA
ATOM      4  N   UNL     1      34.179 -22.338 -18.117  0.00  0.00    -0.248 N 
ATOM      5  N   UNL     1      33.397 -23.553 -16.284  0.00  0.00    -0.268 N 
ATOM      6  C   UNL     1      35.157 -20.334 -21.109  0.00  0.00    +0.031 C 
ATOM      7  C   UNL     1      33.787 -20.284 -20.961  0.00  0.00    +0.103 C 
ATOM      8  C   UNL     1      34.258 -21.553 -19.236  0.00  0.00    +0.166 C 
ATOM      9  C   UNL     1      33.026 -22.743 -17.369  0.00  0.00    +0.310 C 
ATOM     10  H   UNL     1      35.041 -22.674 -17.776  0.00  0.00    +0.158 HD
ATOM     11  H   UNL     1      34.361 -23.729 -16.185  0.00  0.00    +0.156 HD
ENDROOT
BRANCH   5  12
ATOM     12  C   UNL     1      32.556 -24.150 -15.315  0.00  0.00    +0.052 C 
ATOM     13  C   UNL     1      30.365 -24.893 -14.619  0.00  0.00    +0.073 C 
ATOM     14  C   UNL     1      31.194 -24.305 -15.574  0.00  0.00    +0.019 C 
ATOM     15  C   UNL     1      33.088 -24.584 -14.102  0.00  0.00    +0.015 C 
ATOM     16  C   UNL     1      30.898 -25.328 -13.406  0.00  0.00    +0.004 C 
ATOM     17  C   UNL     1      32.260 -25.174 -13.147  0.00  0.00    +0.001 C 
BRANCH  13  21
ATOM     18  F   UNL     1      28.195 -23.900 -14.785  0.00  0.00    -0.166 F 
ATOM     19  F   UNL     1      28.640 -25.525 -16.151  0.00  0.00    -0.166 F 
ATOM     20  F   UNL     1      28.310 -25.940 -14.042  0.00  0.00    -0.166 F 
ATOM     21  C   UNL     1      28.908 -25.058 -14.895  0.00  0.00    +0.419 C 
ENDBRANCH  13  21
ENDBRANCH   5  12
BRANCH   6  22
ATOM     22  C   UNL     1      36.041 -19.697 -22.153  0.00  0.00    +0.056 C 
BRANCH  22  23
ATOM     23  C   UNL     1      36.381 -18.240 -21.844  0.00  0.00    +0.093 C 
BRANCH  23  25
ATOM     24  S   UNL     1      34.070 -15.486 -24.777  0.00  0.00    -0.101 S 
ATOM     25  N   UNL     1      35.649 -17.351 -22.696  0.00  0.00    -0.320 N 
ATOM     26  N   UNL     1      34.955 -15.963 -20.891  0.00  0.00    -0.233 NA
ATOM     27  N   UNL     1      33.566 -14.009 -21.220  0.00  0.00    -0.247 NA
ATOM     28  C   UNL     1      34.949 -16.230 -22.212  0.00  0.00    +0.118 C 
ATOM     29  C   UNL     1      34.250 -15.392 -23.073  0.00  0.00    +0.145 C 
ATOM     30  C   UNL     1      33.570 -14.293 -22.550  0.00  0.00    +0.073 C 
ATOM     31  C   UNL     1      32.909 -13.542 -23.568  0.00  0.00    +0.022 C 
ATOM     32  C   UNL     1      33.099 -14.080 -24.819  0.00  0.00    +0.033 C 
ATOM     33  C   UNL     1      34.270 -14.879 -20.480  0.00  0.00    +0.251 C 
ATOM     34  H   UNL     1      35.634 -17.533 -23.663  0.00  0.00    +0.148 HD
ENDBRANCH  23  25
ENDBRANCH  22  23
ENDBRANCH   6  22
TORSDOF 5
ENDMDL
MODEL 4
REMARK VINA RESULT:     -11.3      1.747      2.256
REMARK  Name = 24880024
REMARK  5 active torsions:
REMARK  status: ('A' for Active; 'I' for Inactive)
REMARK    1  A    between atoms: N_5  and  C_12
REMARK    2  A    between atoms: C_6  and  C_22
REMARK    3  A    between atoms: C_13  and  C_21
REMARK    4  A    between atoms: C_22  and  C_23
REMARK    5  A    between atoms: C_23  and  N_25
REMARK                            x       y       z     vdW  Elec       q    Type
REMARK                         _______ _______ _______ _____ _____    ______ ____
ROOT
ATOM      1  S   UNL     1      34.064 -21.266 -19.887  0.00  0.00    -0.056 S 
ATOM      2  O   UNL     1      36.869 -22.472 -16.355  0.00  0.00    -0.252 OA
ATOM      3  N   UNL     1      36.468 -21.046 -18.963  0.00  0.00    -0.223 NA
ATOM      4  N   UNL     1      34.912 -22.333 -17.648  0.00  0.00    -0.248 N 
ATOM      5  N   UNL     1      34.907 -23.529 -15.644  0.00  0.00    -0.268 N 
ATOM      6  C   UNL     1      35.193 -20.352 -20.798  0.00  0.00    +0.031 C 
ATOM      7  C   UNL     1      36.412 -20.349 -20.153  0.00  0.00    +0.103 C 
ATOM      8  C   UNL     1      35.287 -21.571 -18.723  0.00  0.00    +0.166 C 
ATOM      9  C   UNL     1      35.687 -22.756 -16.519  0.00  0.00    +0.310 C 
ATOM     10  H   UNL     1      33.975 -22.634 -17.651  0.00  0.00    +0.158 HD
ATOM     11  H   UNL     1      33.971 -23.672 -15.911  0.00  0.00    +0.156 HD
ENDROOT
BRANCH   5  12
ATOM     12  C   UNL     1      35.303 -24.128 -14.424  0.00  0.00    +0.052 C 
ATOM     13  C   UNL     1      36.952 -25.306 -13.109  0.00  0.00    +0.073 C 
ATOM     14  C   UNL     1      36.562 -24.717 -14.312  0.00  0.00    +0.019 C 
ATOM     15  C   UNL     1      34.434 -24.128 -13.334  0.00  0.00    +0.015 C 
ATOM     16  C   UNL     1      36.083 -25.306 -12.019  0.00  0.00    +0.004 C 
ATOM     17  C   UNL     1      34.823 -24.716 -12.131  0.00  0.00    +0.001 C 
BRANCH  13  21
ATOM     18  F   UNL     1      38.548 -26.883 -13.939  0.00  0.00    -0.166 F 
ATOM     19  F   UNL     1      39.330 -25.046 -13.093  0.00  0.00    -0.166 F 
ATOM     20  F   UNL     1      38.478 -26.564 -11.790  0.00  0.00    -0.166 F 
ATOM     21  C   UNL     1      38.299 -25.936 -12.988  0.00  0.00    +0.419 C 
ENDBRANCH  13  21
ENDBRANCH   5  12
BRANCH   6  22
ATOM     22  C   UNL     1      34.784 -19.701 -22.097  0.00  0.00    +0.056 C 
BRANCH  22  23
ATOM     23  C   UNL     1      35.832 -18.728 -22.636  0.00  0.00    +0.093 C 
BRANCH  23  25
ATOM     24  S   UNL     1      33.830 -15.227 -24.930  0.00  0.00    -0.101 S 
ATOM     25  N   UNL     1      35.210 -17.613 -23.285  0.00  0.00    -0.320 N 
ATOM     26  N   UNL     1      35.017 -16.364 -21.268  0.00  0.00    -0.233 NA
ATOM     27  N   UNL     1      34.032 -14.155 -21.202  0.00  0.00    -0.247 NA
ATOM     28  C   UNL     1      34.812 -16.452 -22.597  0.00  0.00    +0.118 C 
ATOM     29  C   UNL     1      34.211 -15.391 -23.264  0.00  0.00    +0.145 C 
ATOM     30  C   UNL     1      33.832 -14.260 -22.542  0.00  0.00    +0.073 C 
ATOM     31  C   UNL     1      33.232 -13.270 -23.378  0.00  0.00    +0.022 C 
ATOM     32  C   UNL     1      33.169 -13.668 -24.694  0.00  0.00    +0.033 C 
ATOM     33  C   UNL     1      34.619 -15.233 -20.657  0.00  0.00    +0.251 C 
ATOM     34  H   UNL     1      35.052 -17.662 -24.255  0.00  0.00    +0.148 HD
ENDBRANCH  23  25
ENDBRANCH  22  23
ENDBRANCH   6  22
TORSDOF 5
ENDMDL
MODEL 5
REMARK VINA RESULT:     -11.1      5.391     11.500
REMARK  Name = 24880024
REMARK  5 active torsions:
REMARK  status: ('A' for Active; 'I' for Inactive)
REMARK    1  A    between atoms: N_5  and  C_12
REMARK    2  A    between atoms: C_6  and  C_22
REMARK    3  A    between atoms: C_13  and  C_21
REMARK    4  A    between atoms: C_22  and  C_23
REMARK    5  A    between atoms: C_23  and  N_25
REMARK                            x       y       z     vdW  Elec       q    Type
REMARK                         _______ _______ _______ _____ _____    ______ ____
ROOT
ATOM      1  S   UNL     1      34.058 -23.446 -16.625  0.00  0.00    -0.056 S 
ATOM      2  O   UNL     1      32.383 -20.705 -20.013  0.00  0.00    -0.252 OA
ATOM      3  N   UNL     1      31.889 -22.470 -17.640  0.00  0.00    -0.223 NA
ATOM      4  N   UNL     1      33.960 -21.854 -18.705  0.00  0.00    -0.248 N 
ATOM      5  N   UNL     1      34.664 -20.545 -20.505  0.00  0.00    -0.268 N 
ATOM      6  C   UNL     1      32.568 -23.863 -15.886  0.00  0.00    +0.031 C 
ATOM      7  C   UNL     1      31.530 -23.255 -16.562  0.00  0.00    +0.103 C 
ATOM      8  C   UNL     1      33.197 -22.497 -17.768  0.00  0.00    +0.166 C 
ATOM      9  C   UNL     1      33.551 -20.996 -19.777  0.00  0.00    +0.310 C 
ATOM     10  H   UNL     1      34.931 -22.001 -18.632  0.00  0.00    +0.158 HD
ATOM     11  H   UNL     1      35.542 -20.864 -20.195  0.00  0.00    +0.156 HD
ENDROOT
BRANCH   5  12
ATOM     12  C   UNL     1      34.679 -19.686 -21.630  0.00  0.00    +0.052 C 
ATOM     13  C   UNL     1      34.751 -17.457 -22.560  0.00  0.00    +0.073 C 
ATOM     14  C   UNL     1      34.737 -18.304 -21.452  0.00  0.00    +0.019 C 
ATOM     15  C   UNL     1      34.636 -20.222 -22.917  0.00  0.00    +0.015 C 
ATOM     16  C   UNL     1      34.709 -17.993 -23.847  0.00  0.00    +0.004 C 
ATOM     17  C   UNL     1      34.651 -19.376 -24.026  0.00  0.00    +0.001 C 
BRANCH  13  21
ATOM     18  F   UNL     1      35.753 -15.366 -23.147  0.00  0.00    -0.166 F 
ATOM     19  F   UNL     1      33.639 -15.342 -22.661  0.00  0.00    -0.166 F 
ATOM     20  F   UNL     1      35.112 -15.627 -21.086  0.00  0.00    -0.166 F 
ATOM     21  C   UNL     1      34.813 -15.979 -22.371  0.00  0.00    +0.419 C 
ENDBRANCH  13  21
ENDBRANCH   5  12
BRANCH   6  22
ATOM     22  C   UNL     1      32.536 -24.773 -14.682  0.00  0.00    +0.056 C 
BRANCH  22  23
ATOM     23  C   UNL     1      33.548 -24.378 -13.606  0.00  0.00    +0.093 C 
BRANCH  23  25
ATOM     24  S   UNL     1      37.580 -26.464 -14.566  0.00  0.00    -0.101 S 
ATOM     25  N   UNL     1      34.822 -24.982 -13.856  0.00  0.00    -0.320 N 
ATOM     26  N   UNL     1      35.942 -23.614 -12.261  0.00  0.00    -0.233 NA
ATOM     27  N   UNL     1      38.316 -23.803 -11.833  0.00  0.00    -0.247 NA
ATOM     28  C   UNL     1      35.997 -24.594 -13.184  0.00  0.00    +0.118 C 
ATOM     29  C   UNL     1      37.215 -25.206 -13.456  0.00  0.00    +0.145 C 
ATOM     30  C   UNL     1      38.354 -24.790 -12.767  0.00  0.00    +0.073 C 
ATOM     31  C   UNL     1      39.514 -25.519 -13.167  0.00  0.00    +0.022 C 
ATOM     32  C   UNL     1      39.234 -26.456 -14.135  0.00  0.00    +0.033 C 
ATOM     33  C   UNL     1      37.093 -23.282 -11.647  0.00  0.00    +0.251 C 
ATOM     34  H   UNL     1      34.879 -25.698 -14.528  0.00  0.00    +0.148 HD
ENDBRANCH  23  25
ENDBRANCH  22  23
ENDBRANCH   6  22
TORSDOF 5
ENDMDL
MODEL 6
REMARK VINA RESULT:     -11.0      5.999     11.484
REMARK  Name = 24880024
REMARK  5 active torsions:
REMARK  status: ('A' for Active; 'I' for Inactive)
REMARK    1  A    between atoms: N_5  and  C_12
REMARK    2  A    between atoms: C_6  and  C_22
REMARK    3  A    between atoms: C_13  and  C_21
REMARK    4  A    between atoms: C_22  and  C_23
REMARK    5  A    between atoms: C_23  and  N_25
REMARK                            x       y       z     vdW  Elec       q    Type
REMARK                         _______ _______ _______ _____ _____    ______ ____
ROOT
ATOM      1  S   UNL     1      33.559 -23.922 -15.892  0.00  0.00    -0.056 S 
ATOM      2  O   UNL     1      32.858 -21.004 -19.469  0.00  0.00    -0.252 OA
ATOM      3  N   UNL     1      31.739 -22.696 -17.260  0.00  0.00    -0.223 NA
ATOM      4  N   UNL     1      34.027 -22.331 -17.922  0.00  0.00    -0.248 N 
ATOM      5  N   UNL     1      35.193 -21.116 -19.539  0.00  0.00    -0.268 N 
ATOM      6  C   UNL     1      31.921 -24.159 -15.442  0.00  0.00    +0.031 C 
ATOM      7  C   UNL     1      31.102 -23.432 -16.280  0.00  0.00    +0.103 C 
ATOM      8  C   UNL     1      33.037 -22.878 -17.151  0.00  0.00    +0.166 C 
ATOM      9  C   UNL     1      33.922 -21.431 -19.032  0.00  0.00    +0.310 C 
ATOM     10  H   UNL     1      34.944 -22.593 -17.679  0.00  0.00    +0.158 HD
ATOM     11  H   UNL     1      35.957 -21.537 -19.082  0.00  0.00    +0.156 HD
ENDROOT
BRANCH   5  12
ATOM     12  C   UNL     1      35.511 -20.266 -20.624  0.00  0.00    +0.052 C 
ATOM     13  C   UNL     1      35.026 -19.425 -22.836  0.00  0.00    +0.073 C 
ATOM     14  C   UNL     1      34.713 -20.264 -21.767  0.00  0.00    +0.019 C 
ATOM     15  C   UNL     1      36.624 -19.428 -20.550  0.00  0.00    +0.015 C 
ATOM     16  C   UNL     1      36.139 -18.588 -22.762  0.00  0.00    +0.004 C 
ATOM     17  C   UNL     1      36.938 -18.589 -21.619  0.00  0.00    +0.001 C 
BRANCH  13  21
ATOM     18  F   UNL     1      32.837 -19.530 -23.796  0.00  0.00    -0.166 F 
ATOM     19  F   UNL     1      34.297 -18.288 -24.810  0.00  0.00    -0.166 F 
ATOM     20  F   UNL     1      34.463 -20.454 -24.904  0.00  0.00    -0.166 F 
ATOM     21  C   UNL     1      34.172 -19.423 -24.059  0.00  0.00    +0.419 C 
ENDBRANCH  13  21
ENDBRANCH   5  12
BRANCH   6  22
ATOM     22  C   UNL     1      31.566 -25.057 -14.282  0.00  0.00    +0.056 C 
BRANCH  22  23
ATOM     23  C   UNL     1      32.514 -24.905 -13.094  0.00  0.00    +0.093 C 
BRANCH  23  25
ATOM     24  S   UNL     1      36.772 -26.137 -14.466  0.00  0.00    -0.101 S 
ATOM     25  N   UNL     1      33.852 -25.264 -13.456  0.00  0.00    -0.320 N 
ATOM     26  N   UNL     1      34.764 -24.532 -11.383  0.00  0.00    -0.233 NA
ATOM     27  N   UNL     1      37.126 -24.684 -10.881  0.00  0.00    -0.247 NA
ATOM     28  C   UNL     1      34.954 -25.074 -12.602  0.00  0.00    +0.118 C 
ATOM     29  C   UNL     1      36.238 -25.436 -12.993  0.00  0.00    +0.145 C 
ATOM     30  C   UNL     1      37.301 -25.229 -12.114  0.00  0.00    +0.073 C 
ATOM     31  C   UNL     1      38.544 -25.655 -12.672  0.00  0.00    +0.022 C 
ATOM     32  C   UNL     1      38.398 -26.166 -13.941  0.00  0.00    +0.033 C 
ATOM     33  C   UNL     1      35.850 -24.371 -10.604  0.00  0.00    +0.251 C 
ATOM     34  H   UNL     1      34.008 -25.659 -14.344  0.00  0.00    +0.148 HD
ENDBRANCH  23  25
ENDBRANCH  22  23
ENDBRANCH   6  22
TORSDOF 5
ENDMDL
MODEL 7
REMARK VINA RESULT:     -10.9      2.289      2.926
REMARK  Name = 24880024
REMARK  5 active torsions:
REMARK  status: ('A' for Active; 'I' for Inactive)
REMARK    1  A    between atoms: N_5  and  C_12
REMARK    2  A    between atoms: C_6  and  C_22
REMARK    3  A    between atoms: C_13  and  C_21
REMARK    4  A    between atoms: C_22  and  C_23
REMARK    5  A    between atoms: C_23  and  N_25
REMARK                            x       y       z     vdW  Elec       q    Type
REMARK                         _______ _______ _______ _____ _____    ______ ____
ROOT
ATOM      1  S   UNL     1      36.415 -19.830 -20.620  0.00  0.00    -0.056 S 
ATOM      2  O   UNL     1      35.089 -22.745 -17.222  0.00  0.00    -0.252 OA
ATOM      3  N   UNL     1      34.436 -21.236 -19.730  0.00  0.00    -0.223 NA
ATOM      4  N   UNL     1      36.483 -21.318 -18.463  0.00  0.00    -0.248 N 
ATOM      5  N   UNL     1      37.291 -22.358 -16.536  0.00  0.00    -0.268 N 
ATOM      6  C   UNL     1      34.945 -19.795 -21.503  0.00  0.00    +0.031 C 
ATOM      7  C   UNL     1      34.012 -20.598 -20.879  0.00  0.00    +0.103 C 
ATOM      8  C   UNL     1      35.687 -20.904 -19.497  0.00  0.00    +0.166 C 
ATOM      9  C   UNL     1      36.179 -22.203 -17.378  0.00  0.00    +0.310 C 
ATOM     10  H   UNL     1      37.399 -20.955 -18.465  0.00  0.00    +0.158 HD
ATOM     11  H   UNL     1      38.100 -21.858 -16.791  0.00  0.00    +0.156 HD
ENDROOT
BRANCH   5  12
ATOM     12  C   UNL     1      37.393 -23.145 -15.364  0.00  0.00    +0.052 C 
ATOM     13  C   UNL     1      38.388 -24.990 -14.163  0.00  0.00    +0.073 C 
ATOM     14  C   UNL     1      38.287 -24.215 -15.317  0.00  0.00    +0.019 C 
ATOM     15  C   UNL     1      36.600 -22.851 -14.256  0.00  0.00    +0.015 C 
ATOM     16  C   UNL     1      37.594 -24.695 -13.054  0.00  0.00    +0.004 C 
ATOM     17  C   UNL     1      36.700 -23.626 -13.100  0.00  0.00    +0.001 C 
BRANCH  13  21
ATOM     18  F   UNL     1      40.027 -26.225 -12.934  0.00  0.00    -0.166 F 
ATOM     19  F   UNL     1      38.745 -27.353 -14.272  0.00  0.00    -0.166 F 
ATOM     20  F   UNL     1      40.297 -26.065 -15.085  0.00  0.00    -0.166 F 
ATOM     21  C   UNL     1      39.343 -26.134 -14.112  0.00  0.00    +0.419 C 
ENDBRANCH  13  21
ENDBRANCH   5  12
BRANCH   6  22
ATOM     22  C   UNL     1      34.823 -18.966 -22.758  0.00  0.00    +0.056 C 
BRANCH  22  23
ATOM     23  C   UNL     1      35.716 -17.726 -22.747  0.00  0.00    +0.093 C 
BRANCH  23  25
ATOM     24  S   UNL     1      33.492 -14.111 -20.875  0.00  0.00    -0.101 S 
ATOM     25  N   UNL     1      35.011 -16.592 -22.233  0.00  0.00    -0.320 N 
ATOM     26  N   UNL     1      34.342 -15.848 -24.392  0.00  0.00    -0.233 NA
ATOM     27  N   UNL     1      33.005 -13.858 -24.720  0.00  0.00    -0.247 NA
ATOM     28  C   UNL     1      34.337 -15.671 -23.056  0.00  0.00    +0.118 C 
ATOM     29  C   UNL     1      33.664 -14.581 -22.517  0.00  0.00    +0.145 C 
ATOM     30  C   UNL     1      33.010 -13.694 -23.371  0.00  0.00    +0.073 C 
ATOM     31  C   UNL     1      32.373 -12.637 -22.654  0.00  0.00    +0.022 C 
ATOM     32  C   UNL     1      32.557 -12.743 -21.295  0.00  0.00    +0.033 C 
ATOM     33  C   UNL     1      33.682 -14.940 -25.136  0.00  0.00    +0.251 C 
ATOM     34  H   UNL     1      34.999 -16.448 -21.259  0.00  0.00    +0.148 HD
ENDBRANCH  23  25
ENDBRANCH  22  23
ENDBRANCH   6  22
TORSDOF 5
ENDMDL
MODEL 8
REMARK VINA RESULT:     -10.7      7.734     13.600
REMARK  Name = 24880024
REMARK  5 active torsions:
REMARK  status: ('A' for Active; 'I' for Inactive)
REMARK    1  A    between atoms: N_5  and  C_12
REMARK    2  A    between atoms: C_6  and  C_22
REMARK    3  A    between atoms: C_13  and  C_21
REMARK    4  A    between atoms: C_22  and  C_23
REMARK    5  A    between atoms: C_23  and  N_25
REMARK                            x       y       z     vdW  Elec       q    Type
REMARK                         _______ _______ _______ _____ _____    ______ ____
ROOT
ATOM      1  S   UNL     1      34.900 -16.353 -22.195  0.00  0.00    -0.056 S 
ATOM      2  O   UNL     1      33.334 -12.790 -24.774  0.00  0.00    -0.252 OA
ATOM      3  N   UNL     1      34.060 -15.691 -24.549  0.00  0.00    -0.223 NA
ATOM      4  N   UNL     1      34.149 -13.941 -22.895  0.00  0.00    -0.248 N 
ATOM      5  N   UNL     1      33.671 -11.660 -22.754  0.00  0.00    -0.268 N 
ATOM      6  C   UNL     1      34.821 -17.578 -23.392  0.00  0.00    +0.031 C 
ATOM      7  C   UNL     1      34.355 -17.040 -24.574  0.00  0.00    +0.103 C 
ATOM      8  C   UNL     1      34.309 -15.225 -23.345  0.00  0.00    +0.166 C 
ATOM      9  C   UNL     1      33.679 -12.783 -23.597  0.00  0.00    +0.310 C 
ATOM     10  H   UNL     1      34.393 -13.791 -21.953  0.00  0.00    +0.158 HD
ATOM     11  H   UNL     1      33.977 -11.811 -21.830  0.00  0.00    +0.156 HD
ENDROOT
BRANCH   5  12
ATOM     12  C   UNL     1      33.277 -10.339 -23.068  0.00  0.00    +0.052 C 
ATOM     13  C   UNL     1      33.850  -8.068 -23.662  0.00  0.00    +0.073 C 
ATOM     14  C   UNL     1      34.240  -9.371 -23.351  0.00  0.00    +0.019 C 
ATOM     15  C   UNL     1      31.923 -10.004 -23.097  0.00  0.00    +0.015 C 
ATOM     16  C   UNL     1      32.497  -7.734 -23.690  0.00  0.00    +0.004 C 
ATOM     17  C   UNL     1      31.533  -8.701 -23.408  0.00  0.00    +0.001 C 
BRANCH  13  21
ATOM     18  F   UNL     1      35.475  -7.190 -25.182  0.00  0.00    -0.166 F 
ATOM     19  F   UNL     1      34.388  -5.758 -23.969  0.00  0.00    -0.166 F 
ATOM     20  F   UNL     1      35.900  -7.026 -23.057  0.00  0.00    -0.166 F 
ATOM     21  C   UNL     1      34.880  -7.032 -23.964  0.00  0.00    +0.419 C 
ENDBRANCH  13  21
ENDBRANCH   5  12
BRANCH   6  22
ATOM     22  C   UNL     1      35.232 -18.994 -23.070  0.00  0.00    +0.056 C 
BRANCH  22  23
ATOM     23  C   UNL     1      35.769 -19.154 -21.648  0.00  0.00    +0.093 C 
BRANCH  23  25
ATOM     24  S   UNL     1      32.742 -21.674 -19.197  0.00  0.00    -0.101 S 
ATOM     25  N   UNL     1      34.887 -19.955 -20.854  0.00  0.00    -0.320 N 
ATOM     26  N   UNL     1      36.653 -20.834 -19.522  0.00  0.00    -0.233 NA
ATOM     27  N   UNL     1      36.262 -22.413 -17.732  0.00  0.00    -0.247 NA
ATOM     28  C   UNL     1      35.337 -20.781 -19.807  0.00  0.00    +0.118 C 
ATOM     29  C   UNL     1      34.448 -21.544 -19.060  0.00  0.00    +0.145 C 
ATOM     30  C   UNL     1      34.938 -22.349 -18.032  0.00  0.00    +0.073 C 
ATOM     31  C   UNL     1      33.894 -23.062 -17.370  0.00  0.00    +0.022 C 
ATOM     32  C   UNL     1      32.655 -22.788 -17.903  0.00  0.00    +0.033 C 
ATOM     33  C   UNL     1      37.032 -21.638 -18.512  0.00  0.00    +0.251 C 
ATOM     34  H   UNL     1      33.923 -19.929 -21.051  0.00  0.00    +0.148 HD
ENDBRANCH  23  25
ENDBRANCH  22  23
ENDBRANCH   6  22
TORSDOF 5
ENDMDL
MODEL 9
REMARK VINA RESULT:     -10.5      8.677     14.309
REMARK  Name = 24880024
REMARK  5 active torsions:
REMARK  status: ('A' for Active; 'I' for Inactive)
REMARK    1  A    between atoms: N_5  and  C_12
REMARK    2  A    between atoms: C_6  and  C_22
REMARK    3  A    between atoms: C_13  and  C_21
REMARK    4  A    between atoms: C_22  and  C_23
REMARK    5  A    between atoms: C_23  and  N_25
REMARK                            x       y       z     vdW  Elec       q    Type
REMARK                         _______ _______ _______ _____ _____    ______ ____
ROOT
ATOM      1  S   UNL     1      34.091 -14.596 -22.769  0.00  0.00    -0.056 S 
ATOM      2  O   UNL     1      32.533 -10.460 -24.277  0.00  0.00    -0.252 OA
ATOM      3  N   UNL     1      33.167 -13.339 -24.831  0.00  0.00    -0.223 NA
ATOM      4  N   UNL     1      33.394 -12.069 -22.796  0.00  0.00    -0.248 N 
ATOM      5  N   UNL     1      33.003  -9.889 -22.058  0.00  0.00    -0.268 N 
ATOM      6  C   UNL     1      33.914 -15.474 -24.232  0.00  0.00    +0.031 C 
ATOM      7  C   UNL     1      33.413 -14.643 -25.212  0.00  0.00    +0.103 C 
ATOM      8  C   UNL     1      33.487 -13.199 -23.564  0.00  0.00    +0.166 C 
ATOM      9  C   UNL     1      32.932 -10.761 -23.156  0.00  0.00    +0.310 C 
ATOM     10  H   UNL     1      33.685 -12.169 -21.861  0.00  0.00    +0.158 HD
ATOM     11  H   UNL     1      33.346 -10.276 -21.220  0.00  0.00    +0.156 HD
ENDROOT
BRANCH   5  12
ATOM     12  C   UNL     1      32.640  -8.522 -22.006  0.00  0.00    +0.052 C 
ATOM     13  C   UNL     1      32.688  -6.307 -22.969  0.00  0.00    +0.073 C 
ATOM     14  C   UNL     1      33.046  -7.654 -23.020  0.00  0.00    +0.019 C 
ATOM     15  C   UNL     1      31.877  -8.043 -20.942  0.00  0.00    +0.015 C 
ATOM     16  C   UNL     1      31.924  -5.828 -21.905  0.00  0.00    +0.004 C 
ATOM     17  C   UNL     1      31.518  -6.696 -20.891  0.00  0.00    +0.001 C 
BRANCH  13  21
ATOM     18  F   UNL     1      32.791  -4.074 -23.820  0.00  0.00    -0.166 F 
ATOM     19  F   UNL     1      34.472  -5.372 -24.259  0.00  0.00    -0.166 F 
ATOM     20  F   UNL     1      32.568  -5.687 -25.261  0.00  0.00    -0.166 F 
ATOM     21  C   UNL     1      33.121  -5.378 -24.053  0.00  0.00    +0.419 C 
ENDBRANCH  13  21
ENDBRANCH   5  12
BRANCH   6  22
ATOM     22  C   UNL     1      34.289 -16.934 -24.300  0.00  0.00    +0.056 C 
BRANCH  22  23
ATOM     23  C   UNL     1      35.214 -17.370 -23.164  0.00  0.00    +0.093 C 
BRANCH  23  25
ATOM     24  S   UNL     1      32.988 -20.536 -20.605  0.00  0.00    -0.101 S 
ATOM     25  N   UNL     1      34.587 -18.362 -22.344  0.00  0.00    -0.320 N 
ATOM     26  N   UNL     1      36.620 -18.958 -21.261  0.00  0.00    -0.233 NA
ATOM     27  N   UNL     1      36.725 -20.672 -19.556  0.00  0.00    -0.247 NA
ATOM     28  C   UNL     1      35.293 -19.140 -21.409  0.00  0.00    +0.118 C 
ATOM     29  C   UNL     1      34.646 -20.094 -20.631  0.00  0.00    +0.145 C 
ATOM     30  C   UNL     1      35.386 -20.843 -19.717  0.00  0.00    +0.073 C 
ATOM     31  C   UNL     1      34.570 -21.772 -19.005  0.00  0.00    +0.022 C 
ATOM     32  C   UNL     1      33.250 -21.709 -19.391  0.00  0.00    +0.033 C 
ATOM     33  C   UNL     1      37.249 -19.727 -20.353  0.00  0.00    +0.251 C 
ATOM     34  H   UNL     1      33.618 -18.507 -22.441  0.00  0.00    +0.148 HD
ENDBRANCH  23  25
ENDBRANCH  22  23
ENDBRANCH   6  22
TORSDOF 5
ENDMDL
