MODEL 1
REMARK VINA RESULT:     -12.0      0.000      0.000
REMARK  Name = 25011730
REMARK  4 active torsions:
REMARK  status: ('A' for Active; 'I' for Inactive)
REMARK    1  A    between atoms: N_1  and  C_15
REMARK    2  A    between atoms: N_2  and  C_22
REMARK    3  A    between atoms: C_21  and  N_27
REMARK    4  A    between atoms: N_27  and  S_29
REMARK                            x       y       z     vdW  Elec       q    Type
REMARK                         _______ _______ _______ _____ _____    ______ ____
ROOT
ATOM      1  N   UNL     1      37.576 -23.340 -14.665  0.00  0.00    -0.284 N 
ATOM      2  N   UNL     1      33.321 -23.232 -16.711  0.00  0.00    -0.247 N 
ATOM      3  N   UNL     1      35.426 -23.296 -15.676  0.00  0.00    -0.322 NA
ATOM      4  N   UNL     1      35.151 -22.317 -17.860  0.00  0.00    -0.170 NA
ATOM      5  C   UNL     1      36.739 -22.996 -15.748  0.00  0.00    +0.198 C 
ATOM      6  C   UNL     1      34.701 -22.934 -16.751  0.00  0.00    +0.150 C 
ATOM      7  C   UNL     1      37.324 -22.366 -16.827  0.00  0.00    +0.070 C 
ATOM      8  C   UNL     1      36.472 -22.047 -17.865  0.00  0.00    +0.116 C 
ATOM      9  H   UNL     1      38.341 -22.733 -14.549  0.00  0.00    +0.155 HD
ATOM     10  H   UNL     1      32.832 -22.949 -17.517  0.00  0.00    +0.165 HD
ENDROOT
BRANCH   1  15
ATOM     11 CL   UNL     1      39.699 -25.516 -14.927  0.00  0.00    -0.081 Cl
ATOM     12  O   UNL     1      35.595 -23.450 -12.561  0.00  0.00    -0.433 OA
ATOM     13  O   UNL     1      35.474 -25.207 -10.916  0.00  0.00    -0.435 OA
ATOM     14  C   UNL     1      36.567 -24.388 -12.733  0.00  0.00    +0.191 C 
ATOM     15  C   UNL     1      37.533 -24.380 -13.719  0.00  0.00    +0.098 C 
ATOM     16  C   UNL     1      36.497 -25.391 -11.794  0.00  0.00    +0.178 C 
ATOM     17  C   UNL     1      38.451 -25.434 -13.733  0.00  0.00    +0.074 C 
ATOM     18  C   UNL     1      37.391 -26.443 -11.788  0.00  0.00    +0.041 C 
ATOM     19  C   UNL     1      34.906 -23.976 -11.409  0.00  0.00    +0.429 C 
ATOM     20  C   UNL     1      38.380 -26.459 -12.774  0.00  0.00    +0.016 C 
ENDBRANCH   1  15
BRANCH   2  22
ATOM     21  C   UNL     1      30.318 -24.496 -14.954  0.00  0.00    +0.066 C 
ATOM     22  C   UNL     1      32.508 -23.856 -15.745  0.00  0.00    +0.059 C 
ATOM     23  C   UNL     1      31.124 -23.879 -15.910  0.00  0.00    +0.031 C 
ATOM     24  C   UNL     1      30.896 -25.090 -13.832  0.00  0.00    +0.016 C 
ATOM     25  C   UNL     1      33.087 -24.448 -14.624  0.00  0.00    +0.015 C 
ATOM     26  C   UNL     1      32.282 -25.066 -13.667  0.00  0.00    +0.003 C 
BRANCH  21  27
ATOM     27  N   UNL     1      28.900 -24.520 -15.123  0.00  0.00    -0.219 N 
ATOM     28  H   UNL     1      28.334 -25.097 -14.561  0.00  0.00    +0.173 HD
BRANCH  27  29
ATOM     29  S   UNL     1      28.208 -23.514 -16.337  0.00  0.00    +0.056 S 
ATOM     30  O   UNL     1      29.205 -22.544 -16.751  0.00  0.00    -0.154 OA
ATOM     31  O   UNL     1      27.496 -24.304 -17.321  0.00  0.00    -0.154 OA
ATOM     32  C   UNL     1      27.004 -22.634 -15.368  0.00  0.00    +0.200 C 
ENDBRANCH  27  29
ENDBRANCH  21  27
ENDBRANCH   2  22
TORSDOF 4
ENDMDL
MODEL 2
REMARK VINA RESULT:     -11.3      1.744      2.265
REMARK  Name = 25011730
REMARK  4 active torsions:
REMARK  status: ('A' for Active; 'I' for Inactive)
REMARK    1  A    between atoms: N_1  and  C_15
REMARK    2  A    between atoms: N_2  and  C_22
REMARK    3  A    between atoms: C_21  and  N_27
REMARK    4  A    between atoms: N_27  and  S_29
REMARK                            x       y       z     vdW  Elec       q    Type
REMARK                         _______ _______ _______ _____ _____    ______ ____
ROOT
ATOM      1  N   UNL     1      37.482 -23.040 -15.086  0.00  0.00    -0.284 N 
ATOM      2  N   UNL     1      33.170 -23.250 -17.000  0.00  0.00    -0.247 N 
ATOM      3  N   UNL     1      35.304 -23.156 -16.029  0.00  0.00    -0.322 NA
ATOM      4  N   UNL     1      34.915 -22.302 -18.249  0.00  0.00    -0.170 NA
ATOM      5  C   UNL     1      36.597 -22.793 -16.157  0.00  0.00    +0.198 C 
ATOM      6  C   UNL     1      34.530 -22.885 -17.098  0.00  0.00    +0.150 C 
ATOM      7  C   UNL     1      37.116 -22.189 -17.284  0.00  0.00    +0.070 C 
ATOM      8  C   UNL     1      36.220 -21.965 -18.308  0.00  0.00    +0.116 C 
ATOM      9  H   UNL     1      38.217 -22.390 -15.024  0.00  0.00    +0.155 HD
ATOM     10  H   UNL     1      32.643 -23.033 -17.803  0.00  0.00    +0.165 HD
ENDROOT
BRANCH   1  15
ATOM     11 CL   UNL     1      35.153 -23.091 -13.114  0.00  0.00    -0.081 Cl
ATOM     12  O   UNL     1      39.638 -24.956 -14.881  0.00  0.00    -0.433 OA
ATOM     13  O   UNL     1      39.756 -26.674 -13.195  0.00  0.00    -0.435 OA
ATOM     14  C   UNL     1      38.572 -24.924 -14.034  0.00  0.00    +0.191 C 
ATOM     15  C   UNL     1      37.521 -24.033 -14.090  0.00  0.00    +0.098 C 
ATOM     16  C   UNL     1      38.640 -25.906 -13.071  0.00  0.00    +0.178 C 
ATOM     17  C   UNL     1      36.514 -24.158 -13.129  0.00  0.00    +0.074 C 
ATOM     18  C   UNL     1      37.659 -26.049 -12.111  0.00  0.00    +0.041 C 
ATOM     19  C   UNL     1      40.384 -26.067 -14.343  0.00  0.00    +0.429 C 
ATOM     20  C   UNL     1      36.583 -25.160 -12.146  0.00  0.00    +0.016 C 
ENDBRANCH   1  15
BRANCH   2  22
ATOM     21  C   UNL     1      30.281 -24.418 -15.000  0.00  0.00    +0.066 C 
ATOM     22  C   UNL     1      32.419 -23.866 -15.980  0.00  0.00    +0.059 C 
ATOM     23  C   UNL     1      31.026 -23.810 -16.010  0.00  0.00    +0.031 C 
ATOM     24  C   UNL     1      30.930 -25.083 -13.959  0.00  0.00    +0.016 C 
ATOM     25  C   UNL     1      33.068 -24.530 -14.940  0.00  0.00    +0.015 C 
ATOM     26  C   UNL     1      32.324 -25.139 -13.929  0.00  0.00    +0.003 C 
BRANCH  21  27
ATOM     27  N   UNL     1      28.855 -24.361 -15.031  0.00  0.00    -0.219 N 
ATOM     28  H   UNL     1      28.316 -24.822 -14.348  0.00  0.00    +0.173 HD
BRANCH  27  29
ATOM     29  S   UNL     1      28.104 -23.465 -16.295  0.00  0.00    +0.056 S 
ATOM     30  O   UNL     1      29.041 -22.462 -16.765  0.00  0.00    -0.154 OA
ATOM     31  O   UNL     1      27.438 -24.347 -17.232  0.00  0.00    -0.154 OA
ATOM     32  C   UNL     1      26.850 -22.605 -15.370  0.00  0.00    +0.200 C 
ENDBRANCH  27  29
ENDBRANCH  21  27
ENDBRANCH   2  22
TORSDOF 4
ENDMDL
MODEL 3
REMARK VINA RESULT:     -10.8      3.416      7.541
REMARK  Name = 25011730
REMARK  4 active torsions:
REMARK  status: ('A' for Active; 'I' for Inactive)
REMARK    1  A    between atoms: N_1  and  C_15
REMARK    2  A    between atoms: N_2  and  C_22
REMARK    3  A    between atoms: C_21  and  N_27
REMARK    4  A    between atoms: N_27  and  S_29
REMARK                            x       y       z     vdW  Elec       q    Type
REMARK                         _______ _______ _______ _____ _____    ______ ____
ROOT
ATOM      1  N   UNL     1      32.494 -23.450 -17.375  0.00  0.00    -0.284 N 
ATOM      2  N   UNL     1      37.027 -22.567 -16.387  0.00  0.00    -0.247 N 
ATOM      3  N   UNL     1      34.773 -23.018 -16.858  0.00  0.00    -0.322 NA
ATOM      4  N   UNL     1      36.131 -21.759 -18.400  0.00  0.00    -0.170 NA
ATOM      5  C   UNL     1      33.739 -22.879 -17.713  0.00  0.00    +0.198 C 
ATOM      6  C   UNL     1      35.923 -22.442 -17.258  0.00  0.00    +0.150 C 
ATOM      7  C   UNL     1      33.823 -22.203 -18.914  0.00  0.00    +0.070 C 
ATOM      8  C   UNL     1      35.056 -21.659 -19.207  0.00  0.00    +0.116 C 
ATOM      9  H   UNL     1      31.962 -23.727 -18.155  0.00  0.00    +0.155 HD
ATOM     10  H   UNL     1      37.845 -22.131 -16.720  0.00  0.00    +0.165 HD
ENDROOT
BRANCH   1  15
ATOM     11 CL   UNL     1      34.185 -24.804 -15.224  0.00  0.00    -0.081 Cl
ATOM     12  O   UNL     1      29.739 -22.739 -16.863  0.00  0.00    -0.433 OA
ATOM     13  O   UNL     1      28.608 -23.150 -14.774  0.00  0.00    -0.435 OA
ATOM     14  C   UNL     1      30.545 -23.345 -15.948  0.00  0.00    +0.191 C 
ATOM     15  C   UNL     1      31.863 -23.703 -16.143  0.00  0.00    +0.098 C 
ATOM     16  C   UNL     1      29.899 -23.579 -14.756  0.00  0.00    +0.178 C 
ATOM     17  C   UNL     1      32.531 -24.317 -15.081  0.00  0.00    +0.074 C 
ATOM     18  C   UNL     1      30.537 -24.185 -13.692  0.00  0.00    +0.041 C 
ATOM     19  C   UNL     1      28.513 -22.620 -16.112  0.00  0.00    +0.429 C 
ATOM     20  C   UNL     1      31.872 -24.557 -13.862  0.00  0.00    +0.016 C 
ENDBRANCH   1  15
BRANCH   2  22
ATOM     21  C   UNL     1      38.148 -24.949 -13.784  0.00  0.00    +0.066 C 
ATOM     22  C   UNL     1      37.188 -23.192 -15.136  0.00  0.00    +0.059 C 
ATOM     23  C   UNL     1      37.988 -24.329 -15.023  0.00  0.00    +0.031 C 
ATOM     24  C   UNL     1      37.508 -24.432 -12.658  0.00  0.00    +0.016 C 
ATOM     25  C   UNL     1      36.548 -22.676 -14.010  0.00  0.00    +0.015 C 
ATOM     26  C   UNL     1      36.707 -23.295 -12.771  0.00  0.00    +0.003 C 
BRANCH  21  27
ATOM     27  N   UNL     1      38.968 -26.113 -13.668  0.00  0.00    -0.219 N 
ATOM     28  H   UNL     1      38.625 -26.932 -13.245  0.00  0.00    +0.173 HD
BRANCH  27  29
ATOM     29  S   UNL     1      40.572 -26.042 -14.289  0.00  0.00    +0.056 S 
ATOM     30  O   UNL     1      40.549 -26.485 -15.671  0.00  0.00    -0.154 OA
ATOM     31  O   UNL     1      41.215 -24.796 -13.925  0.00  0.00    -0.154 OA
ATOM     32  C   UNL     1      41.333 -27.344 -13.344  0.00  0.00    +0.200 C 
ENDBRANCH  27  29
ENDBRANCH  21  27
ENDBRANCH   2  22
TORSDOF 4
ENDMDL
MODEL 4
REMARK VINA RESULT:     -10.4      3.899      7.335
REMARK  Name = 25011730
REMARK  4 active torsions:
REMARK  status: ('A' for Active; 'I' for Inactive)
REMARK    1  A    between atoms: N_1  and  C_15
REMARK    2  A    between atoms: N_2  and  C_22
REMARK    3  A    between atoms: C_21  and  N_27
REMARK    4  A    between atoms: N_27  and  S_29
REMARK                            x       y       z     vdW  Elec       q    Type
REMARK                         _______ _______ _______ _____ _____    ______ ____
ROOT
ATOM      1  N   UNL     1      32.401 -23.577 -17.019  0.00  0.00    -0.284 N 
ATOM      2  N   UNL     1      36.998 -22.704 -16.383  0.00  0.00    -0.247 N 
ATOM      3  N   UNL     1      34.714 -23.149 -16.678  0.00  0.00    -0.322 NA
ATOM      4  N   UNL     1      35.972 -21.966 -18.359  0.00  0.00    -0.170 NA
ATOM      5  C   UNL     1      33.624 -23.032 -17.465  0.00  0.00    +0.198 C 
ATOM      6  C   UNL     1      35.837 -22.601 -17.180  0.00  0.00    +0.150 C 
ATOM      7  C   UNL     1      33.629 -22.405 -18.695  0.00  0.00    +0.070 C 
ATOM      8  C   UNL     1      34.843 -21.886 -19.094  0.00  0.00    +0.116 C 
ATOM      9  H   UNL     1      31.814 -23.878 -17.749  0.00  0.00    +0.155 HD
ATOM     10  H   UNL     1      37.795 -22.290 -16.789  0.00  0.00    +0.165 HD
ENDROOT
BRANCH   1  15
ATOM     11 CL   UNL     1      29.471 -22.810 -16.648  0.00  0.00    -0.081 Cl
ATOM     12  O   UNL     1      33.941 -24.653 -14.820  0.00  0.00    -0.433 OA
ATOM     13  O   UNL     1      33.057 -25.009 -12.606  0.00  0.00    -0.435 OA
ATOM     14  C   UNL     1      32.632 -24.291 -14.720  0.00  0.00    +0.191 C 
ATOM     15  C   UNL     1      31.855 -23.774 -15.737  0.00  0.00    +0.098 C 
ATOM     16  C   UNL     1      32.128 -24.494 -13.456  0.00  0.00    +0.178 C 
ATOM     17  C   UNL     1      30.526 -23.462 -15.442  0.00  0.00    +0.074 C 
ATOM     18  C   UNL     1      30.819 -24.193 -13.139  0.00  0.00    +0.041 C 
ATOM     19  C   UNL     1      34.203 -25.106 -13.476  0.00  0.00    +0.429 C 
ATOM     20  C   UNL     1      30.011 -23.669 -14.151  0.00  0.00    +0.016 C 
ENDBRANCH   1  15
BRANCH   2  22
ATOM     21  C   UNL     1      38.185 -25.055 -13.781  0.00  0.00    +0.066 C 
ATOM     22  C   UNL     1      37.241 -23.281 -15.122  0.00  0.00    +0.059 C 
ATOM     23  C   UNL     1      37.945 -24.482 -15.029  0.00  0.00    +0.031 C 
ATOM     24  C   UNL     1      37.723 -24.426 -12.624  0.00  0.00    +0.016 C 
ATOM     25  C   UNL     1      36.779 -22.653 -13.966  0.00  0.00    +0.015 C 
ATOM     26  C   UNL     1      37.019 -23.224 -12.717  0.00  0.00    +0.003 C 
BRANCH  21  27
ATOM     27  N   UNL     1      38.905 -26.284 -13.685  0.00  0.00    -0.219 N 
ATOM     28  H   UNL     1      38.479 -27.093 -13.322  0.00  0.00    +0.173 HD
BRANCH  27  29
ATOM     29  S   UNL     1      40.541 -26.312 -14.223  0.00  0.00    +0.056 S 
ATOM     30  O   UNL     1      41.294 -27.197 -13.354  0.00  0.00    -0.154 OA
ATOM     31  O   UNL     1      40.611 -26.460 -15.663  0.00  0.00    -0.154 OA
ATOM     32  C   UNL     1      41.033 -24.651 -13.820  0.00  0.00    +0.200 C 
ENDBRANCH  27  29
ENDBRANCH  21  27
ENDBRANCH   2  22
TORSDOF 4
ENDMDL
MODEL 5
REMARK VINA RESULT:     -10.2     15.150     17.765
REMARK  Name = 25011730
REMARK  4 active torsions:
REMARK  status: ('A' for Active; 'I' for Inactive)
REMARK    1  A    between atoms: N_1  and  C_15
REMARK    2  A    between atoms: N_2  and  C_22
REMARK    3  A    between atoms: C_21  and  N_27
REMARK    4  A    between atoms: N_27  and  S_29
REMARK                            x       y       z     vdW  Elec       q    Type
REMARK                         _______ _______ _______ _____ _____    ______ ____
ROOT
ATOM      1  N   UNL     1      31.792 -11.719 -20.921  0.00  0.00    -0.284 N 
ATOM      2  N   UNL     1      32.850  -7.119 -20.761  0.00  0.00    -0.247 N 
ATOM      3  N   UNL     1      32.332  -9.406 -20.863  0.00  0.00    -0.322 NA
ATOM      4  N   UNL     1      31.862  -8.117 -18.881  0.00  0.00    -0.170 NA
ATOM      5  C   UNL     1      31.821 -10.485 -20.236  0.00  0.00    +0.198 C 
ATOM      6  C   UNL     1      32.322  -8.271 -20.137  0.00  0.00    +0.150 C 
ATOM      7  C   UNL     1      31.319 -10.461 -18.951  0.00  0.00    +0.070 C 
ATOM      8  C   UNL     1      31.365  -9.237 -18.316  0.00  0.00    +0.116 C 
ATOM      9  H   UNL     1      31.046 -12.302 -20.653  0.00  0.00    +0.155 HD
ATOM     10  H   UNL     1      32.822  -6.314 -20.194  0.00  0.00    +0.165 HD
ENDROOT
BRANCH   1  15
ATOM     11 CL   UNL     1      31.948 -10.226 -23.579  0.00  0.00    -0.081 Cl
ATOM     12  O   UNL     1      33.285 -14.159 -20.503  0.00  0.00    -0.433 OA
ATOM     13  O   UNL     1      34.712 -15.165 -22.165  0.00  0.00    -0.435 OA
ATOM     14  C   UNL     1      33.310 -13.448 -21.664  0.00  0.00    +0.191 C 
ATOM     15  C   UNL     1      32.618 -12.280 -21.912  0.00  0.00    +0.098 C 
ATOM     16  C   UNL     1      34.125 -14.022 -22.612  0.00  0.00    +0.178 C 
ATOM     17  C   UNL     1      32.772 -11.691 -23.169  0.00  0.00    +0.074 C 
ATOM     18  C   UNL     1      34.293 -13.460 -23.862  0.00  0.00    +0.041 C 
ATOM     19  C   UNL     1      34.175 -15.247 -20.829  0.00  0.00    +0.429 C 
ATOM     20  C   UNL     1      33.604 -12.277 -24.139  0.00  0.00    +0.016 C 
ENDBRANCH   1  15
BRANCH   2  22
ATOM     21  C   UNL     1      33.252  -5.945 -24.249  0.00  0.00    +0.066 C 
ATOM     22  C   UNL     1      33.409  -6.896 -22.034  0.00  0.00    +0.059 C 
ATOM     23  C   UNL     1      32.700  -6.166 -22.987  0.00  0.00    +0.031 C 
ATOM     24  C   UNL     1      34.514  -6.453 -24.556  0.00  0.00    +0.016 C 
ATOM     25  C   UNL     1      34.670  -7.404 -22.341  0.00  0.00    +0.015 C 
ATOM     26  C   UNL     1      35.224  -7.183 -23.601  0.00  0.00    +0.003 C 
BRANCH  21  27
ATOM     27  N   UNL     1      32.526  -5.197 -25.225  0.00  0.00    -0.219 N 
ATOM     28  H   UNL     1      32.435  -5.526 -26.148  0.00  0.00    +0.173 HD
BRANCH  27  29
ATOM     29  S   UNL     1      31.817  -3.704 -24.744  0.00  0.00    +0.056 S 
ATOM     30  O   UNL     1      30.452  -3.961 -24.320  0.00  0.00    -0.154 OA
ATOM     31  O   UNL     1      32.720  -2.948 -23.900  0.00  0.00    -0.154 OA
ATOM     32  C   UNL     1      31.721  -2.879 -26.317  0.00  0.00    +0.200 C 
ENDBRANCH  27  29
ENDBRANCH  21  27
ENDBRANCH   2  22
TORSDOF 4
ENDMDL
MODEL 6
REMARK VINA RESULT:     -10.1      3.854      7.287
REMARK  Name = 25011730
REMARK  4 active torsions:
REMARK  status: ('A' for Active; 'I' for Inactive)
REMARK    1  A    between atoms: N_1  and  C_15
REMARK    2  A    between atoms: N_2  and  C_22
REMARK    3  A    between atoms: C_21  and  N_27
REMARK    4  A    between atoms: N_27  and  S_29
REMARK                            x       y       z     vdW  Elec       q    Type
REMARK                         _______ _______ _______ _____ _____    ______ ____
ROOT
ATOM      1  N   UNL     1      33.050 -22.900 -16.384  0.00  0.00    -0.284 N 
ATOM      2  N   UNL     1      33.931 -25.227 -12.371  0.00  0.00    -0.247 N 
ATOM      3  N   UNL     1      33.515 -24.062 -14.364  0.00  0.00    -0.322 NA
ATOM      4  N   UNL     1      31.823 -25.463 -13.373  0.00  0.00    -0.170 NA
ATOM      5  C   UNL     1      32.643 -23.772 -15.352  0.00  0.00    +0.198 C 
ATOM      6  C   UNL     1      33.046 -24.902 -13.421  0.00  0.00    +0.150 C 
ATOM      7  C   UNL     1      31.362 -24.282 -15.419  0.00  0.00    +0.070 C 
ATOM      8  C   UNL     1      31.003 -25.130 -14.391  0.00  0.00    +0.116 C 
ATOM      9  H   UNL     1      32.312 -22.378 -16.774  0.00  0.00    +0.155 HD
ATOM     10  H   UNL     1      33.546 -25.843 -11.705  0.00  0.00    +0.165 HD
ENDROOT
BRANCH   1  15
ATOM     11 CL   UNL     1      33.072 -22.362 -19.388  0.00  0.00    -0.081 Cl
ATOM     12  O   UNL     1      35.501 -22.844 -14.851  0.00  0.00    -0.433 OA
ATOM     13  O   UNL     1      37.670 -22.388 -15.798  0.00  0.00    -0.435 OA
ATOM     14  C   UNL     1      35.443 -22.614 -16.192  0.00  0.00    +0.191 C 
ATOM     15  C   UNL     1      34.301 -22.629 -16.967  0.00  0.00    +0.098 C 
ATOM     16  C   UNL     1      36.682 -22.354 -16.732  0.00  0.00    +0.178 C 
ATOM     17  C   UNL     1      34.441 -22.367 -18.332  0.00  0.00    +0.074 C 
ATOM     18  C   UNL     1      36.847 -22.093 -18.077  0.00  0.00    +0.041 C 
ATOM     19  C   UNL     1      36.916 -22.700 -14.609  0.00  0.00    +0.429 C 
ATOM     20  C   UNL     1      35.706 -22.101 -18.884  0.00  0.00    +0.016 C 
ENDBRANCH   1  15
BRANCH   2  22
ATOM     21  C   UNL     1      37.628 -25.292 -12.191  0.00  0.00    +0.066 C 
ATOM     22  C   UNL     1      35.256 -24.846 -12.088  0.00  0.00    +0.059 C 
ATOM     23  C   UNL     1      36.315 -25.668 -12.471  0.00  0.00    +0.031 C 
ATOM     24  C   UNL     1      37.883 -24.091 -11.528  0.00  0.00    +0.016 C 
ATOM     25  C   UNL     1      35.510 -23.646 -11.424  0.00  0.00    +0.015 C 
ATOM     26  C   UNL     1      36.823 -23.268 -11.144  0.00  0.00    +0.003 C 
BRANCH  21  27
ATOM     27  N   UNL     1      38.712 -26.134 -12.584  0.00  0.00    -0.219 N 
ATOM     28  H   UNL     1      39.085 -26.800 -11.964  0.00  0.00    +0.173 HD
BRANCH  27  29
ATOM     29  S   UNL     1      39.349 -25.951 -14.173  0.00  0.00    +0.056 S 
ATOM     30  O   UNL     1      38.499 -26.681 -15.095  0.00  0.00    -0.154 OA
ATOM     31  O   UNL     1      39.703 -24.570 -14.435  0.00  0.00    -0.154 OA
ATOM     32  C   UNL     1      40.858 -26.880 -14.017  0.00  0.00    +0.200 C 
ENDBRANCH  27  29
ENDBRANCH  21  27
ENDBRANCH   2  22
TORSDOF 4
ENDMDL
MODEL 7
REMARK VINA RESULT:      -9.5     14.116     17.067
REMARK  Name = 25011730
REMARK  4 active torsions:
REMARK  status: ('A' for Active; 'I' for Inactive)
REMARK    1  A    between atoms: N_1  and  C_15
REMARK    2  A    between atoms: N_2  and  C_22
REMARK    3  A    between atoms: C_21  and  N_27
REMARK    4  A    between atoms: N_27  and  S_29
REMARK                            x       y       z     vdW  Elec       q    Type
REMARK                         _______ _______ _______ _____ _____    ______ ____
ROOT
ATOM      1  N   UNL     1      32.613  -7.506 -20.827  0.00  0.00    -0.284 N 
ATOM      2  N   UNL     1      32.092 -12.198 -20.908  0.00  0.00    -0.247 N 
ATOM      3  N   UNL     1      32.360  -9.868 -20.889  0.00  0.00    -0.322 NA
ATOM      4  N   UNL     1      31.422 -11.021 -18.992  0.00  0.00    -0.170 NA
ATOM      5  C   UNL     1      32.211  -8.710 -20.212  0.00  0.00    +0.198 C 
ATOM      6  C   UNL     1      31.951 -10.968 -20.230  0.00  0.00    +0.150 C 
ATOM      7  C   UNL     1      31.683  -8.629 -18.939  0.00  0.00    +0.070 C 
ATOM      8  C   UNL     1      31.303  -9.828 -18.373  0.00  0.00    +0.116 C 
ATOM      9  H   UNL     1      32.918  -6.820 -20.190  0.00  0.00    +0.155 HD
ATOM     10  H   UNL     1      31.780 -12.975 -20.388  0.00  0.00    +0.165 HD
ENDROOT
BRANCH   1  15
ATOM     11 CL   UNL     1      30.418  -5.598 -21.752  0.00  0.00    -0.081 Cl
ATOM     12  O   UNL     1      34.674  -8.388 -22.653  0.00  0.00    -0.433 OA
ATOM     13  O   UNL     1      34.808  -7.710 -24.962  0.00  0.00    -0.435 OA
ATOM     14  C   UNL     1      33.668  -7.540 -23.002  0.00  0.00    +0.191 C 
ATOM     15  C   UNL     1      32.663  -7.090 -22.170  0.00  0.00    +0.098 C 
ATOM     16  C   UNL     1      33.745  -7.154 -24.321  0.00  0.00    +0.178 C 
ATOM     17  C   UNL     1      31.716  -6.218 -22.712  0.00  0.00    +0.074 C 
ATOM     18  C   UNL     1      32.820  -6.295 -24.880  0.00  0.00    +0.041 C 
ATOM     19  C   UNL     1      35.392  -8.492 -23.899  0.00  0.00    +0.429 C 
ATOM     20  C   UNL     1      31.793  -5.823 -24.059  0.00  0.00    +0.016 C 
ENDBRANCH   1  15
BRANCH   2  22
ATOM     21  C   UNL     1      33.094 -14.197 -23.859  0.00  0.00    +0.066 C 
ATOM     22  C   UNL     1      32.589 -12.533 -22.182  0.00  0.00    +0.059 C 
ATOM     23  C   UNL     1      32.601 -13.864 -22.598  0.00  0.00    +0.031 C 
ATOM     24  C   UNL     1      33.575 -13.198 -24.705  0.00  0.00    +0.016 C 
ATOM     25  C   UNL     1      33.070 -11.534 -23.027  0.00  0.00    +0.015 C 
ATOM     26  C   UNL     1      33.563 -11.866 -24.289  0.00  0.00    +0.003 C 
BRANCH  21  27
ATOM     27  N   UNL     1      33.106 -15.560 -24.285  0.00  0.00    -0.219 N 
ATOM     28  H   UNL     1      32.299 -15.978 -24.663  0.00  0.00    +0.173 HD
BRANCH  27  29
ATOM     29  S   UNL     1      34.569 -16.451 -24.118  0.00  0.00    +0.056 S 
ATOM     30  O   UNL     1      35.383 -16.222 -25.298  0.00  0.00    -0.154 OA
ATOM     31  O   UNL     1      35.131 -16.284 -22.793  0.00  0.00    -0.154 OA
ATOM     32  C   UNL     1      33.943 -18.111 -24.239  0.00  0.00    +0.200 C 
ENDBRANCH  27  29
ENDBRANCH  21  27
ENDBRANCH   2  22
TORSDOF 4
ENDMDL
MODEL 8
REMARK VINA RESULT:      -9.3      3.187      5.438
REMARK  Name = 25011730
REMARK  4 active torsions:
REMARK  status: ('A' for Active; 'I' for Inactive)
REMARK    1  A    between atoms: N_1  and  C_15
REMARK    2  A    between atoms: N_2  and  C_22
REMARK    3  A    between atoms: C_21  and  N_27
REMARK    4  A    between atoms: N_27  and  S_29
REMARK                            x       y       z     vdW  Elec       q    Type
REMARK                         _______ _______ _______ _____ _____    ______ ____
ROOT
ATOM      1  N   UNL     1      35.922 -22.836 -17.098  0.00  0.00    -0.284 N 
ATOM      2  N   UNL     1      33.550 -24.006 -13.186  0.00  0.00    -0.247 N 
ATOM      3  N   UNL     1      34.709 -23.428 -15.143  0.00  0.00    -0.322 NA
ATOM      4  N   UNL     1      35.832 -23.491 -13.012  0.00  0.00    -0.170 NA
ATOM      5  C   UNL     1      35.879 -23.063 -15.706  0.00  0.00    +0.198 C 
ATOM      6  C   UNL     1      34.757 -23.623 -13.811  0.00  0.00    +0.150 C 
ATOM      7  C   UNL     1      37.052 -22.893 -14.998  0.00  0.00    +0.070 C 
ATOM      8  C   UNL     1      36.968 -23.124 -13.641  0.00  0.00    +0.116 C 
ATOM      9  H   UNL     1      36.797 -23.034 -17.504  0.00  0.00    +0.155 HD
ATOM     10  H   UNL     1      33.632 -24.138 -12.214  0.00  0.00    +0.165 HD
ENDROOT
BRANCH   1  15
ATOM     11 CL   UNL     1      33.149 -24.096 -16.918  0.00  0.00    -0.081 Cl
ATOM     12  O   UNL     1      36.504 -20.814 -19.082  0.00  0.00    -0.433 OA
ATOM     13  O   UNL     1      34.900 -20.003 -20.688  0.00  0.00    -0.435 OA
ATOM     14  C   UNL     1      35.290 -21.416 -18.950  0.00  0.00    +0.191 C 
ATOM     15  C   UNL     1      34.963 -22.383 -18.022  0.00  0.00    +0.098 C 
ATOM     16  C   UNL     1      34.374 -20.952 -19.867  0.00  0.00    +0.178 C 
ATOM     17  C   UNL     1      33.658 -22.883 -18.040  0.00  0.00    +0.074 C 
ATOM     18  C   UNL     1      33.081 -21.431 -19.906  0.00  0.00    +0.041 C 
ATOM     19  C   UNL     1      36.250 -19.921 -20.186  0.00  0.00    +0.429 C 
ATOM     20  C   UNL     1      32.723 -22.410 -18.977  0.00  0.00    +0.016 C 
ENDBRANCH   1  15
BRANCH   2  22
ATOM     21  C   UNL     1      30.244 -23.421 -14.747  0.00  0.00    +0.066 C 
ATOM     22  C   UNL     1      32.252 -24.238 -13.681  0.00  0.00    +0.059 C 
ATOM     23  C   UNL     1      31.530 -23.193 -14.258  0.00  0.00    +0.031 C 
ATOM     24  C   UNL     1      29.681 -24.694 -14.660  0.00  0.00    +0.016 C 
ATOM     25  C   UNL     1      31.689 -25.510 -13.594  0.00  0.00    +0.015 C 
ATOM     26  C   UNL     1      30.404 -25.739 -14.083  0.00  0.00    +0.003 C 
BRANCH  21  27
ATOM     27  N   UNL     1      29.505 -22.352 -15.338  0.00  0.00    -0.219 N 
ATOM     28  H   UNL     1      29.894 -21.452 -15.417  0.00  0.00    +0.173 HD
BRANCH  27  29
ATOM     29  S   UNL     1      27.913 -22.681 -15.906  0.00  0.00    +0.056 S 
ATOM     30  O   UNL     1      27.070 -22.975 -14.763  0.00  0.00    -0.154 OA
ATOM     31  O   UNL     1      27.502 -21.702 -16.893  0.00  0.00    -0.154 OA
ATOM     32  C   UNL     1      28.192 -24.222 -16.750  0.00  0.00    +0.200 C 
ENDBRANCH  27  29
ENDBRANCH  21  27
ENDBRANCH   2  22
TORSDOF 4
ENDMDL
MODEL 9
REMARK VINA RESULT:      -9.2      3.717      7.683
REMARK  Name = 25011730
REMARK  4 active torsions:
REMARK  status: ('A' for Active; 'I' for Inactive)
REMARK    1  A    between atoms: N_1  and  C_15
REMARK    2  A    between atoms: N_2  and  C_22
REMARK    3  A    between atoms: C_21  and  N_27
REMARK    4  A    between atoms: N_27  and  S_29
REMARK                            x       y       z     vdW  Elec       q    Type
REMARK                         _______ _______ _______ _____ _____    ______ ____
ROOT
ATOM      1  N   UNL     1      32.988 -22.886 -15.936  0.00  0.00    -0.284 N 
ATOM      2  N   UNL     1      34.331 -25.314 -12.115  0.00  0.00    -0.247 N 
ATOM      3  N   UNL     1      33.686 -24.099 -14.015  0.00  0.00    -0.322 NA
ATOM      4  N   UNL     1      32.109 -25.495 -12.844  0.00  0.00    -0.170 NA
ATOM      5  C   UNL     1      32.700 -23.774 -14.878  0.00  0.00    +0.198 C 
ATOM      6  C   UNL     1      33.326 -24.952 -13.037  0.00  0.00    +0.150 C 
ATOM      7  C   UNL     1      31.413 -24.262 -14.790  0.00  0.00    +0.070 C 
ATOM      8  C   UNL     1      31.172 -25.127 -13.742  0.00  0.00    +0.116 C 
ATOM      9  H   UNL     1      32.216 -22.345 -16.218  0.00  0.00    +0.155 HD
ATOM     10  H   UNL     1      34.023 -25.938 -11.418  0.00  0.00    +0.165 HD
ENDROOT
BRANCH   1  15
ATOM     11 CL   UNL     1      35.616 -22.962 -14.387  0.00  0.00    -0.081 Cl
ATOM     12  O   UNL     1      32.955 -22.299 -18.767  0.00  0.00    -0.433 OA
ATOM     13  O   UNL     1      34.929 -21.838 -20.070  0.00  0.00    -0.435 OA
ATOM     14  C   UNL     1      34.091 -22.347 -18.019  0.00  0.00    +0.191 C 
ATOM     15  C   UNL     1      34.160 -22.623 -16.669  0.00  0.00    +0.098 C 
ATOM     16  C   UNL     1      35.218 -22.084 -18.763  0.00  0.00    +0.178 C 
ATOM     17  C   UNL     1      35.423 -22.628 -16.072  0.00  0.00    +0.074 C 
ATOM     18  C   UNL     1      36.477 -22.082 -18.198  0.00  0.00    +0.041 C 
ATOM     19  C   UNL     1      33.493 -21.975 -20.065  0.00  0.00    +0.429 C 
ATOM     20  C   UNL     1      36.575 -22.359 -16.832  0.00  0.00    +0.016 C 
ENDBRANCH   1  15
BRANCH   2  22
ATOM     21  C   UNL     1      38.018 -25.422 -12.441  0.00  0.00    +0.066 C 
ATOM     22  C   UNL     1      35.689 -24.959 -11.996  0.00  0.00    +0.059 C 
ATOM     23  C   UNL     1      36.673 -25.772 -12.559  0.00  0.00    +0.031 C 
ATOM     24  C   UNL     1      38.379 -24.259 -11.762  0.00  0.00    +0.016 C 
ATOM     25  C   UNL     1      36.050 -23.796 -11.317  0.00  0.00    +0.015 C 
ATOM     26  C   UNL     1      37.394 -23.445 -11.200  0.00  0.00    +0.003 C 
BRANCH  21  27
ATOM     27  N   UNL     1      39.025 -26.254 -13.017  0.00  0.00    -0.219 N 
ATOM     28  H   UNL     1      39.142 -27.186 -12.721  0.00  0.00    +0.173 HD
BRANCH  27  29
ATOM     29  S   UNL     1      40.032 -25.583 -14.243  0.00  0.00    +0.056 S 
ATOM     30  O   UNL     1      41.000 -24.706 -13.611  0.00  0.00    -0.154 OA
ATOM     31  O   UNL     1      40.462 -26.604 -15.177  0.00  0.00    -0.154 OA
ATOM     32  C   UNL     1      38.858 -24.539 -15.077  0.00  0.00    +0.200 C 
ENDBRANCH  27  29
ENDBRANCH  21  27
ENDBRANCH   2  22
TORSDOF 4
ENDMDL
