MODEL 1
REMARK VINA RESULT:     -11.5      0.000      0.000
REMARK  Name = 71183216
REMARK  5 active torsions:
REMARK  status: ('A' for Active; 'I' for Inactive)
REMARK    1  A    between atoms: N_3  and  C_24
REMARK    2  A    between atoms: C_10  and  C_13
REMARK    3  A    between atoms: C_18  and  O_19
REMARK    4  A    between atoms: O_19  and  C_23
REMARK    5  A    between atoms: C_24  and  C_27
REMARK                            x       y       z     vdW  Elec       q    Type
REMARK                         _______ _______ _______ _____ _____    ______ ____
ROOT
ATOM      1  O   UNL     1      34.795 -16.424 -25.195  0.00  0.00    -0.473 OA
ATOM      2  O   UNL     1      35.632 -14.987 -21.630  0.00  0.00    -0.270 OA
ATOM      3  N   UNL     1      34.015 -14.500 -23.241  0.00  0.00    -0.259 N 
ATOM      4  C   UNL     1      33.000 -15.022 -24.153  0.00  0.00    +0.142 C 
ATOM      5  C   UNL     1      34.755 -16.797 -22.805  0.00  0.00    +0.087 C 
ATOM      6  C   UNL     1      33.633 -15.611 -25.408  0.00  0.00    +0.227 C 
ATOM      7  C   UNL     1      34.843 -15.347 -22.501  0.00  0.00    +0.253 C 
ATOM      8  C   UNL     1      34.699 -17.267 -24.123  0.00  0.00    +0.143 C 
ATOM      9  C   UNL     1      34.765 -17.706 -21.742  0.00  0.00    +0.008 C 
ATOM     10  C   UNL     1      34.709 -19.075 -22.001  0.00  0.00    +0.000 C 
ATOM     11  C   UNL     1      34.666 -18.637 -24.379  0.00  0.00    +0.037 C 
ATOM     12  C   UNL     1      34.659 -19.540 -23.316  0.00  0.00    +0.003 C 
ENDROOT
BRANCH  10  13
ATOM     13  C   UNL     1      34.708 -20.018 -20.903  0.00  0.00    +0.000 C 
ATOM     14  C   UNL     1      33.501 -20.495 -20.393  0.00  0.00    +0.003 C 
ATOM     15  C   UNL     1      35.916 -20.446 -20.352  0.00  0.00    +0.003 C 
ATOM     16  C   UNL     1      33.501 -21.403 -19.334  0.00  0.00    +0.037 C 
ATOM     17  C   UNL     1      35.917 -21.354 -19.293  0.00  0.00    +0.037 C 
ATOM     18  C   UNL     1      34.709 -21.831 -18.783  0.00  0.00    +0.147 C 
BRANCH  18  19
ATOM     19  O   UNL     1      34.709 -22.716 -17.748  0.00  0.00    -0.404 OA
BRANCH  19  23
ATOM     20  F   UNL     1      32.440 -22.775 -17.471  0.00  0.00    -0.133 F 
ATOM     21  F   UNL     1      33.690 -24.206 -16.393  0.00  0.00    -0.133 F 
ATOM     22  F   UNL     1      33.427 -24.431 -18.551  0.00  0.00    -0.133 F 
ATOM     23  C   UNL     1      33.556 -23.529 -17.556  0.00  0.00    +0.575 C 
ENDBRANCH  19  23
ENDBRANCH  18  19
ENDBRANCH  10  13
BRANCH   3  24
ATOM     24  C   UNL     1      34.110 -13.056 -23.101  0.00  0.00    +0.194 C 
BRANCH  24  27
ATOM     25  N   UNL     1      32.688 -13.116 -21.139  0.00  0.00    -0.217 NA
ATOM     26  N   UNL     1      32.346 -11.418 -22.815  0.00  0.00    -0.195 NA
ATOM     27  C   UNL     1      32.973 -12.493 -22.299  0.00  0.00    +0.028 C 
ATOM     28  C   UNL     1      31.661 -12.583 -20.444  0.00  0.00    +0.164 C 
ATOM     29  C   UNL     1      31.330 -10.938 -22.069  0.00  0.00    +0.107 C 
ATOM     30  C   UNL     1      30.939 -11.485 -20.864  0.00  0.00    +0.022 C 
ENDBRANCH  24  27
ENDBRANCH   3  24
TORSDOF 5
ENDMDL
MODEL 2
REMARK VINA RESULT:     -11.0      1.228      1.904
REMARK  Name = 71183216
REMARK  5 active torsions:
REMARK  status: ('A' for Active; 'I' for Inactive)
REMARK    1  A    between atoms: N_3  and  C_24
REMARK    2  A    between atoms: C_10  and  C_13
REMARK    3  A    between atoms: C_18  and  O_19
REMARK    4  A    between atoms: O_19  and  C_23
REMARK    5  A    between atoms: C_24  and  C_27
REMARK                            x       y       z     vdW  Elec       q    Type
REMARK                         _______ _______ _______ _____ _____    ______ ____
ROOT
ATOM      1  O   UNL     1      34.686 -16.221 -25.216  0.00  0.00    -0.473 OA
ATOM      2  O   UNL     1      35.690 -14.821 -21.681  0.00  0.00    -0.270 OA
ATOM      3  N   UNL     1      33.963 -14.360 -23.182  0.00  0.00    -0.259 N 
ATOM      4  C   UNL     1      32.913 -14.900 -24.041  0.00  0.00    +0.142 C 
ATOM      5  C   UNL     1      34.803 -16.638 -22.836  0.00  0.00    +0.087 C 
ATOM      6  C   UNL     1      33.488 -15.445 -25.344  0.00  0.00    +0.227 C 
ATOM      7  C   UNL     1      34.862 -15.192 -22.509  0.00  0.00    +0.253 C 
ATOM      8  C   UNL     1      34.683 -17.086 -24.158  0.00  0.00    +0.143 C 
ATOM      9  C   UNL     1      34.907 -17.564 -21.794  0.00  0.00    +0.008 C 
ATOM     10  C   UNL     1      34.880 -18.930 -22.076  0.00  0.00    +0.000 C 
ATOM     11  C   UNL     1      34.678 -18.452 -24.438  0.00  0.00    +0.037 C 
ATOM     12  C   UNL     1      34.765 -19.374 -23.395  0.00  0.00    +0.003 C 
ENDROOT
BRANCH  10  13
ATOM     13  C   UNL     1      34.977 -19.891 -20.998  0.00  0.00    +0.000 C 
ATOM     14  C   UNL     1      36.228 -20.273 -20.514  0.00  0.00    +0.003 C 
ATOM     15  C   UNL     1      33.818 -20.439 -20.447  0.00  0.00    +0.003 C 
ATOM     16  C   UNL     1      36.321 -21.201 -19.476  0.00  0.00    +0.037 C 
ATOM     17  C   UNL     1      33.911 -21.367 -19.409  0.00  0.00    +0.037 C 
ATOM     18  C   UNL     1      35.162 -21.748 -18.925  0.00  0.00    +0.147 C 
BRANCH  18  19
ATOM     19  O   UNL     1      35.253 -22.655 -17.913  0.00  0.00    -0.404 OA
BRANCH  19  23
ATOM     20  F   UNL     1      37.171 -23.104 -16.751  0.00  0.00    -0.133 F 
ATOM     21  F   UNL     1      35.356 -22.563 -15.660  0.00  0.00    -0.133 F 
ATOM     22  F   UNL     1      36.413 -21.028 -16.801  0.00  0.00    -0.133 F 
ATOM     23  C   UNL     1      36.064 -22.332 -16.789  0.00  0.00    +0.575 C 
ENDBRANCH  19  23
ENDBRANCH  18  19
ENDBRANCH  10  13
BRANCH   3  24
ATOM     24  C   UNL     1      34.020 -12.916 -23.019  0.00  0.00    +0.194 C 
BRANCH  24  27
ATOM     25  N   UNL     1      32.188 -11.346 -22.790  0.00  0.00    -0.217 NA
ATOM     26  N   UNL     1      32.556 -13.014 -21.090  0.00  0.00    -0.195 NA
ATOM     27  C   UNL     1      32.844 -12.391 -22.249  0.00  0.00    +0.028 C 
ATOM     28  C   UNL     1      31.137 -10.899 -22.071  0.00  0.00    +0.164 C 
ATOM     29  C   UNL     1      31.494 -12.517 -20.424  0.00  0.00    +0.107 C 
ATOM     30  C   UNL     1      30.739 -11.450 -20.871  0.00  0.00    +0.022 C 
ENDBRANCH  24  27
ENDBRANCH   3  24
TORSDOF 5
ENDMDL
MODEL 3
REMARK VINA RESULT:     -10.9      5.645      9.969
REMARK  Name = 71183216
REMARK  5 active torsions:
REMARK  status: ('A' for Active; 'I' for Inactive)
REMARK    1  A    between atoms: N_3  and  C_24
REMARK    2  A    between atoms: C_10  and  C_13
REMARK    3  A    between atoms: C_18  and  O_19
REMARK    4  A    between atoms: O_19  and  C_23
REMARK    5  A    between atoms: C_24  and  C_27
REMARK                            x       y       z     vdW  Elec       q    Type
REMARK                         _______ _______ _______ _____ _____    ______ ____
ROOT
ATOM      1  O   UNL     1      36.058 -23.890 -15.375  0.00  0.00    -0.473 OA
ATOM      2  O   UNL     1      32.866 -24.406 -17.615  0.00  0.00    -0.270 OA
ATOM      3  N   UNL     1      33.208 -23.864 -15.370  0.00  0.00    -0.259 N 
ATOM      4  C   UNL     1      33.916 -23.024 -14.409  0.00  0.00    +0.142 C 
ATOM      5  C   UNL     1      34.666 -23.005 -17.144  0.00  0.00    +0.087 C 
ATOM      6  C   UNL     1      35.344 -23.514 -14.191  0.00  0.00    +0.227 C 
ATOM      7  C   UNL     1      33.497 -23.822 -16.737  0.00  0.00    +0.253 C 
ATOM      8  C   UNL     1      35.872 -23.045 -16.433  0.00  0.00    +0.143 C 
ATOM      9  C   UNL     1      34.559 -22.206 -18.287  0.00  0.00    +0.008 C 
ATOM     10  C   UNL     1      35.651 -21.447 -18.707  0.00  0.00    +0.000 C 
ATOM     11  C   UNL     1      36.969 -22.302 -16.869  0.00  0.00    +0.037 C 
ATOM     12  C   UNL     1      36.854 -21.494 -18.000  0.00  0.00    +0.003 C 
ENDROOT
BRANCH  10  13
ATOM     13  C   UNL     1      35.540 -20.612 -19.884  0.00  0.00    +0.000 C 
ATOM     14  C   UNL     1      36.639 -19.874 -20.323  0.00  0.00    +0.003 C 
ATOM     15  C   UNL     1      34.332 -20.543 -20.578  0.00  0.00    +0.003 C 
ATOM     16  C   UNL     1      36.531 -19.068 -21.456  0.00  0.00    +0.037 C 
ATOM     17  C   UNL     1      34.224 -19.737 -21.711  0.00  0.00    +0.037 C 
ATOM     18  C   UNL     1      35.323 -18.999 -22.150  0.00  0.00    +0.147 C 
BRANCH  18  19
ATOM     19  O   UNL     1      35.217 -18.212 -23.255  0.00  0.00    -0.404 OA
BRANCH  19  23
ATOM     20  F   UNL     1      34.687 -16.553 -21.772  0.00  0.00    -0.133 F 
ATOM     21  F   UNL     1      33.777 -16.548 -23.758  0.00  0.00    -0.133 F 
ATOM     22  F   UNL     1      35.894 -16.048 -23.554  0.00  0.00    -0.133 F 
ATOM     23  C   UNL     1      34.908 -16.834 -23.074  0.00  0.00    +0.575 C 
ENDBRANCH  19  23
ENDBRANCH  18  19
ENDBRANCH  10  13
BRANCH   3  24
ATOM     24  C   UNL     1      32.156 -24.728 -14.858  0.00  0.00    +0.194 C 
BRANCH  24  27
ATOM     25  N   UNL     1      30.562 -22.922 -14.597  0.00  0.00    -0.217 NA
ATOM     26  N   UNL     1      29.924 -24.921 -15.781  0.00  0.00    -0.195 NA
ATOM     27  C   UNL     1      30.790 -24.152 -15.094  0.00  0.00    +0.028 C 
ATOM     28  C   UNL     1      29.325 -22.435 -14.827  0.00  0.00    +0.164 C 
ATOM     29  C   UNL     1      28.706 -24.373 -15.975  0.00  0.00    +0.107 C 
ATOM     30  C   UNL     1      28.347 -23.121 -15.517  0.00  0.00    +0.022 C 
ENDBRANCH  24  27
ENDBRANCH   3  24
TORSDOF 5
ENDMDL
MODEL 4
REMARK VINA RESULT:     -10.8      4.578      7.637
REMARK  Name = 71183216
REMARK  5 active torsions:
REMARK  status: ('A' for Active; 'I' for Inactive)
REMARK    1  A    between atoms: N_3  and  C_24
REMARK    2  A    between atoms: C_10  and  C_13
REMARK    3  A    between atoms: C_18  and  O_19
REMARK    4  A    between atoms: O_19  and  C_23
REMARK    5  A    between atoms: C_24  and  C_27
REMARK                            x       y       z     vdW  Elec       q    Type
REMARK                         _______ _______ _______ _____ _____    ______ ____
ROOT
ATOM      1  O   UNL     1      31.176  -9.548 -19.946  0.00  0.00    -0.473 OA
ATOM      2  O   UNL     1      31.511  -9.244 -23.853  0.00  0.00    -0.270 OA
ATOM      3  N   UNL     1      32.350  -8.024 -22.049  0.00  0.00    -0.259 N 
ATOM      4  C   UNL     1      33.023  -8.062 -20.754  0.00  0.00    +0.142 C 
ATOM      5  C   UNL     1      32.133 -10.465 -21.970  0.00  0.00    +0.087 C 
ATOM      6  C   UNL     1      32.060  -8.462 -19.641  0.00  0.00    +0.227 C 
ATOM      7  C   UNL     1      31.969  -9.192 -22.714  0.00  0.00    +0.253 C 
ATOM      8  C   UNL     1      31.767 -10.578 -20.623  0.00  0.00    +0.143 C 
ATOM      9  C   UNL     1      32.632 -11.579 -22.652  0.00  0.00    +0.008 C 
ATOM     10  C   UNL     1      32.773 -12.795 -21.983  0.00  0.00    +0.000 C 
ATOM     11  C   UNL     1      31.888 -11.802 -19.964  0.00  0.00    +0.037 C 
ATOM     12  C   UNL     1      32.402 -12.906 -20.642  0.00  0.00    +0.003 C 
ENDROOT
BRANCH  10  13
ATOM     13  C   UNL     1      33.299 -13.947 -22.683  0.00  0.00    +0.000 C 
ATOM     14  C   UNL     1      32.930 -14.189 -24.006  0.00  0.00    +0.003 C 
ATOM     15  C   UNL     1      34.173 -14.818 -22.033  0.00  0.00    +0.003 C 
ATOM     16  C   UNL     1      33.436 -15.301 -24.680  0.00  0.00    +0.037 C 
ATOM     17  C   UNL     1      34.679 -15.930 -22.706  0.00  0.00    +0.037 C 
ATOM     18  C   UNL     1      34.310 -16.172 -24.030  0.00  0.00    +0.147 C 
BRANCH  18  19
ATOM     19  O   UNL     1      34.803 -17.257 -24.687  0.00  0.00    -0.404 OA
BRANCH  19  23
ATOM     20  F   UNL     1      34.911 -19.518 -25.014  0.00  0.00    -0.133 F 
ATOM     21  F   UNL     1      32.963 -18.528 -24.998  0.00  0.00    -0.133 F 
ATOM     22  F   UNL     1      34.062 -18.752 -23.122  0.00  0.00    -0.133 F 
ATOM     23  C   UNL     1      34.197 -18.523 -24.446  0.00  0.00    +0.575 C 
ENDBRANCH  19  23
ENDBRANCH  18  19
ENDBRANCH  10  13
BRANCH   3  24
ATOM     24  C   UNL     1      32.120  -6.718 -22.646  0.00  0.00    +0.194 C 
BRANCH  24  27
ATOM     25  N   UNL     1      34.402  -6.489 -23.429  0.00  0.00    -0.217 NA
ATOM     26  N   UNL     1      32.570  -6.126 -24.953  0.00  0.00    -0.195 NA
ATOM     27  C   UNL     1      33.096  -6.425 -23.749  0.00  0.00    +0.028 C 
ATOM     28  C   UNL     1      35.250  -6.219 -24.444  0.00  0.00    +0.164 C 
ATOM     29  C   UNL     1      33.475  -5.868 -25.920  0.00  0.00    +0.107 C 
ATOM     30  C   UNL     1      34.840  -5.900 -25.722  0.00  0.00    +0.022 C 
ENDBRANCH  24  27
ENDBRANCH   3  24
TORSDOF 5
ENDMDL
MODEL 5
REMARK VINA RESULT:     -10.8      5.526      9.563
REMARK  Name = 71183216
REMARK  5 active torsions:
REMARK  status: ('A' for Active; 'I' for Inactive)
REMARK    1  A    between atoms: N_3  and  C_24
REMARK    2  A    between atoms: C_10  and  C_13
REMARK    3  A    between atoms: C_18  and  O_19
REMARK    4  A    between atoms: O_19  and  C_23
REMARK    5  A    between atoms: C_24  and  C_27
REMARK                            x       y       z     vdW  Elec       q    Type
REMARK                         _______ _______ _______ _____ _____    ______ ____
ROOT
ATOM      1  O   UNL     1      36.734 -22.768 -17.195  0.00  0.00    -0.473 OA
ATOM      2  O   UNL     1      33.537 -23.782 -19.251  0.00  0.00    -0.270 OA
ATOM      3  N   UNL     1      33.939 -23.292 -17.004  0.00  0.00    -0.259 N 
ATOM      4  C   UNL     1      34.546 -22.377 -16.041  0.00  0.00    +0.142 C 
ATOM      5  C   UNL     1      35.071 -22.084 -18.813  0.00  0.00    +0.087 C 
ATOM      6  C   UNL     1      36.053 -22.592 -15.946  0.00  0.00    +0.227 C 
ATOM      7  C   UNL     1      34.111 -23.130 -18.381  0.00  0.00    +0.253 C 
ATOM      8  C   UNL     1      36.313 -21.925 -18.186  0.00  0.00    +0.143 C 
ATOM      9  C   UNL     1      34.729 -21.268 -19.896  0.00  0.00    +0.008 C 
ATOM     10  C   UNL     1      35.623 -20.294 -20.339  0.00  0.00    +0.000 C 
ATOM     11  C   UNL     1      37.214 -20.965 -18.646  0.00  0.00    +0.037 C 
ATOM     12  C   UNL     1      36.863 -20.142 -19.715  0.00  0.00    +0.003 C 
ENDROOT
BRANCH  10  13
ATOM     13  C   UNL     1      35.268 -19.441 -21.453  0.00  0.00    +0.000 C 
ATOM     14  C   UNL     1      34.633 -19.982 -22.571  0.00  0.00    +0.003 C 
ATOM     15  C   UNL     1      35.565 -18.079 -21.410  0.00  0.00    +0.003 C 
ATOM     16  C   UNL     1      34.292 -19.159 -23.646  0.00  0.00    +0.037 C 
ATOM     17  C   UNL     1      35.224 -17.257 -22.484  0.00  0.00    +0.037 C 
ATOM     18  C   UNL     1      34.589 -17.797 -23.602  0.00  0.00    +0.147 C 
BRANCH  18  19
ATOM     19  O   UNL     1      34.258 -16.995 -24.651  0.00  0.00    -0.404 OA
BRANCH  19  23
ATOM     20  F   UNL     1      33.121 -15.332 -23.568  0.00  0.00    -0.133 F 
ATOM     21  F   UNL     1      33.868 -14.980 -25.592  0.00  0.00    -0.133 F 
ATOM     22  F   UNL     1      35.287 -15.083 -23.933  0.00  0.00    -0.133 F 
ATOM     23  C   UNL     1      34.136 -15.596 -24.418  0.00  0.00    +0.575 C 
ENDBRANCH  19  23
ENDBRANCH  18  19
ENDBRANCH  10  13
BRANCH   3  24
ATOM     24  C   UNL     1      33.111 -24.365 -16.478  0.00  0.00    +0.194 C 
BRANCH  24  27
ATOM     25  N   UNL     1      30.959 -23.267 -16.663  0.00  0.00    -0.217 NA
ATOM     26  N   UNL     1      31.744 -24.009 -14.509  0.00  0.00    -0.195 NA
ATOM     27  C   UNL     1      31.855 -23.846 -15.841  0.00  0.00    +0.028 C 
ATOM     28  C   UNL     1      29.842 -22.811 -16.057  0.00  0.00    +0.164 C 
ATOM     29  C   UNL     1      30.604 -23.531 -13.969  0.00  0.00    +0.107 C 
ATOM     30  C   UNL     1      29.608 -22.917 -14.701  0.00  0.00    +0.022 C 
ENDBRANCH  24  27
ENDBRANCH   3  24
TORSDOF 5
ENDMDL
MODEL 6
REMARK VINA RESULT:     -10.7      6.337     11.040
REMARK  Name = 71183216
REMARK  5 active torsions:
REMARK  status: ('A' for Active; 'I' for Inactive)
REMARK    1  A    between atoms: N_3  and  C_24
REMARK    2  A    between atoms: C_10  and  C_13
REMARK    3  A    between atoms: C_18  and  O_19
REMARK    4  A    between atoms: O_19  and  C_23
REMARK    5  A    between atoms: C_24  and  C_27
REMARK                            x       y       z     vdW  Elec       q    Type
REMARK                         _______ _______ _______ _____ _____    ______ ____
ROOT
ATOM      1  O   UNL     1      34.002 -24.280 -15.054  0.00  0.00    -0.473 OA
ATOM      2  O   UNL     1      37.349 -22.215 -15.000  0.00  0.00    -0.270 OA
ATOM      3  N   UNL     1      36.837 -24.486 -14.834  0.00  0.00    -0.259 N 
ATOM      4  C   UNL     1      36.094 -25.616 -15.386  0.00  0.00    +0.142 C 
ATOM      5  C   UNL     1      35.600 -22.987 -16.329  0.00  0.00    +0.087 C 
ATOM      6  C   UNL     1      34.627 -25.568 -14.976  0.00  0.00    +0.227 C 
ATOM      7  C   UNL     1      36.677 -23.189 -15.329  0.00  0.00    +0.253 C 
ATOM      8  C   UNL     1      34.333 -23.564 -16.170  0.00  0.00    +0.143 C 
ATOM      9  C   UNL     1      35.859 -22.170 -17.435  0.00  0.00    +0.008 C 
ATOM     10  C   UNL     1      34.856 -21.943 -18.378  0.00  0.00    +0.000 C 
ATOM     11  C   UNL     1      33.327 -23.316 -17.103  0.00  0.00    +0.037 C 
ATOM     12  C   UNL     1      33.593 -22.515 -18.213  0.00  0.00    +0.003 C 
ENDROOT
BRANCH  10  13
ATOM     13  C   UNL     1      35.123 -21.107 -19.528  0.00  0.00    +0.000 C 
ATOM     14  C   UNL     1      36.422 -20.665 -19.784  0.00  0.00    +0.003 C 
ATOM     15  C   UNL     1      34.081 -20.740 -20.380  0.00  0.00    +0.003 C 
ATOM     16  C   UNL     1      36.678 -19.858 -20.892  0.00  0.00    +0.037 C 
ATOM     17  C   UNL     1      34.338 -19.933 -21.488  0.00  0.00    +0.037 C 
ATOM     18  C   UNL     1      35.636 -19.491 -21.744  0.00  0.00    +0.147 C 
BRANCH  18  19
ATOM     19  O   UNL     1      35.887 -18.702 -22.824  0.00  0.00    -0.404 OA
BRANCH  19  23
ATOM     20  F   UNL     1      33.836 -18.136 -23.666  0.00  0.00    -0.133 F 
ATOM     21  F   UNL     1      35.542 -16.816 -24.016  0.00  0.00    -0.133 F 
ATOM     22  F   UNL     1      34.680 -16.937 -22.011  0.00  0.00    -0.133 F 
ATOM     23  C   UNL     1      34.972 -17.652 -23.119  0.00  0.00    +0.575 C 
ENDBRANCH  19  23
ENDBRANCH  18  19
ENDBRANCH  10  13
BRANCH   3  24
ATOM     24  C   UNL     1      37.784 -24.764 -13.766  0.00  0.00    +0.194 C 
BRANCH  24  27
ATOM     25  N   UNL     1      36.388 -25.417 -11.895  0.00  0.00    -0.217 NA
ATOM     26  N   UNL     1      37.553 -23.307 -11.842  0.00  0.00    -0.195 NA
ATOM     27  C   UNL     1      37.203 -24.477 -12.411  0.00  0.00    +0.028 C 
ATOM     28  C   UNL     1      35.884 -25.127 -10.677  0.00  0.00    +0.164 C 
ATOM     29  C   UNL     1      37.013 -23.083 -10.626  0.00  0.00    +0.107 C 
ATOM     30  C   UNL     1      36.164 -23.965  -9.989  0.00  0.00    +0.022 C 
ENDBRANCH  24  27
ENDBRANCH   3  24
TORSDOF 5
ENDMDL
MODEL 7
REMARK VINA RESULT:     -10.4      4.420      7.291
REMARK  Name = 71183216
REMARK  5 active torsions:
REMARK  status: ('A' for Active; 'I' for Inactive)
REMARK    1  A    between atoms: N_3  and  C_24
REMARK    2  A    between atoms: C_10  and  C_13
REMARK    3  A    between atoms: C_18  and  O_19
REMARK    4  A    between atoms: O_19  and  C_23
REMARK    5  A    between atoms: C_24  and  C_27
REMARK                            x       y       z     vdW  Elec       q    Type
REMARK                         _______ _______ _______ _____ _____    ______ ____
ROOT
ATOM      1  O   UNL     1      31.116  -9.107 -22.050  0.00  0.00    -0.473 OA
ATOM      2  O   UNL     1      34.252  -9.145 -24.424  0.00  0.00    -0.270 OA
ATOM      3  N   UNL     1      33.741  -8.060 -22.421  0.00  0.00    -0.259 N 
ATOM      4  C   UNL     1      33.223  -8.183 -21.061  0.00  0.00    +0.142 C 
ATOM      5  C   UNL     1      33.017 -10.360 -22.867  0.00  0.00    +0.087 C 
ATOM      6  C   UNL     1      31.700  -8.259 -21.053  0.00  0.00    +0.227 C 
ATOM      7  C   UNL     1      33.728  -9.137 -23.312  0.00  0.00    +0.253 C 
ATOM      8  C   UNL     1      31.771 -10.293 -22.229  0.00  0.00    +0.143 C 
ATOM      9  C   UNL     1      33.599 -11.605 -23.129  0.00  0.00    +0.008 C 
ATOM     10  C   UNL     1      32.939 -12.772 -22.744  0.00  0.00    +0.000 C 
ATOM     11  C   UNL     1      31.105 -11.463 -21.866  0.00  0.00    +0.037 C 
ATOM     12  C   UNL     1      31.696 -12.702 -22.113  0.00  0.00    +0.003 C 
ENDROOT
BRANCH  10  13
ATOM     13  C   UNL     1      33.543 -14.061 -23.003  0.00  0.00    +0.000 C 
ATOM     14  C   UNL     1      33.385 -14.668 -24.250  0.00  0.00    +0.003 C 
ATOM     15  C   UNL     1      34.280 -14.699 -22.006  0.00  0.00    +0.003 C 
ATOM     16  C   UNL     1      33.967 -15.911 -24.499  0.00  0.00    +0.037 C 
ATOM     17  C   UNL     1      34.861 -15.943 -22.255  0.00  0.00    +0.037 C 
ATOM     18  C   UNL     1      34.704 -16.549 -23.501  0.00  0.00    +0.147 C 
BRANCH  18  19
ATOM     19  O   UNL     1      35.269 -17.763 -23.744  0.00  0.00    -0.404 OA
BRANCH  19  23
ATOM     20  F   UNL     1      34.163 -19.003 -22.173  0.00  0.00    -0.133 F 
ATOM     21  F   UNL     1      35.243 -20.020 -23.778  0.00  0.00    -0.133 F 
ATOM     22  F   UNL     1      33.387 -18.963 -24.243  0.00  0.00    -0.133 F 
ATOM     23  C   UNL     1      34.500 -18.931 -23.479  0.00  0.00    +0.575 C 
ENDBRANCH  19  23
ENDBRANCH  18  19
ENDBRANCH  10  13
BRANCH   3  24
ATOM     24  C   UNL     1      34.309  -6.779 -22.809  0.00  0.00    +0.194 C 
BRANCH  24  27
ATOM     25  N   UNL     1      32.503  -5.181 -22.571  0.00  0.00    -0.217 NA
ATOM     26  N   UNL     1      33.241  -5.837 -24.770  0.00  0.00    -0.195 NA
ATOM     27  C   UNL     1      33.283  -5.873 -23.424  0.00  0.00    +0.028 C 
ATOM     28  C   UNL     1      31.592  -4.377 -23.158  0.00  0.00    +0.164 C 
ATOM     29  C   UNL     1      32.308  -5.012 -25.289  0.00  0.00    +0.107 C 
ATOM     30  C   UNL     1      31.447  -4.251 -24.524  0.00  0.00    +0.022 C 
ENDBRANCH  24  27
ENDBRANCH   3  24
TORSDOF 5
ENDMDL
MODEL 8
REMARK VINA RESULT:     -10.2      6.503     11.537
REMARK  Name = 71183216
REMARK  5 active torsions:
REMARK  status: ('A' for Active; 'I' for Inactive)
REMARK    1  A    between atoms: N_3  and  C_24
REMARK    2  A    between atoms: C_10  and  C_13
REMARK    3  A    between atoms: C_18  and  O_19
REMARK    4  A    between atoms: O_19  and  C_23
REMARK    5  A    between atoms: C_24  and  C_27
REMARK                            x       y       z     vdW  Elec       q    Type
REMARK                         _______ _______ _______ _____ _____    ______ ____
ROOT
ATOM      1  O   UNL     1      32.860 -24.328 -13.983  0.00  0.00    -0.473 OA
ATOM      2  O   UNL     1      36.433 -22.700 -14.218  0.00  0.00    -0.270 OA
ATOM      3  N   UNL     1      35.655 -24.863 -13.811  0.00  0.00    -0.259 N 
ATOM      4  C   UNL     1      34.761 -25.940 -14.228  0.00  0.00    +0.142 C 
ATOM      5  C   UNL     1      34.555 -23.374 -15.420  0.00  0.00    +0.087 C 
ATOM      6  C   UNL     1      33.326 -25.670 -13.790  0.00  0.00    +0.227 C 
ATOM      7  C   UNL     1      35.635 -23.610 -14.431  0.00  0.00    +0.253 C 
ATOM      8  C   UNL     1      33.235 -23.771 -15.173  0.00  0.00    +0.143 C 
ATOM      9  C   UNL     1      34.871 -22.707 -16.609  0.00  0.00    +0.008 C 
ATOM     10  C   UNL     1      33.869 -22.450 -17.545  0.00  0.00    +0.000 C 
ATOM     11  C   UNL     1      32.233 -23.491 -16.102  0.00  0.00    +0.037 C 
ATOM     12  C   UNL     1      32.553 -22.842 -17.293  0.00  0.00    +0.003 C 
ENDROOT
BRANCH  10  13
ATOM     13  C   UNL     1      34.194 -21.769 -18.780  0.00  0.00    +0.000 C 
ATOM     14  C   UNL     1      35.514 -21.733 -19.231  0.00  0.00    +0.003 C 
ATOM     15  C   UNL     1      33.188 -21.146 -19.518  0.00  0.00    +0.003 C 
ATOM     16  C   UNL     1      35.826 -21.075 -20.421  0.00  0.00    +0.037 C 
ATOM     17  C   UNL     1      33.500 -20.488 -20.708  0.00  0.00    +0.037 C 
ATOM     18  C   UNL     1      34.820 -20.453 -21.159  0.00  0.00    +0.147 C 
BRANCH  18  19
ATOM     19  O   UNL     1      35.125 -19.810 -22.319  0.00  0.00    -0.404 OA
BRANCH  19  23
ATOM     20  F   UNL     1      35.490 -17.773 -23.295  0.00  0.00    -0.133 F 
ATOM     21  F   UNL     1      37.131 -18.775 -22.257  0.00  0.00    -0.133 F 
ATOM     22  F   UNL     1      35.495 -17.917 -21.089  0.00  0.00    -0.133 F 
ATOM     23  C   UNL     1      35.796 -18.557 -22.239  0.00  0.00    +0.575 C 
ENDBRANCH  19  23
ENDBRANCH  18  19
ENDBRANCH  10  13
BRANCH   3  24
ATOM     24  C   UNL     1      36.599 -25.151 -12.744  0.00  0.00    +0.194 C 
BRANCH  24  27
ATOM     25  N   UNL     1      38.029 -26.684 -13.961  0.00  0.00    -0.217 NA
ATOM     26  N   UNL     1      38.959 -24.670 -13.020  0.00  0.00    -0.195 NA
ATOM     27  C   UNL     1      37.952 -25.526 -13.277  0.00  0.00    +0.028 C 
ATOM     28  C   UNL     1      39.258 -26.990 -14.425  0.00  0.00    +0.164 C 
ATOM     29  C   UNL     1      40.159 -25.038 -13.513  0.00  0.00    +0.107 C 
ATOM     30  C   UNL     1      40.371 -26.198 -14.230  0.00  0.00    +0.022 C 
ENDBRANCH  24  27
ENDBRANCH   3  24
TORSDOF 5
ENDMDL
MODEL 9
REMARK VINA RESULT:     -10.0      5.569     10.101
REMARK  Name = 71183216
REMARK  5 active torsions:
REMARK  status: ('A' for Active; 'I' for Inactive)
REMARK    1  A    between atoms: N_3  and  C_24
REMARK    2  A    between atoms: C_10  and  C_13
REMARK    3  A    between atoms: C_18  and  O_19
REMARK    4  A    between atoms: O_19  and  C_23
REMARK    5  A    between atoms: C_24  and  C_27
REMARK                            x       y       z     vdW  Elec       q    Type
REMARK                         _______ _______ _______ _____ _____    ______ ____
ROOT
ATOM      1  O   UNL     1      37.153 -22.414 -17.657  0.00  0.00    -0.473 OA
ATOM      2  O   UNL     1      33.702 -23.447 -19.234  0.00  0.00    -0.270 OA
ATOM      3  N   UNL     1      34.400 -22.878 -17.081  0.00  0.00    -0.259 N 
ATOM      4  C   UNL     1      35.141 -21.939 -16.244  0.00  0.00    +0.142 C 
ATOM      5  C   UNL     1      35.302 -21.763 -19.070  0.00  0.00    +0.087 C 
ATOM      6  C   UNL     1      36.644 -22.178 -16.338  0.00  0.00    +0.227 C 
ATOM      7  C   UNL     1      34.393 -22.773 -18.475  0.00  0.00    +0.253 C 
ATOM      8  C   UNL     1      36.618 -21.603 -18.617  0.00  0.00    +0.143 C 
ATOM      9  C   UNL     1      34.831 -20.983 -20.132  0.00  0.00    +0.008 C 
ATOM     10  C   UNL     1      35.673 -20.044 -20.727  0.00  0.00    +0.000 C 
ATOM     11  C   UNL     1      37.463 -20.678 -19.230  0.00  0.00    +0.037 C 
ATOM     12  C   UNL     1      36.986 -19.891 -20.277  0.00  0.00    +0.003 C 
ENDROOT
BRANCH  10  13
ATOM     13  C   UNL     1      35.187 -19.228 -21.819  0.00  0.00    +0.000 C 
ATOM     14  C   UNL     1      34.521 -19.822 -22.891  0.00  0.00    +0.003 C 
ATOM     15  C   UNL     1      35.387 -17.848 -21.801  0.00  0.00    +0.003 C 
ATOM     16  C   UNL     1      34.053 -19.035 -23.944  0.00  0.00    +0.037 C 
ATOM     17  C   UNL     1      34.919 -17.061 -22.854  0.00  0.00    +0.037 C 
ATOM     18  C   UNL     1      34.253 -17.655 -23.926  0.00  0.00    +0.147 C 
BRANCH  18  19
ATOM     19  O   UNL     1      33.799 -16.888 -24.954  0.00  0.00    -0.404 OA
BRANCH  19  23
ATOM     20  F   UNL     1      32.962 -15.056 -23.869  0.00  0.00    -0.133 F 
ATOM     21  F   UNL     1      33.490 -14.903 -25.984  0.00  0.00    -0.133 F 
ATOM     22  F   UNL     1      35.083 -15.052 -24.495  0.00  0.00    -0.133 F 
ATOM     23  C   UNL     1      33.839 -15.472 -24.808  0.00  0.00    +0.575 C 
ENDBRANCH  19  23
ENDBRANCH  18  19
ENDBRANCH  10  13
BRANCH   3  24
ATOM     24  C   UNL     1      33.635 -23.916 -16.409  0.00  0.00    +0.194 C 
BRANCH  24  27
ATOM     25  N   UNL     1      33.771 -23.981 -13.990  0.00  0.00    -0.217 NA
ATOM     26  N   UNL     1      35.391 -25.177 -15.314  0.00  0.00    -0.195 NA
ATOM     27  C   UNL     1      34.310 -24.389 -15.155  0.00  0.00    +0.028 C 
ATOM     28  C   UNL     1      34.404 -24.425 -12.883  0.00  0.00    +0.164 C 
ATOM     29  C   UNL     1      35.973 -25.584 -14.167  0.00  0.00    +0.107 C 
ATOM     30  C   UNL     1      35.519 -25.236 -12.911  0.00  0.00    +0.022 C 
ENDBRANCH  24  27
ENDBRANCH   3  24
TORSDOF 5
ENDMDL
