MODEL 1
REMARK VINA RESULT:     -12.5      0.000      0.000
REMARK  Name = 9889200
REMARK  5 active torsions:
REMARK  status: ('A' for Active; 'I' for Inactive)
REMARK    1  A    between atoms: C_1  and  C_21
REMARK    2  A    between atoms: C_4  and  O_7
REMARK    3  A    between atoms: O_7  and  C_8
REMARK    4  A    between atoms: C_8  and  C_12
REMARK    5  A    between atoms: C_21  and  C_26
REMARK                            x       y       z     vdW  Elec       q    Type
REMARK                         _______ _______ _______ _____ _____    ______ ____
ROOT
ATOM      1  C   UNL     1      35.564 -20.228 -20.484  0.00  0.00    -0.021 C 
ATOM      2  C   UNL     1      36.530 -20.902 -19.737  0.00  0.00    -0.001 C 
ATOM      3  C   UNL     1      34.216 -20.555 -20.339  0.00  0.00    -0.001 C 
ATOM      4  C   UNL     1      34.803 -22.222 -18.709  0.00  0.00    +0.139 C 
ATOM      5  C   UNL     1      36.147 -21.904 -18.845  0.00  0.00    +0.037 C 
ATOM      6  C   UNL     1      33.833 -21.556 -19.447  0.00  0.00    +0.037 C 
ENDROOT
BRANCH   4   7
ATOM      7  O   UNL     1      34.426 -23.208 -17.829  0.00  0.00    -0.466 OA
BRANCH   7   8
ATOM      8  C   UNL     1      34.590 -22.943 -16.453  0.00  0.00    +0.279 C 
BRANCH   8  12
ATOM      9  O   UNL     1      32.886 -25.233 -12.555  0.00  0.00    -0.274 OA
ATOM     10  N   UNL     1      33.733 -24.125 -14.434  0.00  0.00    -0.232 N 
ATOM     11  N   UNL     1      32.278 -23.562 -16.229  0.00  0.00    -0.391 NA
ATOM     12  C   UNL     1      33.455 -23.572 -15.682  0.00  0.00    +0.210 C 
ATOM     13  C   UNL     1      31.380 -24.724 -14.269  0.00  0.00    +0.151 C 
ATOM     14  C   UNL     1      31.213 -24.142 -15.528  0.00  0.00    +0.123 C 
ATOM     15  C   UNL     1      32.728 -24.725 -13.661  0.00  0.00    +0.241 C 
ATOM     16  C   UNL     1      35.089 -24.095 -13.887  0.00  0.00    +0.122 C 
ATOM     17  C   UNL     1      30.296 -25.294 -13.594  0.00  0.00    -0.010 C 
ATOM     18  C   UNL     1      29.940 -24.139 -16.107  0.00  0.00    +0.028 C 
ATOM     19  C   UNL     1      29.032 -25.283 -14.183  0.00  0.00    -0.004 C 
ATOM     20  C   UNL     1      28.854 -24.706 -15.439  0.00  0.00    +0.002 C 
ENDBRANCH   8  12
ENDBRANCH   7   8
ENDBRANCH   4   7
BRANCH   1  21
ATOM     21  C   UNL     1      35.973 -19.158 -21.438  0.00  0.00    +0.047 C 
BRANCH  21  26
ATOM     22  S   UNL     1      34.654 -18.495 -23.772  0.00  0.00    -0.048 S 
ATOM     23  O   UNL     1      35.077 -16.433 -20.537  0.00  0.00    -0.274 OA
ATOM     24  O   UNL     1      34.644 -16.245 -25.132  0.00  0.00    -0.263 OA
ATOM     25  N   UNL     1      34.859 -16.133 -22.820  0.00  0.00    -0.246 N 
ATOM     26  C   UNL     1      34.779 -18.363 -21.962  0.00  0.00    +0.137 C 
ATOM     27  C   UNL     1      34.925 -16.886 -21.667  0.00  0.00    +0.239 C 
ATOM     28  C   UNL     1      34.716 -16.765 -24.028  0.00  0.00    +0.279 C 
ATOM     29  H   UNL     1      34.914 -15.151 -22.776  0.00  0.00    +0.158 HD
ENDBRANCH  21  26
ENDBRANCH   1  21
TORSDOF 5
ENDMDL
MODEL 2
REMARK VINA RESULT:     -12.4      1.351      3.598
REMARK  Name = 9889200
REMARK  5 active torsions:
REMARK  status: ('A' for Active; 'I' for Inactive)
REMARK    1  A    between atoms: C_1  and  C_21
REMARK    2  A    between atoms: C_4  and  O_7
REMARK    3  A    between atoms: O_7  and  C_8
REMARK    4  A    between atoms: C_8  and  C_12
REMARK    5  A    between atoms: C_21  and  C_26
REMARK                            x       y       z     vdW  Elec       q    Type
REMARK                         _______ _______ _______ _____ _____    ______ ____
ROOT
ATOM      1  C   UNL     1      35.513 -20.245 -20.347  0.00  0.00    -0.021 C 
ATOM      2  C   UNL     1      34.161 -20.576 -20.278  0.00  0.00    -0.001 C 
ATOM      3  C   UNL     1      36.453 -20.994 -19.640  0.00  0.00    -0.001 C 
ATOM      4  C   UNL     1      34.689 -22.397 -18.799  0.00  0.00    +0.139 C 
ATOM      5  C   UNL     1      33.746 -21.658 -19.500  0.00  0.00    +0.037 C 
ATOM      6  C   UNL     1      36.039 -22.076 -18.862  0.00  0.00    +0.037 C 
ENDROOT
BRANCH   4   7
ATOM      7  O   UNL     1      34.281 -23.463 -18.034  0.00  0.00    -0.466 OA
BRANCH   7   8
ATOM      8  C   UNL     1      33.540 -23.175 -16.868  0.00  0.00    +0.279 C 
BRANCH   8  12
ATOM      9  O   UNL     1      33.534 -24.833 -12.330  0.00  0.00    -0.274 OA
ATOM     10  N   UNL     1      33.514 -24.026 -14.526  0.00  0.00    -0.232 N 
ATOM     11  N   UNL     1      35.544 -23.911 -15.760  0.00  0.00    -0.391 NA
ATOM     12  C   UNL     1      34.262 -23.734 -15.665  0.00  0.00    +0.210 C 
ATOM     13  C   UNL     1      35.577 -24.756 -13.462  0.00  0.00    +0.151 C 
ATOM     14  C   UNL     1      36.229 -24.428 -14.654  0.00  0.00    +0.123 C 
ATOM     15  C   UNL     1      34.116 -24.548 -13.372  0.00  0.00    +0.241 C 
ATOM     16  C   UNL     1      32.070 -23.797 -14.499  0.00  0.00    +0.122 C 
ATOM     17  C   UNL     1      36.291 -25.272 -12.375  0.00  0.00    -0.010 C 
ATOM     18  C   UNL     1      37.611 -24.623 -14.744  0.00  0.00    +0.028 C 
ATOM     19  C   UNL     1      37.668 -25.462 -12.479  0.00  0.00    -0.004 C 
ATOM     20  C   UNL     1      38.328 -25.138 -13.663  0.00  0.00    +0.002 C 
ENDBRANCH   8  12
ENDBRANCH   7   8
ENDBRANCH   4   7
BRANCH   1  21
ATOM     21  C   UNL     1      35.956 -19.089 -21.178  0.00  0.00    +0.047 C 
BRANCH  21  26
ATOM     22  S   UNL     1      34.715 -18.592 -23.595  0.00  0.00    -0.048 S 
ATOM     23  O   UNL     1      35.025 -16.312 -20.497  0.00  0.00    -0.274 OA
ATOM     24  O   UNL     1      34.748 -16.441 -25.106  0.00  0.00    -0.263 OA
ATOM     25  N   UNL     1      34.885 -16.170 -22.801  0.00  0.00    -0.246 N 
ATOM     26  C   UNL     1      34.779 -18.336 -21.795  0.00  0.00    +0.137 C 
ATOM     27  C   UNL     1      34.912 -16.842 -21.597  0.00  0.00    +0.239 C 
ATOM     28  C   UNL     1      34.783 -16.883 -23.967  0.00  0.00    +0.279 C 
ATOM     29  H   UNL     1      34.936 -15.187 -22.822  0.00  0.00    +0.158 HD
ENDBRANCH  21  26
ENDBRANCH   1  21
TORSDOF 5
ENDMDL
MODEL 3
REMARK VINA RESULT:     -11.9      1.377      1.729
REMARK  Name = 9889200
REMARK  5 active torsions:
REMARK  status: ('A' for Active; 'I' for Inactive)
REMARK    1  A    between atoms: C_1  and  C_21
REMARK    2  A    between atoms: C_4  and  O_7
REMARK    3  A    between atoms: O_7  and  C_8
REMARK    4  A    between atoms: C_8  and  C_12
REMARK    5  A    between atoms: C_21  and  C_26
REMARK                            x       y       z     vdW  Elec       q    Type
REMARK                         _______ _______ _______ _____ _____    ______ ____
ROOT
ATOM      1  C   UNL     1      34.205 -20.569 -20.420  0.00  0.00    -0.021 C 
ATOM      2  C   UNL     1      35.566 -20.709 -20.153  0.00  0.00    -0.001 C 
ATOM      3  C   UNL     1      33.269 -21.277 -19.667  0.00  0.00    -0.001 C 
ATOM      4  C   UNL     1      35.053 -22.261 -18.389  0.00  0.00    +0.139 C 
ATOM      5  C   UNL     1      35.993 -21.560 -19.133  0.00  0.00    +0.037 C 
ATOM      6  C   UNL     1      33.695 -22.127 -18.646  0.00  0.00    +0.037 C 
ENDROOT
BRANCH   4   7
ATOM      7  O   UNL     1      35.473 -23.097 -17.383  0.00  0.00    -0.466 OA
BRANCH   7   8
ATOM      8  C   UNL     1      35.485 -22.574 -16.072  0.00  0.00    +0.279 C 
BRANCH   8  12
ATOM      9  O   UNL     1      34.158 -24.920 -12.062  0.00  0.00    -0.274 OA
ATOM     10  N   UNL     1      34.823 -23.783 -13.996  0.00  0.00    -0.232 N 
ATOM     11  N   UNL     1      33.248 -23.388 -15.734  0.00  0.00    -0.391 NA
ATOM     12  C   UNL     1      34.443 -23.283 -15.240  0.00  0.00    +0.210 C 
ATOM     13  C   UNL     1      32.542 -24.580 -13.715  0.00  0.00    +0.151 C 
ATOM     14  C   UNL     1      32.270 -24.043 -14.976  0.00  0.00    +0.123 C 
ATOM     15  C   UNL     1      33.909 -24.452 -13.168  0.00  0.00    +0.241 C 
ATOM     16  C   UNL     1      36.194 -23.623 -13.511  0.00  0.00    +0.122 C 
ATOM     17  C   UNL     1      31.541 -25.228 -12.983  0.00  0.00    -0.010 C 
ATOM     18  C   UNL     1      30.977 -24.163 -15.497  0.00  0.00    +0.028 C 
ATOM     19  C   UNL     1      30.257 -25.340 -13.514  0.00  0.00    -0.004 C 
ATOM     20  C   UNL     1      29.975 -24.808 -14.771  0.00  0.00    +0.002 C 
ENDBRANCH   8  12
ENDBRANCH   7   8
ENDBRANCH   4   7
BRANCH   1  21
ATOM     21  C   UNL     1      33.750 -19.661 -21.512  0.00  0.00    +0.047 C 
BRANCH  21  26
ATOM     22  S   UNL     1      35.259 -17.352 -21.377  0.00  0.00    -0.048 S 
ATOM     23  O   UNL     1      34.271 -19.446 -24.465  0.00  0.00    -0.274 OA
ATOM     24  O   UNL     1      35.209 -15.205 -22.894  0.00  0.00    -0.263 OA
ATOM     25  N   UNL     1      34.720 -17.256 -23.873  0.00  0.00    -0.246 N 
ATOM     26  C   UNL     1      34.914 -18.942 -22.190  0.00  0.00    +0.137 C 
ATOM     27  C   UNL     1      34.595 -18.608 -23.630  0.00  0.00    +0.239 C 
ATOM     28  C   UNL     1      35.061 -16.417 -22.844  0.00  0.00    +0.279 C 
ATOM     29  H   UNL     1      34.567 -16.897 -24.777  0.00  0.00    +0.158 HD
ENDBRANCH  21  26
ENDBRANCH   1  21
TORSDOF 5
ENDMDL
MODEL 4
REMARK VINA RESULT:     -11.7      2.861     10.075
REMARK  Name = 9889200
REMARK  5 active torsions:
REMARK  status: ('A' for Active; 'I' for Inactive)
REMARK    1  A    between atoms: C_1  and  C_21
REMARK    2  A    between atoms: C_4  and  O_7
REMARK    3  A    between atoms: O_7  and  C_8
REMARK    4  A    between atoms: C_8  and  C_12
REMARK    5  A    between atoms: C_21  and  C_26
REMARK                            x       y       z     vdW  Elec       q    Type
REMARK                         _______ _______ _______ _____ _____    ______ ____
ROOT
ATOM      1  C   UNL     1      33.765 -22.855 -17.845  0.00  0.00    -0.021 C 
ATOM      2  C   UNL     1      35.147 -22.689 -17.758  0.00  0.00    -0.001 C 
ATOM      3  C   UNL     1      33.029 -22.108 -18.765  0.00  0.00    -0.001 C 
ATOM      4  C   UNL     1      35.051 -21.036 -19.502  0.00  0.00    +0.139 C 
ATOM      5  C   UNL     1      35.793 -21.774 -18.591  0.00  0.00    +0.037 C 
ATOM      6  C   UNL     1      33.675 -21.195 -19.598  0.00  0.00    +0.037 C 
ENDROOT
BRANCH   4   7
ATOM      7  O   UNL     1      35.688 -20.137 -20.324  0.00  0.00    -0.466 OA
BRANCH   7   8
ATOM      8  C   UNL     1      35.295 -20.110 -21.679  0.00  0.00    +0.279 C 
BRANCH   8  12
ATOM      9  O   UNL     1      34.404 -16.800 -25.084  0.00  0.00    -0.274 OA
ATOM     10  N   UNL     1      34.838 -18.420 -23.451  0.00  0.00    -0.232 N 
ATOM     11  N   UNL     1      35.018 -17.777 -21.168  0.00  0.00    -0.391 NA
ATOM     12  C   UNL     1      35.037 -18.683 -22.098  0.00  0.00    +0.210 C 
ATOM     13  C   UNL     1      34.566 -16.073 -22.868  0.00  0.00    +0.151 C 
ATOM     14  C   UNL     1      34.780 -16.448 -21.539  0.00  0.00    +0.123 C 
ATOM     15  C   UNL     1      34.592 -17.118 -23.913  0.00  0.00    +0.241 C 
ATOM     16  C   UNL     1      34.876 -19.499 -24.438  0.00  0.00    +0.122 C 
ATOM     17  C   UNL     1      34.331 -14.736 -23.205  0.00  0.00    -0.010 C 
ATOM     18  C   UNL     1      34.756 -15.462 -20.547  0.00  0.00    +0.028 C 
ATOM     19  C   UNL     1      34.309 -13.764 -22.206  0.00  0.00    -0.004 C 
ATOM     20  C   UNL     1      34.522 -14.127 -20.877  0.00  0.00    +0.002 C 
ENDBRANCH   8  12
ENDBRANCH   7   8
ENDBRANCH   4   7
BRANCH   1  21
ATOM     21  C   UNL     1      33.074 -23.831 -16.954  0.00  0.00    +0.047 C 
BRANCH  21  26
ATOM     22  S   UNL     1      32.877 -24.014 -14.206  0.00  0.00    -0.048 S 
ATOM     23  O   UNL     1      30.273 -22.755 -16.761  0.00  0.00    -0.274 OA
ATOM     24  O   UNL     1      30.898 -24.871 -12.703  0.00  0.00    -0.263 OA
ATOM     25  N   UNL     1      30.381 -23.817 -14.709  0.00  0.00    -0.246 N 
ATOM     26  C   UNL     1      32.430 -23.155 -15.745  0.00  0.00    +0.137 C 
ATOM     27  C   UNL     1      30.920 -23.207 -15.822  0.00  0.00    +0.239 C 
ATOM     28  C   UNL     1      31.216 -24.307 -13.740  0.00  0.00    +0.279 C 
ATOM     29  H   UNL     1      29.404 -23.897 -14.611  0.00  0.00    +0.158 HD
ENDBRANCH  21  26
ENDBRANCH   1  21
TORSDOF 5
ENDMDL
MODEL 5
REMARK VINA RESULT:     -11.4      2.796      4.460
REMARK  Name = 9889200
REMARK  5 active torsions:
REMARK  status: ('A' for Active; 'I' for Inactive)
REMARK    1  A    between atoms: C_1  and  C_21
REMARK    2  A    between atoms: C_4  and  O_7
REMARK    3  A    between atoms: O_7  and  C_8
REMARK    4  A    between atoms: C_8  and  C_12
REMARK    5  A    between atoms: C_21  and  C_26
REMARK                            x       y       z     vdW  Elec       q    Type
REMARK                         _______ _______ _______ _____ _____    ______ ____
ROOT
ATOM      1  C   UNL     1      35.007 -18.465 -22.784  0.00  0.00    -0.021 C 
ATOM      2  C   UNL     1      34.158 -19.372 -22.152  0.00  0.00    -0.001 C 
ATOM      3  C   UNL     1      36.288 -18.241 -22.281  0.00  0.00    -0.001 C 
ATOM      4  C   UNL     1      35.866 -19.825 -20.521  0.00  0.00    +0.139 C 
ATOM      5  C   UNL     1      34.589 -20.055 -21.014  0.00  0.00    +0.037 C 
ATOM      6  C   UNL     1      36.720 -18.924 -21.144  0.00  0.00    +0.037 C 
ENDROOT
BRANCH   4   7
ATOM      7  O   UNL     1      36.291 -20.499 -19.401  0.00  0.00    -0.466 OA
BRANCH   7   8
ATOM      8  C   UNL     1      36.199 -21.907 -19.422  0.00  0.00    +0.279 C 
BRANCH   8  12
ATOM      9  O   UNL     1      32.792 -23.534 -16.406  0.00  0.00    -0.274 OA
ATOM     10  N   UNL     1      34.426 -22.743 -17.884  0.00  0.00    -0.232 N 
ATOM     11  N   UNL     1      36.667 -22.476 -17.134  0.00  0.00    -0.391 NA
ATOM     12  C   UNL     1      35.765 -22.400 -18.063  0.00  0.00    +0.210 C 
ATOM     13  C   UNL     1      34.966 -23.303 -15.578  0.00  0.00    +0.151 C 
ATOM     14  C   UNL     1      36.281 -22.931 -15.866  0.00  0.00    +0.123 C 
ATOM     15  C   UNL     1      33.951 -23.210 -16.649  0.00  0.00    +0.241 C 
ATOM     16  C   UNL     1      33.469 -22.629 -18.984  0.00  0.00    +0.122 C 
ATOM     17  C   UNL     1      34.613 -23.754 -14.301  0.00  0.00    -0.010 C 
ATOM     18  C   UNL     1      37.245 -23.018 -14.856  0.00  0.00    +0.028 C 
ATOM     19  C   UNL     1      35.584 -23.835 -13.304  0.00  0.00    -0.004 C 
ATOM     20  C   UNL     1      36.899 -23.467 -13.581  0.00  0.00    +0.002 C 
ENDBRANCH   8  12
ENDBRANCH   7   8
ENDBRANCH   4   7
BRANCH   1  21
ATOM     21  C   UNL     1      34.546 -17.734 -23.999  0.00  0.00    +0.047 C 
BRANCH  21  26
ATOM     22  S   UNL     1      34.699 -15.637 -22.209  0.00  0.00    -0.048 S 
ATOM     23  O   UNL     1      33.637 -15.606 -25.919  0.00  0.00    -0.274 OA
ATOM     24  O   UNL     1      33.029 -13.651 -21.778  0.00  0.00    -0.263 OA
ATOM     25  N   UNL     1      33.205 -14.494 -23.937  0.00  0.00    -0.246 N 
ATOM     26  C   UNL     1      34.840 -16.237 -23.920  0.00  0.00    +0.137 C 
ATOM     27  C   UNL     1      33.841 -15.433 -24.722  0.00  0.00    +0.239 C 
ATOM     28  C   UNL     1      33.502 -14.421 -22.602  0.00  0.00    +0.279 C 
ATOM     29  H   UNL     1      32.545 -13.881 -24.335  0.00  0.00    +0.158 HD
ENDBRANCH  21  26
ENDBRANCH   1  21
TORSDOF 5
ENDMDL
MODEL 6
REMARK VINA RESULT:     -11.2      2.105      3.352
REMARK  Name = 9889200
REMARK  5 active torsions:
REMARK  status: ('A' for Active; 'I' for Inactive)
REMARK    1  A    between atoms: C_1  and  C_21
REMARK    2  A    between atoms: C_4  and  O_7
REMARK    3  A    between atoms: O_7  and  C_8
REMARK    4  A    between atoms: C_8  and  C_12
REMARK    5  A    between atoms: C_21  and  C_26
REMARK                            x       y       z     vdW  Elec       q    Type
REMARK                         _______ _______ _______ _____ _____    ______ ____
ROOT
ATOM      1  C   UNL     1      35.006 -18.753 -22.575  0.00  0.00    -0.021 C 
ATOM      2  C   UNL     1      34.125 -19.562 -21.858  0.00  0.00    -0.001 C 
ATOM      3  C   UNL     1      36.313 -18.573 -22.124  0.00  0.00    -0.001 C 
ATOM      4  C   UNL     1      35.854 -20.005 -20.247  0.00  0.00    +0.139 C 
ATOM      5  C   UNL     1      34.551 -20.191 -20.688  0.00  0.00    +0.037 C 
ATOM      6  C   UNL     1      36.739 -19.203 -20.954  0.00  0.00    +0.037 C 
ENDROOT
BRANCH   4   7
ATOM      7  O   UNL     1      36.274 -20.626 -19.095  0.00  0.00    -0.466 OA
BRANCH   7   8
ATOM      8  C   UNL     1      36.180 -22.033 -19.050  0.00  0.00    +0.279 C 
BRANCH   8  12
ATOM      9  O   UNL     1      35.986 -23.142 -14.351  0.00  0.00    -0.274 OA
ATOM     10  N   UNL     1      36.104 -22.603 -16.625  0.00  0.00    -0.232 N 
ATOM     11  N   UNL     1      34.128 -22.629 -17.949  0.00  0.00    -0.391 NA
ATOM     12  C   UNL     1      35.406 -22.444 -17.821  0.00  0.00    +0.210 C 
ATOM     13  C   UNL     1      33.993 -23.196 -15.570  0.00  0.00    +0.151 C 
ATOM     14  C   UNL     1      33.394 -23.011 -16.819  0.00  0.00    +0.123 C 
ATOM     15  C   UNL     1      35.450 -22.982 -15.443  0.00  0.00    +0.241 C 
ATOM     16  C   UNL     1      37.547 -22.375 -16.564  0.00  0.00    +0.122 C 
ATOM     17  C   UNL     1      33.231 -23.578 -14.461  0.00  0.00    -0.010 C 
ATOM     18  C   UNL     1      32.015 -23.213 -16.943  0.00  0.00    +0.028 C 
ATOM     19  C   UNL     1      31.858 -23.775 -14.599  0.00  0.00    -0.004 C 
ATOM     20  C   UNL     1      31.250 -23.593 -15.840  0.00  0.00    +0.002 C 
ENDBRANCH   8  12
ENDBRANCH   7   8
ENDBRANCH   4   7
BRANCH   1  21
ATOM     21  C   UNL     1      34.550 -18.080 -23.825  0.00  0.00    +0.047 C 
BRANCH  21  26
ATOM     22  S   UNL     1      34.897 -15.901 -22.164  0.00  0.00    -0.048 S 
ATOM     23  O   UNL     1      33.605 -16.018 -25.799  0.00  0.00    -0.274 OA
ATOM     24  O   UNL     1      33.336 -13.828 -21.741  0.00  0.00    -0.263 OA
ATOM     25  N   UNL     1      33.343 -14.787 -23.858  0.00  0.00    -0.246 N 
ATOM     26  C   UNL     1      34.907 -16.595 -23.845  0.00  0.00    +0.137 C 
ATOM     27  C   UNL     1      33.891 -15.792 -24.628  0.00  0.00    +0.239 C 
ATOM     28  C   UNL     1      33.726 -14.658 -22.549  0.00  0.00    +0.279 C 
ATOM     29  H   UNL     1      32.683 -14.168 -24.247  0.00  0.00    +0.158 HD
ENDBRANCH  21  26
ENDBRANCH   1  21
TORSDOF 5
ENDMDL
MODEL 7
REMARK VINA RESULT:     -11.1      3.210     10.354
REMARK  Name = 9889200
REMARK  5 active torsions:
REMARK  status: ('A' for Active; 'I' for Inactive)
REMARK    1  A    between atoms: C_1  and  C_21
REMARK    2  A    between atoms: C_4  and  O_7
REMARK    3  A    between atoms: O_7  and  C_8
REMARK    4  A    between atoms: C_8  and  C_12
REMARK    5  A    between atoms: C_21  and  C_26
REMARK                            x       y       z     vdW  Elec       q    Type
REMARK                         _______ _______ _______ _____ _____    ______ ____
ROOT
ATOM      1  C   UNL     1      34.571 -22.485 -18.231  0.00  0.00    -0.021 C 
ATOM      2  C   UNL     1      35.717 -21.970 -18.837  0.00  0.00    -0.001 C 
ATOM      3  C   UNL     1      33.310 -22.102 -18.685  0.00  0.00    -0.001 C 
ATOM      4  C   UNL     1      34.341 -20.696 -20.342  0.00  0.00    +0.139 C 
ATOM      5  C   UNL     1      35.601 -21.070 -19.898  0.00  0.00    +0.037 C 
ATOM      6  C   UNL     1      33.193 -21.203 -19.746  0.00  0.00    +0.037 C 
ENDROOT
BRANCH   4   7
ATOM      7  O   UNL     1      34.226 -19.811 -21.388  0.00  0.00    -0.466 OA
BRANCH   7   8
ATOM      8  C   UNL     1      35.359 -19.029 -21.698  0.00  0.00    +0.279 C 
BRANCH   8  12
ATOM      9  O   UNL     1      33.665 -16.559 -25.490  0.00  0.00    -0.274 OA
ATOM     10  N   UNL     1      34.486 -17.775 -23.666  0.00  0.00    -0.232 N 
ATOM     11  N   UNL     1      34.959 -16.660 -21.620  0.00  0.00    -0.391 NA
ATOM     12  C   UNL     1      34.915 -17.737 -22.341  0.00  0.00    +0.210 C 
ATOM     13  C   UNL     1      34.102 -15.377 -23.521  0.00  0.00    +0.151 C 
ATOM     14  C   UNL     1      34.551 -15.452 -22.200  0.00  0.00    +0.123 C 
ATOM     15  C   UNL     1      34.058 -16.614 -24.328  0.00  0.00    +0.241 C 
ATOM     16  C   UNL     1      34.467 -19.033 -24.412  0.00  0.00    +0.122 C 
ATOM     17  C   UNL     1      33.701 -14.154 -24.071  0.00  0.00    -0.010 C 
ATOM     18  C   UNL     1      34.594 -14.283 -21.433  0.00  0.00    +0.028 C 
ATOM     19  C   UNL     1      33.749 -12.998 -23.294  0.00  0.00    -0.004 C 
ATOM     20  C   UNL     1      34.195 -13.062 -21.976  0.00  0.00    +0.002 C 
ENDBRANCH   8  12
ENDBRANCH   7   8
ENDBRANCH   4   7
BRANCH   1  21
ATOM     21  C   UNL     1      34.696 -23.445 -17.097  0.00  0.00    +0.047 C 
BRANCH  21  26
ATOM     22  S   UNL     1      36.745 -23.107 -15.278  0.00  0.00    -0.048 S 
ATOM     23  O   UNL     1      32.934 -23.192 -14.674  0.00  0.00    -0.274 OA
ATOM     24  O   UNL     1      37.085 -24.161 -12.893  0.00  0.00    -0.263 OA
ATOM     25  N   UNL     1      34.915 -23.733 -13.609  0.00  0.00    -0.246 N 
ATOM     26  C   UNL     1      35.036 -22.746 -15.783  0.00  0.00    +0.137 C 
ATOM     27  C   UNL     1      34.160 -23.238 -14.652  0.00  0.00    +0.239 C 
ATOM     28  C   UNL     1      36.281 -23.756 -13.720  0.00  0.00    +0.279 C 
ATOM     29  H   UNL     1      34.477 -24.066 -12.793  0.00  0.00    +0.158 HD
ENDBRANCH  21  26
ENDBRANCH   1  21
TORSDOF 5
ENDMDL
MODEL 8
REMARK VINA RESULT:     -10.9      4.079     10.206
REMARK  Name = 9889200
REMARK  5 active torsions:
REMARK  status: ('A' for Active; 'I' for Inactive)
REMARK    1  A    between atoms: C_1  and  C_21
REMARK    2  A    between atoms: C_4  and  O_7
REMARK    3  A    between atoms: O_7  and  C_8
REMARK    4  A    between atoms: C_8  and  C_12
REMARK    5  A    between atoms: C_21  and  C_26
REMARK                            x       y       z     vdW  Elec       q    Type
REMARK                         _______ _______ _______ _____ _____    ______ ____
ROOT
ATOM      1  C   UNL     1      35.561 -22.786 -16.694  0.00  0.00    -0.021 C 
ATOM      2  C   UNL     1      36.719 -22.022 -16.831  0.00  0.00    -0.001 C 
ATOM      3  C   UNL     1      34.596 -22.777 -17.701  0.00  0.00    -0.001 C 
ATOM      4  C   UNL     1      35.945 -21.243 -18.969  0.00  0.00    +0.139 C 
ATOM      5  C   UNL     1      36.912 -21.245 -17.974  0.00  0.00    +0.037 C 
ATOM      6  C   UNL     1      34.789 -22.001 -18.844  0.00  0.00    +0.037 C 
ENDROOT
BRANCH   4   7
ATOM      7  O   UNL     1      36.136 -20.479 -20.097  0.00  0.00    -0.466 OA
BRANCH   7   8
ATOM      8  C   UNL     1      35.089 -20.452 -21.042  0.00  0.00    +0.279 C 
BRANCH   8  12
ATOM      9  O   UNL     1      34.689 -17.404 -24.770  0.00  0.00    -0.274 OA
ATOM     10  N   UNL     1      34.885 -18.898 -22.979  0.00  0.00    -0.232 N 
ATOM     11  N   UNL     1      34.905 -18.072 -20.749  0.00  0.00    -0.391 NA
ATOM     12  C   UNL     1      34.952 -19.054 -21.596  0.00  0.00    +0.210 C 
ATOM     13  C   UNL     1      34.701 -16.499 -22.615  0.00  0.00    +0.151 C 
ATOM     14  C   UNL     1      34.778 -16.769 -21.246  0.00  0.00    +0.123 C 
ATOM     15  C   UNL     1      34.756 -17.630 -23.566  0.00  0.00    +0.241 C 
ATOM     16  C   UNL     1      34.945 -20.058 -23.868  0.00  0.00    +0.122 C 
ATOM     17  C   UNL     1      34.574 -15.186 -23.079  0.00  0.00    -0.010 C 
ATOM     18  C   UNL     1      34.726 -15.702 -20.343  0.00  0.00    +0.028 C 
ATOM     19  C   UNL     1      34.523 -14.132 -22.168  0.00  0.00    -0.004 C 
ATOM     20  C   UNL     1      34.599 -14.390 -20.800  0.00  0.00    +0.002 C 
ENDBRANCH   8  12
ENDBRANCH   7   8
ENDBRANCH   4   7
BRANCH   1  21
ATOM     21  C   UNL     1      35.355 -23.615 -15.472  0.00  0.00    +0.047 C 
BRANCH  21  26
ATOM     22  S   UNL     1      36.281 -26.105 -14.721  0.00  0.00    -0.048 S 
ATOM     23  O   UNL     1      37.492 -22.614 -13.609  0.00  0.00    -0.274 OA
ATOM     24  O   UNL     1      36.940 -27.023 -12.346  0.00  0.00    -0.263 OA
ATOM     25  N   UNL     1      37.307 -24.772 -12.798  0.00  0.00    -0.246 N 
ATOM     26  C   UNL     1      36.625 -24.350 -15.050  0.00  0.00    +0.137 C 
ATOM     27  C   UNL     1      37.186 -23.792 -13.761  0.00  0.00    +0.239 C 
ATOM     28  C   UNL     1      36.901 -26.049 -13.085  0.00  0.00    +0.279 C 
ATOM     29  H   UNL     1      37.684 -24.556 -11.915  0.00  0.00    +0.158 HD
ENDBRANCH  21  26
ENDBRANCH   1  21
TORSDOF 5
ENDMDL
MODEL 9
REMARK VINA RESULT:     -10.8      2.676      4.471
REMARK  Name = 9889200
REMARK  5 active torsions:
REMARK  status: ('A' for Active; 'I' for Inactive)
REMARK    1  A    between atoms: C_1  and  C_21
REMARK    2  A    between atoms: C_4  and  O_7
REMARK    3  A    between atoms: O_7  and  C_8
REMARK    4  A    between atoms: C_8  and  C_12
REMARK    5  A    between atoms: C_21  and  C_26
REMARK                            x       y       z     vdW  Elec       q    Type
REMARK                         _______ _______ _______ _____ _____    ______ ____
ROOT
ATOM      1  C   UNL     1      34.970 -19.838 -21.168  0.00  0.00    -0.021 C 
ATOM      2  C   UNL     1      36.337 -19.728 -20.918  0.00  0.00    -0.001 C 
ATOM      3  C   UNL     1      34.190 -20.712 -20.411  0.00  0.00    -0.001 C 
ATOM      4  C   UNL     1      36.141 -21.360 -19.163  0.00  0.00    +0.139 C 
ATOM      5  C   UNL     1      36.926 -20.494 -19.911  0.00  0.00    +0.037 C 
ATOM      6  C   UNL     1      34.778 -21.476 -19.403  0.00  0.00    +0.037 C 
ENDROOT
BRANCH   4   7
ATOM      7  O   UNL     1      36.721 -22.112 -18.169  0.00  0.00    -0.466 OA
BRANCH   7   8
ATOM      8  C   UNL     1      36.521 -21.688 -16.839  0.00  0.00    +0.279 C 
BRANCH   8  12
ATOM      9  O   UNL     1      34.444 -25.284 -14.369  0.00  0.00    -0.274 OA
ATOM     10  N   UNL     1      35.429 -23.535 -15.572  0.00  0.00    -0.232 N 
ATOM     11  N   UNL     1      37.785 -23.224 -15.489  0.00  0.00    -0.391 NA
ATOM     12  C   UNL     1      36.609 -22.879 -15.915  0.00  0.00    +0.210 C 
ATOM     13  C   UNL     1      36.766 -25.057 -14.225  0.00  0.00    +0.151 C 
ATOM     14  C   UNL     1      37.885 -24.327 -14.631  0.00  0.00    +0.123 C 
ATOM     15  C   UNL     1      35.434 -24.649 -14.719  0.00  0.00    +0.241 C 
ATOM     16  C   UNL     1      34.140 -23.081 -16.095  0.00  0.00    +0.122 C 
ATOM     17  C   UNL     1      36.900 -26.154 -13.367  0.00  0.00    -0.010 C 
ATOM     18  C   UNL     1      39.148 -24.709 -14.165  0.00  0.00    +0.028 C 
ATOM     19  C   UNL     1      38.164 -26.524 -12.911  0.00  0.00    -0.004 C 
ATOM     20  C   UNL     1      39.288 -25.803 -13.309  0.00  0.00    +0.002 C 
ENDBRANCH   8  12
ENDBRANCH   7   8
ENDBRANCH   4   7
BRANCH   1  21
ATOM     21  C   UNL     1      34.341 -19.022 -22.246  0.00  0.00    +0.047 C 
BRANCH  21  26
ATOM     22  S   UNL     1      35.111 -16.535 -21.325  0.00  0.00    -0.048 S 
ATOM     23  O   UNL     1      34.553 -17.729 -24.952  0.00  0.00    -0.274 OA
ATOM     24  O   UNL     1      34.319 -14.137 -22.057  0.00  0.00    -0.263 OA
ATOM     25  N   UNL     1      34.382 -15.815 -23.665  0.00  0.00    -0.246 N 
ATOM     26  C   UNL     1      35.189 -17.808 -22.621  0.00  0.00    +0.137 C 
ATOM     27  C   UNL     1      34.678 -17.145 -23.881  0.00  0.00    +0.239 C 
ATOM     28  C   UNL     1      34.538 -15.287 -22.410  0.00  0.00    +0.279 C 
ATOM     29  H   UNL     1      34.062 -15.251 -24.406  0.00  0.00    +0.158 HD
ENDBRANCH  21  26
ENDBRANCH   1  21
TORSDOF 5
ENDMDL
