MODEL 1
REMARK VINA RESULT:     -11.4      0.000      0.000
REMARK  Name = 5326866
REMARK  5 active torsions:
REMARK  status: ('A' for Active; 'I' for Inactive)
REMARK    1  A    between atoms: N_5  and  C_14
REMARK    2  A    between atoms: C_6  and  C_28
REMARK    3  A    between atoms: C_15  and  C_20
REMARK    4  A    between atoms: C_20  and  O_21
REMARK    5  A    between atoms: O_21  and  C_23
REMARK                            x       y       z     vdW  Elec       q    Type
REMARK                         _______ _______ _______ _____ _____    ______ ____
ROOT
ATOM      1  O   UNL     1      34.345 -21.241 -19.534  0.00  0.00    -0.252 OA
ATOM      2  N   UNL     1      35.208 -23.583 -16.138  0.00  0.00    -0.239 N 
ATOM      3  N   UNL     1      34.994 -22.813 -17.219  0.00  0.00    -0.166 NA
ATOM      4  N   UNL     1      36.398 -21.289 -18.404  0.00  0.00    -0.252 N 
ATOM      5  N   UNL     1      36.143 -19.931 -20.253  0.00  0.00    -0.268 N 
ATOM      6  C   UNL     1      36.444 -23.431 -15.684  0.00  0.00    +0.045 C 
ATOM      7  C   UNL     1      37.120 -22.565 -16.421  0.00  0.00    +0.048 C 
ATOM      8  C   UNL     1      36.164 -22.193 -17.387  0.00  0.00    +0.154 C 
ATOM      9  C   UNL     1      35.504 -20.859 -19.413  0.00  0.00    +0.309 C 
ATOM     10  H   UNL     1      34.536 -24.181 -15.737  0.00  0.00    +0.174 HD
ATOM     11  H   UNL     1      37.301 -20.896 -18.431  0.00  0.00    +0.158 HD
ATOM     12  H   UNL     1      37.079 -19.722 -20.031  0.00  0.00    +0.156 HD
ENDROOT
BRANCH   5  14
ATOM     13 CL   UNL     1      33.895 -17.168 -24.970  0.00  0.00    -0.082 Cl
ATOM     14  C   UNL     1      35.608 -19.261 -21.378  0.00  0.00    +0.051 C 
ATOM     15  C   UNL     1      35.060 -17.216 -22.507  0.00  0.00    +0.033 C 
ATOM     16  C   UNL     1      35.590 -17.877 -21.397  0.00  0.00    +0.015 C 
ATOM     17  C   UNL     1      35.110 -20.005 -22.435  0.00  0.00    +0.016 C 
ATOM     18  C   UNL     1      34.556 -17.951 -23.581  0.00  0.00    +0.057 C 
ATOM     19  C   UNL     1      34.581 -19.345 -23.544  0.00  0.00    +0.012 C 
BRANCH  15  20
ATOM     20  C   UNL     1      35.053 -15.722 -22.506  0.00  0.00    +0.233 C 
BRANCH  20  21
ATOM     21  O   UNL     1      34.345 -15.257 -21.365  0.00  0.00    -0.469 OA
BRANCH  21  23
ATOM     22  N   UNL     1      32.834 -12.336 -22.937  0.00  0.00    -0.239 NA
ATOM     23  C   UNL     1      33.534 -14.167 -21.543  0.00  0.00    +0.158 C 
ATOM     24  C   UNL     1      32.632 -13.796 -20.562  0.00  0.00    +0.040 C 
ATOM     25  C   UNL     1      33.604 -13.422 -22.700  0.00  0.00    +0.136 C 
ATOM     26  C   UNL     1      31.823 -12.685 -20.769  0.00  0.00    +0.024 C 
ATOM     27  C   UNL     1      31.961 -11.995 -21.963  0.00  0.00    +0.099 C 
ENDBRANCH  21  23
ENDBRANCH  20  21
ENDBRANCH  15  20
ENDBRANCH   5  14
BRANCH   6  28
ATOM     28  C   UNL     1      36.899 -24.230 -14.438  0.00  0.00    +0.033 C 
ATOM     29  C   UNL     1      38.382 -24.632 -14.585  0.00  0.00    +0.006 C 
ATOM     30  C   UNL     1      36.035 -25.501 -14.286  0.00  0.00    +0.006 C 
ATOM     31  C   UNL     1      36.771 -23.433 -13.121  0.00  0.00    +0.006 C 
ENDBRANCH   6  28
TORSDOF 5
ENDMDL
MODEL 2
REMARK VINA RESULT:     -11.3      3.227     11.378
REMARK  Name = 5326866
REMARK  5 active torsions:
REMARK  status: ('A' for Active; 'I' for Inactive)
REMARK    1  A    between atoms: N_5  and  C_14
REMARK    2  A    between atoms: C_6  and  C_28
REMARK    3  A    between atoms: C_15  and  C_20
REMARK    4  A    between atoms: C_20  and  O_21
REMARK    5  A    between atoms: O_21  and  C_23
REMARK                            x       y       z     vdW  Elec       q    Type
REMARK                         _______ _______ _______ _____ _____    ______ ____
ROOT
ATOM      1  O   UNL     1      32.324 -13.748 -22.953  0.00  0.00    -0.252 OA
ATOM      2  N   UNL     1      31.471  -9.640 -22.562  0.00  0.00    -0.239 N 
ATOM      3  N   UNL     1      31.804 -10.934 -22.701  0.00  0.00    -0.166 NA
ATOM      4  N   UNL     1      33.863 -12.008 -23.258  0.00  0.00    -0.252 N 
ATOM      5  N   UNL     1      34.547 -14.196 -23.519  0.00  0.00    -0.268 N 
ATOM      6  C   UNL     1      32.513  -8.853 -22.788  0.00  0.00    +0.045 C 
ATOM      7  C   UNL     1      33.590  -9.563 -23.085  0.00  0.00    +0.048 C 
ATOM      8  C   UNL     1      33.100 -10.882 -23.021  0.00  0.00    +0.154 C 
ATOM      9  C   UNL     1      33.458 -13.363 -23.216  0.00  0.00    +0.309 C 
ATOM     10  H   UNL     1      30.571  -9.318 -22.325  0.00  0.00    +0.174 HD
ATOM     11  H   UNL     1      34.808 -11.847 -23.484  0.00  0.00    +0.158 HD
ATOM     12  H   UNL     1      35.399 -13.740 -23.709  0.00  0.00    +0.156 HD
ENDROOT
BRANCH   5  14
ATOM     13 CL   UNL     1      34.640 -20.098 -23.834  0.00  0.00    -0.082 Cl
ATOM     14  C   UNL     1      34.572 -15.609 -23.584  0.00  0.00    +0.051 C 
ATOM     15  C   UNL     1      35.006 -17.727 -22.543  0.00  0.00    +0.033 C 
ATOM     16  C   UNL     1      34.981 -16.333 -22.477  0.00  0.00    +0.015 C 
ATOM     17  C   UNL     1      34.189 -16.239 -24.757  0.00  0.00    +0.016 C 
ATOM     18  C   UNL     1      34.622 -18.376 -23.716  0.00  0.00    +0.057 C 
ATOM     19  C   UNL     1      34.214 -17.632 -24.823  0.00  0.00    +0.012 C 
BRANCH  15  20
ATOM     20  C   UNL     1      35.449 -18.486 -21.334  0.00  0.00    +0.233 C 
BRANCH  20  21
ATOM     21  O   UNL     1      34.307 -18.942 -20.621  0.00  0.00    -0.469 OA
BRANCH  21  23
ATOM     22  N   UNL     1      33.149 -22.176 -19.402  0.00  0.00    -0.239 NA
ATOM     23  C   UNL     1      34.346 -20.229 -20.153  0.00  0.00    +0.158 C 
ATOM     24  C   UNL     1      35.557 -20.868 -19.956  0.00  0.00    +0.040 C 
ATOM     25  C   UNL     1      33.181 -20.907 -19.868  0.00  0.00    +0.136 C 
ATOM     26  C   UNL     1      35.566 -22.173 -19.478  0.00  0.00    +0.024 C 
ATOM     27  C   UNL     1      34.346 -22.778 -19.219  0.00  0.00    +0.099 C 
ENDBRANCH  21  23
ENDBRANCH  20  21
ENDBRANCH  15  20
ENDBRANCH   5  14
BRANCH   6  28
ATOM     28  C   UNL     1      32.344  -7.319 -22.681  0.00  0.00    +0.033 C 
ATOM     29  C   UNL     1      33.725  -6.632 -22.753  0.00  0.00    +0.006 C 
ATOM     30  C   UNL     1      31.661  -6.957 -21.344  0.00  0.00    +0.006 C 
ATOM     31  C   UNL     1      31.478  -6.719 -23.811  0.00  0.00    +0.006 C 
ENDBRANCH   6  28
TORSDOF 5
ENDMDL
MODEL 3
REMARK VINA RESULT:     -10.1      4.710     10.463
REMARK  Name = 5326866
REMARK  5 active torsions:
REMARK  status: ('A' for Active; 'I' for Inactive)
REMARK    1  A    between atoms: N_5  and  C_14
REMARK    2  A    between atoms: C_6  and  C_28
REMARK    3  A    between atoms: C_15  and  C_20
REMARK    4  A    between atoms: C_20  and  O_21
REMARK    5  A    between atoms: O_21  and  C_23
REMARK                            x       y       z     vdW  Elec       q    Type
REMARK                         _______ _______ _______ _____ _____    ______ ____
ROOT
ATOM      1  O   UNL     1      35.151 -23.115 -16.935  0.00  0.00    -0.252 OA
ATOM      2  N   UNL     1      34.569 -20.663 -20.313  0.00  0.00    -0.239 N 
ATOM      3  N   UNL     1      34.815 -21.424 -19.232  0.00  0.00    -0.166 NA
ATOM      4  N   UNL     1      36.769 -21.714 -17.890  0.00  0.00    -0.252 N 
ATOM      5  N   UNL     1      37.302 -22.974 -16.031  0.00  0.00    -0.268 N 
ATOM      6  C   UNL     1      35.641 -19.965 -20.657  0.00  0.00    +0.045 C 
ATOM      7  C   UNL     1      36.653 -20.212 -19.842  0.00  0.00    +0.048 C 
ATOM      8  C   UNL     1      36.090 -21.145 -18.949  0.00  0.00    +0.154 C 
ATOM      9  C   UNL     1      36.287 -22.653 -16.947  0.00  0.00    +0.309 C 
ATOM     10  H   UNL     1      33.705 -20.630 -20.785  0.00  0.00    +0.174 HD
ATOM     11  H   UNL     1      37.705 -21.432 -17.776  0.00  0.00    +0.158 HD
ATOM     12  H   UNL     1      38.166 -22.521 -16.168  0.00  0.00    +0.156 HD
ENDROOT
BRANCH   5  14
ATOM     13 CL   UNL     1      37.073 -26.714 -11.459  0.00  0.00    -0.082 Cl
ATOM     14  C   UNL     1      37.238 -23.867 -14.936  0.00  0.00    +0.051 C 
ATOM     15  C   UNL     1      35.993 -24.863 -13.143  0.00  0.00    +0.033 C 
ATOM     16  C   UNL     1      36.055 -23.983 -14.224  0.00  0.00    +0.015 C 
ATOM     17  C   UNL     1      38.360 -24.605 -14.597  0.00  0.00    +0.016 C 
ATOM     18  C   UNL     1      37.114 -25.614 -12.789  0.00  0.00    +0.057 C 
ATOM     19  C   UNL     1      38.297 -25.484 -13.517  0.00  0.00    +0.012 C 
BRANCH  15  20
ATOM     20  C   UNL     1      34.706 -24.972 -12.390  0.00  0.00    +0.233 C 
BRANCH  20  21
ATOM     21  O   UNL     1      33.861 -23.887 -12.747  0.00  0.00    -0.469 OA
BRANCH  21  23
ATOM     22  N   UNL     1      30.902 -25.680 -13.894  0.00  0.00    -0.239 NA
ATOM     23  C   UNL     1      32.744 -24.190 -13.481  0.00  0.00    +0.158 C 
ATOM     24  C   UNL     1      32.336 -23.361 -14.511  0.00  0.00    +0.040 C 
ATOM     25  C   UNL     1      32.011 -25.324 -13.208  0.00  0.00    +0.136 C 
ATOM     26  C   UNL     1      31.200 -23.694 -15.240  0.00  0.00    +0.024 C 
ATOM     27  C   UNL     1      30.524 -24.854 -14.895  0.00  0.00    +0.099 C 
ENDBRANCH  21  23
ENDBRANCH  20  21
ENDBRANCH  15  20
ENDBRANCH   5  14
BRANCH   6  28
ATOM     28  C   UNL     1      35.571 -19.023 -21.883  0.00  0.00    +0.033 C 
ATOM     29  C   UNL     1      36.984 -18.821 -22.471  0.00  0.00    +0.006 C 
ATOM     30  C   UNL     1      34.992 -17.655 -21.461  0.00  0.00    +0.006 C 
ATOM     31  C   UNL     1      34.678 -19.563 -23.020  0.00  0.00    +0.006 C 
ENDBRANCH   6  28
TORSDOF 5
ENDMDL
MODEL 4
REMARK VINA RESULT:     -10.0      4.740     11.031
REMARK  Name = 5326866
REMARK  5 active torsions:
REMARK  status: ('A' for Active; 'I' for Inactive)
REMARK    1  A    between atoms: N_5  and  C_14
REMARK    2  A    between atoms: C_6  and  C_28
REMARK    3  A    between atoms: C_15  and  C_20
REMARK    4  A    between atoms: C_20  and  O_21
REMARK    5  A    between atoms: O_21  and  C_23
REMARK                            x       y       z     vdW  Elec       q    Type
REMARK                         _______ _______ _______ _____ _____    ______ ____
ROOT
ATOM      1  O   UNL     1      33.905 -22.767 -17.411  0.00  0.00    -0.252 OA
ATOM      2  N   UNL     1      35.716 -20.676 -20.590  0.00  0.00    -0.239 N 
ATOM      3  N   UNL     1      35.081 -21.320 -19.596  0.00  0.00    -0.166 NA
ATOM      4  N   UNL     1      32.778 -21.435 -18.976  0.00  0.00    -0.252 N 
ATOM      5  N   UNL     1      31.585 -22.498 -17.311  0.00  0.00    -0.268 N 
ATOM      6  C   UNL     1      34.861 -19.992 -21.336  0.00  0.00    +0.045 C 
ATOM      7  C   UNL     1      33.622 -20.134 -20.894  0.00  0.00    +0.048 C 
ATOM      8  C   UNL     1      33.802 -20.985 -19.785  0.00  0.00    +0.154 C 
ATOM      9  C   UNL     1      32.865 -22.287 -17.849  0.00  0.00    +0.309 C 
ATOM     10  H   UNL     1      36.688 -20.709 -20.744  0.00  0.00    +0.174 HD
ATOM     11  H   UNL     1      31.874 -21.124 -19.212  0.00  0.00    +0.158 HD
ATOM     12  H   UNL     1      30.843 -22.045 -17.772  0.00  0.00    +0.156 HD
ENDROOT
BRANCH   5  14
ATOM     13 CL   UNL     1      30.065 -25.778 -12.634  0.00  0.00    -0.082 Cl
ATOM     14  C   UNL     1      31.230 -23.282 -16.188  0.00  0.00    +0.051 C 
ATOM     15  C   UNL     1      31.849 -24.378 -14.145  0.00  0.00    +0.033 C 
ATOM     16  C   UNL     1      32.199 -23.603 -15.252  0.00  0.00    +0.015 C 
ATOM     17  C   UNL     1      29.921 -23.714 -16.050  0.00  0.00    +0.016 C 
ATOM     18  C   UNL     1      30.535 -24.820 -13.991  0.00  0.00    +0.057 C 
ATOM     19  C   UNL     1      29.571 -24.487 -14.943  0.00  0.00    +0.012 C 
BRANCH  15  20
ATOM     20  C   UNL     1      32.911 -24.711 -13.147  0.00  0.00    +0.233 C 
BRANCH  20  21
ATOM     21  O   UNL     1      34.175 -24.304 -13.655  0.00  0.00    -0.469 OA
BRANCH  21  23
ATOM     22  N   UNL     1      36.559 -25.684 -11.268  0.00  0.00    -0.239 NA
ATOM     23  C   UNL     1      35.275 -24.960 -13.168  0.00  0.00    +0.158 C 
ATOM     24  C   UNL     1      36.186 -25.538 -14.034  0.00  0.00    +0.040 C 
ATOM     25  C   UNL     1      35.494 -25.053 -11.812  0.00  0.00    +0.136 C 
ATOM     26  C   UNL     1      37.295 -26.195 -13.513  0.00  0.00    +0.024 C 
ATOM     27  C   UNL     1      37.434 -26.240 -12.135  0.00  0.00    +0.099 C 
ENDBRANCH  21  23
ENDBRANCH  20  21
ENDBRANCH  15  20
ENDBRANCH   5  14
BRANCH   6  28
ATOM     28  C   UNL     1      35.388 -19.174 -22.540  0.00  0.00    +0.033 C 
ATOM     29  C   UNL     1      34.974 -19.857 -23.860  0.00  0.00    +0.006 C 
ATOM     30  C   UNL     1      36.928 -19.076 -22.474  0.00  0.00    +0.006 C 
ATOM     31  C   UNL     1      34.842 -17.730 -22.583  0.00  0.00    +0.006 C 
ENDBRANCH   6  28
TORSDOF 5
ENDMDL
MODEL 5
REMARK VINA RESULT:      -9.6      5.526     14.380
REMARK  Name = 5326866
REMARK  5 active torsions:
REMARK  status: ('A' for Active; 'I' for Inactive)
REMARK    1  A    between atoms: N_5  and  C_14
REMARK    2  A    between atoms: C_6  and  C_28
REMARK    3  A    between atoms: C_15  and  C_20
REMARK    4  A    between atoms: C_20  and  O_21
REMARK    5  A    between atoms: O_21  and  C_23
REMARK                            x       y       z     vdW  Elec       q    Type
REMARK                         _______ _______ _______ _____ _____    ______ ____
ROOT
ATOM      1  O   UNL     1      33.994  -8.832 -23.240  0.00  0.00    -0.252 OA
ATOM      2  N   UNL     1      34.471  -5.190 -25.305  0.00  0.00    -0.239 N 
ATOM      3  N   UNL     1      34.256  -6.339 -24.642  0.00  0.00    -0.166 NA
ATOM      4  N   UNL     1      32.273  -7.324 -23.746  0.00  0.00    -0.252 N 
ATOM      5  N   UNL     1      31.787  -9.270 -22.606  0.00  0.00    -0.268 N 
ATOM      6  C   UNL     1      33.343  -4.515 -25.465  0.00  0.00    +0.045 C 
ATOM      7  C   UNL     1      32.320  -5.160 -24.928  0.00  0.00    +0.048 C 
ATOM      8  C   UNL     1      32.940  -6.316 -24.414  0.00  0.00    +0.154 C 
ATOM      9  C   UNL     1      32.811  -8.514 -23.199  0.00  0.00    +0.309 C 
ATOM     10  H   UNL     1      35.352  -4.891 -25.629  0.00  0.00    +0.174 HD
ATOM     11  H   UNL     1      31.302  -7.200 -23.638  0.00  0.00    +0.158 HD
ATOM     12  H   UNL     1      30.882  -8.884 -22.652  0.00  0.00    +0.156 HD
ENDROOT
BRANCH   5  14
ATOM     13 CL   UNL     1      32.221 -14.470 -19.828  0.00  0.00    -0.082 Cl
ATOM     14  C   UNL     1      31.895 -10.519 -21.949  0.00  0.00    +0.051 C 
ATOM     15  C   UNL     1      32.440 -12.855 -22.011  0.00  0.00    +0.033 C 
ATOM     16  C   UNL     1      32.335 -11.623 -22.660  0.00  0.00    +0.015 C 
ATOM     17  C   UNL     1      31.555 -10.611 -20.609  0.00  0.00    +0.016 C 
ATOM     18  C   UNL     1      32.103 -12.964 -20.663  0.00  0.00    +0.057 C 
ATOM     19  C   UNL     1      31.660 -11.842 -19.962  0.00  0.00    +0.012 C 
BRANCH  15  20
ATOM     20  C   UNL     1      32.918 -14.032 -22.799  0.00  0.00    +0.233 C 
BRANCH  20  21
ATOM     21  O   UNL     1      34.285 -14.275 -22.496  0.00  0.00    -0.469 OA
BRANCH  21  23
ATOM     22  N   UNL     1      35.264 -17.330 -20.764  0.00  0.00    -0.239 NA
ATOM     23  C   UNL     1      34.651 -15.581 -22.297  0.00  0.00    +0.158 C 
ATOM     24  C   UNL     1      34.779 -16.443 -23.371  0.00  0.00    +0.040 C 
ATOM     25  C   UNL     1      34.898 -16.055 -21.028  0.00  0.00    +0.136 C 
ATOM     26  C   UNL     1      35.154 -17.762 -23.141  0.00  0.00    +0.024 C 
ATOM     27  C   UNL     1      35.382 -18.153 -21.831  0.00  0.00    +0.099 C 
ENDBRANCH  21  23
ENDBRANCH  20  21
ENDBRANCH  15  20
ENDBRANCH   5  14
BRANCH   6  28
ATOM     28  C   UNL     1      33.369  -3.156 -26.206  0.00  0.00    +0.033 C 
ATOM     29  C   UNL     1      32.836  -2.043 -25.279  0.00  0.00    +0.006 C 
ATOM     30  C   UNL     1      32.491  -3.232 -27.474  0.00  0.00    +0.006 C 
ATOM     31  C   UNL     1      34.784  -2.734 -26.658  0.00  0.00    +0.006 C 
ENDBRANCH   6  28
TORSDOF 5
ENDMDL
MODEL 6
REMARK VINA RESULT:      -9.6      5.611     14.568
REMARK  Name = 5326866
REMARK  5 active torsions:
REMARK  status: ('A' for Active; 'I' for Inactive)
REMARK    1  A    between atoms: N_5  and  C_14
REMARK    2  A    between atoms: C_6  and  C_28
REMARK    3  A    between atoms: C_15  and  C_20
REMARK    4  A    between atoms: C_20  and  O_21
REMARK    5  A    between atoms: O_21  and  C_23
REMARK                            x       y       z     vdW  Elec       q    Type
REMARK                         _______ _______ _______ _____ _____    ______ ____
ROOT
ATOM      1  O   UNL     1      31.128  -8.138 -22.056  0.00  0.00    -0.252 OA
ATOM      2  N   UNL     1      30.900  -4.262 -23.693  0.00  0.00    -0.239 N 
ATOM      3  N   UNL     1      31.015  -5.514 -23.218  0.00  0.00    -0.166 NA
ATOM      4  N   UNL     1      32.275  -7.401 -23.961  0.00  0.00    -0.252 N 
ATOM      5  N   UNL     1      32.549  -9.573 -23.233  0.00  0.00    -0.268 N 
ATOM      6  C   UNL     1      31.645  -4.094 -24.776  0.00  0.00    +0.045 C 
ATOM      7  C   UNL     1      32.293  -5.206 -25.086  0.00  0.00    +0.048 C 
ATOM      8  C   UNL     1      31.866  -6.087 -24.073  0.00  0.00    +0.154 C 
ATOM      9  C   UNL     1      31.902  -8.352 -22.982  0.00  0.00    +0.309 C 
ATOM     10  H   UNL     1      30.338  -3.562 -23.289  0.00  0.00    +0.174 HD
ATOM     11  H   UNL     1      32.907  -7.714 -24.648  0.00  0.00    +0.158 HD
ATOM     12  H   UNL     1      33.144  -9.593 -24.017  0.00  0.00    +0.156 HD
ENDROOT
BRANCH   5  14
ATOM     13 CL   UNL     1      32.124 -14.585 -20.128  0.00  0.00    -0.082 Cl
ATOM     14  C   UNL     1      32.453 -10.777 -22.497  0.00  0.00    +0.051 C 
ATOM     15  C   UNL     1      32.828 -13.141 -22.329  0.00  0.00    +0.033 C 
ATOM     16  C   UNL     1      32.925 -11.953 -23.055  0.00  0.00    +0.015 C 
ATOM     17  C   UNL     1      31.884 -10.755 -21.234  0.00  0.00    +0.016 C 
ATOM     18  C   UNL     1      32.259 -13.136 -21.056  0.00  0.00    +0.057 C 
ATOM     19  C   UNL     1      31.787 -11.942 -20.508  0.00  0.00    +0.012 C 
BRANCH  15  20
ATOM     20  C   UNL     1      33.346 -14.397 -22.952  0.00  0.00    +0.233 C 
BRANCH  20  21
ATOM     21  O   UNL     1      34.592 -14.737 -22.358  0.00  0.00    -0.469 OA
BRANCH  21  23
ATOM     22  N   UNL     1      35.415 -17.894 -20.733  0.00  0.00    -0.239 NA
ATOM     23  C   UNL     1      34.858 -16.072 -22.201  0.00  0.00    +0.158 C 
ATOM     24  C   UNL     1      34.846 -16.922 -23.292  0.00  0.00    +0.040 C 
ATOM     25  C   UNL     1      35.142 -16.588 -20.956  0.00  0.00    +0.136 C 
ATOM     26  C   UNL     1      35.122 -18.272 -23.103  0.00  0.00    +0.024 C 
ATOM     27  C   UNL     1      35.397 -18.704 -21.816  0.00  0.00    +0.099 C 
ENDBRANCH  21  23
ENDBRANCH  20  21
ENDBRANCH  15  20
ENDBRANCH   5  14
BRANCH   6  28
ATOM     28  C   UNL     1      31.657  -2.718 -25.485  0.00  0.00    +0.033 C 
ATOM     29  C   UNL     1      32.686  -1.788 -24.808  0.00  0.00    +0.006 C 
ATOM     30  C   UNL     1      30.255  -2.076 -25.406  0.00  0.00    +0.006 C 
ATOM     31  C   UNL     1      32.034  -2.804 -26.980  0.00  0.00    +0.006 C 
ENDBRANCH   6  28
TORSDOF 5
ENDMDL
MODEL 7
REMARK VINA RESULT:      -9.5      5.130      9.044
REMARK  Name = 5326866
REMARK  5 active torsions:
REMARK  status: ('A' for Active; 'I' for Inactive)
REMARK    1  A    between atoms: N_5  and  C_14
REMARK    2  A    between atoms: C_6  and  C_28
REMARK    3  A    between atoms: C_15  and  C_20
REMARK    4  A    between atoms: C_20  and  O_21
REMARK    5  A    between atoms: O_21  and  C_23
REMARK                            x       y       z     vdW  Elec       q    Type
REMARK                         _______ _______ _______ _____ _____    ______ ____
ROOT
ATOM      1  O   UNL     1      33.621 -12.965 -20.997  0.00  0.00    -0.252 OA
ATOM      2  N   UNL     1      35.000 -16.934 -20.668  0.00  0.00    -0.239 N 
ATOM      3  N   UNL     1      34.565 -15.673 -20.838  0.00  0.00    -0.166 NA
ATOM      4  N   UNL     1      34.194 -14.356 -22.794  0.00  0.00    -0.252 N 
ATOM      5  N   UNL     1      33.454 -12.209 -23.203  0.00  0.00    -0.268 N 
ATOM      6  C   UNL     1      35.258 -17.508 -21.834  0.00  0.00    +0.045 C 
ATOM      7  C   UNL     1      35.015 -16.681 -22.838  0.00  0.00    +0.048 C 
ATOM      8  C   UNL     1      34.577 -15.524 -22.165  0.00  0.00    +0.154 C 
ATOM      9  C   UNL     1      33.742 -13.152 -22.203  0.00  0.00    +0.309 C 
ATOM     10  H   UNL     1      35.112 -17.371 -19.793  0.00  0.00    +0.174 HD
ATOM     11  H   UNL     1      34.242 -14.362 -23.778  0.00  0.00    +0.158 HD
ATOM     12  H   UNL     1      33.601 -12.505 -24.131  0.00  0.00    +0.156 HD
ENDROOT
BRANCH   5  14
ATOM     13 CL   UNL     1      31.434  -6.696 -22.515  0.00  0.00    -0.082 Cl
ATOM     14  C   UNL     1      32.979 -10.886 -23.042  0.00  0.00    +0.051 C 
ATOM     15  C   UNL     1      33.368  -8.519 -23.115  0.00  0.00    +0.033 C 
ATOM     16  C   UNL     1      33.837  -9.824 -23.276  0.00  0.00    +0.015 C 
ATOM     17  C   UNL     1      31.667 -10.681 -22.650  0.00  0.00    +0.016 C 
ATOM     18  C   UNL     1      32.049  -8.296 -22.722  0.00  0.00    +0.057 C 
ATOM     19  C   UNL     1      31.198  -9.377 -22.490  0.00  0.00    +0.012 C 
BRANCH  15  20
ATOM     20  C   UNL     1      34.312  -7.390 -23.375  0.00  0.00    +0.233 C 
BRANCH  20  21
ATOM     21  O   UNL     1      34.781  -7.468 -24.715  0.00  0.00    -0.469 OA
BRANCH  21  23
ATOM     22  N   UNL     1      34.096  -5.736 -27.847  0.00  0.00    -0.239 NA
ATOM     23  C   UNL     1      34.339  -6.503 -25.581  0.00  0.00    +0.158 C 
ATOM     24  C   UNL     1      33.718  -5.363 -25.103  0.00  0.00    +0.040 C 
ATOM     25  C   UNL     1      34.507  -6.650 -26.940  0.00  0.00    +0.136 C 
ATOM     26  C   UNL     1      33.282  -4.399 -26.004  0.00  0.00    +0.024 C 
ATOM     27  C   UNL     1      33.492  -4.631 -27.355  0.00  0.00    +0.099 C 
ENDBRANCH  21  23
ENDBRANCH  20  21
ENDBRANCH  15  20
ENDBRANCH   5  14
BRANCH   6  28
ATOM     28  C   UNL     1      35.775 -18.967 -21.864  0.00  0.00    +0.033 C 
ATOM     29  C   UNL     1      37.312 -18.982 -21.720  0.00  0.00    +0.006 C 
ATOM     30  C   UNL     1      35.378 -19.637 -23.198  0.00  0.00    +0.006 C 
ATOM     31  C   UNL     1      35.203 -19.842 -20.727  0.00  0.00    +0.006 C 
ENDBRANCH   6  28
TORSDOF 5
ENDMDL
MODEL 8
REMARK VINA RESULT:      -9.5      5.120      8.064
REMARK  Name = 5326866
REMARK  5 active torsions:
REMARK  status: ('A' for Active; 'I' for Inactive)
REMARK    1  A    between atoms: N_5  and  C_14
REMARK    2  A    between atoms: C_6  and  C_28
REMARK    3  A    between atoms: C_15  and  C_20
REMARK    4  A    between atoms: C_20  and  O_21
REMARK    5  A    between atoms: O_21  and  C_23
REMARK                            x       y       z     vdW  Elec       q    Type
REMARK                         _______ _______ _______ _____ _____    ______ ____
ROOT
ATOM      1  O   UNL     1      34.427 -12.980 -21.374  0.00  0.00    -0.252 OA
ATOM      2  N   UNL     1      34.978 -17.089 -20.619  0.00  0.00    -0.239 N 
ATOM      3  N   UNL     1      34.804 -15.792 -20.923  0.00  0.00    -0.166 NA
ATOM      4  N   UNL     1      34.654 -14.642 -23.010  0.00  0.00    -0.252 N 
ATOM      5  N   UNL     1      34.355 -12.444 -23.648  0.00  0.00    -0.268 N 
ATOM      6  C   UNL     1      35.081 -17.825 -21.716  0.00  0.00    +0.045 C 
ATOM      7  C   UNL     1      34.983 -17.077 -22.803  0.00  0.00    +0.048 C 
ATOM      8  C   UNL     1      34.808 -15.790 -22.259  0.00  0.00    +0.154 C 
ATOM      9  C   UNL     1      34.473 -13.315 -22.552  0.00  0.00    +0.309 C 
ATOM     10  H   UNL     1      35.024 -17.445 -19.702  0.00  0.00    +0.174 HD
ATOM     11  H   UNL     1      34.671 -14.762 -23.988  0.00  0.00    +0.158 HD
ATOM     12  H   UNL     1      34.412 -12.861 -24.538  0.00  0.00    +0.156 HD
ENDROOT
BRANCH   5  14
ATOM     13 CL   UNL     1      33.599  -6.582 -23.586  0.00  0.00    -0.082 Cl
ATOM     14  C   UNL     1      34.165 -11.043 -23.630  0.00  0.00    +0.051 C 
ATOM     15  C   UNL     1      32.711  -9.150 -23.381  0.00  0.00    +0.033 C 
ATOM     16  C   UNL     1      32.898 -10.533 -23.397  0.00  0.00    +0.015 C 
ATOM     17  C   UNL     1      35.249 -10.209 -23.850  0.00  0.00    +0.016 C 
ATOM     18  C   UNL     1      33.793  -8.297 -23.599  0.00  0.00    +0.057 C 
ATOM     19  C   UNL     1      35.062  -8.827 -23.834  0.00  0.00    +0.012 C 
BRANCH  15  20
ATOM     20  C   UNL     1      31.335  -8.623 -23.126  0.00  0.00    +0.233 C 
BRANCH  20  21
ATOM     21  O   UNL     1      31.270  -8.102 -21.805  0.00  0.00    -0.469 OA
BRANCH  21  23
ATOM     22  N   UNL     1      32.592  -9.416 -18.674  0.00  0.00    -0.239 NA
ATOM     23  C   UNL     1      31.522  -8.978 -20.782  0.00  0.00    +0.158 C 
ATOM     24  C   UNL     1      30.995 -10.257 -20.809  0.00  0.00    +0.040 C 
ATOM     25  C   UNL     1      32.304  -8.601 -19.713  0.00  0.00    +0.136 C 
ATOM     26  C   UNL     1      31.269 -11.125 -19.758  0.00  0.00    +0.024 C 
ATOM     27  C   UNL     1      32.066 -10.661 -18.723  0.00  0.00    +0.099 C 
ENDBRANCH  21  23
ENDBRANCH  20  21
ENDBRANCH  15  20
ENDBRANCH   5  14
BRANCH   6  28
ATOM     28  C   UNL     1      35.289 -19.354 -21.589  0.00  0.00    +0.033 C 
ATOM     29  C   UNL     1      36.660 -19.645 -20.943  0.00  0.00    +0.006 C 
ATOM     30  C   UNL     1      35.230 -20.010 -22.986  0.00  0.00    +0.006 C 
ATOM     31  C   UNL     1      34.218 -20.046 -20.716  0.00  0.00    +0.006 C 
ENDBRANCH   6  28
TORSDOF 5
ENDMDL
MODEL 9
REMARK VINA RESULT:      -9.3      5.973      9.933
REMARK  Name = 5326866
REMARK  5 active torsions:
REMARK  status: ('A' for Active; 'I' for Inactive)
REMARK    1  A    between atoms: N_5  and  C_14
REMARK    2  A    between atoms: C_6  and  C_28
REMARK    3  A    between atoms: C_15  and  C_20
REMARK    4  A    between atoms: C_20  and  O_21
REMARK    5  A    between atoms: O_21  and  C_23
REMARK                            x       y       z     vdW  Elec       q    Type
REMARK                         _______ _______ _______ _____ _____    ______ ____
ROOT
ATOM      1  O   UNL     1      31.966 -21.982 -17.994  0.00  0.00    -0.252 OA
ATOM      2  N   UNL     1      33.441 -19.828 -21.303  0.00  0.00    -0.239 N 
ATOM      3  N   UNL     1      33.031 -20.534 -20.234  0.00  0.00    -0.166 NA
ATOM      4  N   UNL     1      34.214 -21.867 -18.645  0.00  0.00    -0.252 N 
ATOM      5  N   UNL     1      33.625 -23.107 -16.790  0.00  0.00    -0.268 N 
ATOM      6  C   UNL     1      34.753 -19.923 -21.460  0.00  0.00    +0.045 C 
ATOM      7  C   UNL     1      35.293 -20.685 -20.522  0.00  0.00    +0.048 C 
ATOM      8  C   UNL     1      34.166 -21.056 -19.762  0.00  0.00    +0.154 C 
ATOM      9  C   UNL     1      33.141 -22.288 -17.824  0.00  0.00    +0.309 C 
ATOM     10  H   UNL     1      32.844 -19.310 -21.890  0.00  0.00    +0.174 HD
ATOM     11  H   UNL     1      35.107 -22.192 -18.388  0.00  0.00    +0.158 HD
ATOM     12  H   UNL     1      34.597 -23.264 -16.783  0.00  0.00    +0.156 HD
ENDROOT
BRANCH   5  14
ATOM     13 CL   UNL     1      30.579 -25.720 -12.451  0.00  0.00    -0.082 Cl
ATOM     14  C   UNL     1      32.888 -23.733 -15.758  0.00  0.00    +0.051 C 
ATOM     15  C   UNL     1      30.818 -24.623 -14.933  0.00  0.00    +0.033 C 
ATOM     16  C   UNL     1      31.545 -24.007 -15.953  0.00  0.00    +0.015 C 
ATOM     17  C   UNL     1      33.525 -24.056 -14.571  0.00  0.00    +0.016 C 
ATOM     18  C   UNL     1      31.445 -24.956 -13.733  0.00  0.00    +0.057 C 
ATOM     19  C   UNL     1      32.799 -24.672 -13.552  0.00  0.00    +0.012 C 
BRANCH  15  20
ATOM     20  C   UNL     1      29.370 -24.910 -15.168  0.00  0.00    +0.233 C 
BRANCH  20  21
ATOM     21  O   UNL     1      28.595 -23.802 -14.731  0.00  0.00    -0.469 OA
BRANCH  21  23
ATOM     22  N   UNL     1      27.212 -22.882 -17.975  0.00  0.00    -0.239 NA
ATOM     23  C   UNL     1      27.781 -23.212 -15.662  0.00  0.00    +0.158 C 
ATOM     24  C   UNL     1      26.749 -22.381 -15.264  0.00  0.00    +0.040 C 
ATOM     25  C   UNL     1      27.977 -23.434 -17.007  0.00  0.00    +0.136 C 
ATOM     26  C   UNL     1      25.940 -21.794 -16.230  0.00  0.00    +0.024 C 
ATOM     27  C   UNL     1      26.210 -22.075 -17.560  0.00  0.00    +0.099 C 
ENDBRANCH  21  23
ENDBRANCH  20  21
ENDBRANCH  15  20
ENDBRANCH   5  14
BRANCH   6  28
ATOM     28  C   UNL     1      35.432 -19.184 -22.638  0.00  0.00    +0.033 C 
ATOM     29  C   UNL     1      35.231 -19.981 -23.944  0.00  0.00    +0.006 C 
ATOM     30  C   UNL     1      36.943 -19.028 -22.360  0.00  0.00    +0.006 C 
ATOM     31  C   UNL     1      34.866 -17.767 -22.878  0.00  0.00    +0.006 C 
ENDBRANCH   6  28
TORSDOF 5
ENDMDL
