MODEL 1
REMARK VINA RESULT:     -13.4      0.000      0.000
REMARK  Name = 25049750
REMARK  7 active torsions:
REMARK  status: ('A' for Active; 'I' for Inactive)
REMARK    1  A    between atoms: C_1  and  C_14
REMARK    2  A    between atoms: C_6  and  O_20
REMARK    3  A    between atoms: C_10  and  C_17
REMARK    4  A    between atoms: C_17  and  O_18
REMARK    5  A    between atoms: O_20  and  C_21
REMARK    6  A    between atoms: C_21  and  C_23
REMARK    7  A    between atoms: C_27  and  C_32
REMARK                            x       y       z     vdW  Elec       q    Type
REMARK                         _______ _______ _______ _____ _____    ______ ____
ROOT
ATOM      1  C   UNL     1      34.823 -20.065 -21.419  0.00  0.00    -0.004 C 
ATOM      2  C   UNL     1      33.435 -20.011 -21.277  0.00  0.00    +0.000 C 
ATOM      3  C   UNL     1      35.590 -20.781 -20.502  0.00  0.00    +0.000 C 
ATOM      4  C   UNL     1      32.817 -20.674 -20.216  0.00  0.00    +0.037 C 
ATOM      5  C   UNL     1      34.971 -21.444 -19.442  0.00  0.00    +0.037 C 
ATOM      6  C   UNL     1      33.585 -21.392 -19.299  0.00  0.00    +0.139 C 
ENDROOT
BRANCH   1  14
ATOM      7  O   UNL     1      33.504 -17.511 -24.873  0.00  0.00    -0.275 OA
ATOM      8  N   UNL     1      34.608 -19.221 -23.717  0.00  0.00    -0.302 N 
ATOM      9  C   UNL     1      34.958 -17.082 -23.039  0.00  0.00    +0.081 C 
ATOM     10  C   UNL     1      34.225 -15.973 -22.368  0.00  0.00    +0.108 C 
ATOM     11  C   UNL     1      35.311 -15.676 -23.368  0.00  0.00    +0.021 C 
ATOM     12  C   UNL     1      35.908 -17.897 -22.240  0.00  0.00    +0.033 C 
ATOM     13  C   UNL     1      34.254 -17.916 -23.999  0.00  0.00    +0.222 C 
ATOM     14  C   UNL     1      35.492 -19.347 -22.569  0.00  0.00    +0.095 C 
ATOM     15  H   UNL     1      34.293 -19.992 -24.243  0.00  0.00    +0.150 HD
BRANCH  10  17
ATOM     16  O   UNL     1      34.874 -16.401 -20.156  0.00  0.00    -0.250 OA
ATOM     17  C   UNL     1      34.553 -15.589 -21.012  0.00  0.00    +0.314 C 
BRANCH  17  18
ATOM     18  O   UNL     1      34.464 -14.252 -20.812  0.00  0.00    -0.480 OA
ATOM     19  H   UNL     1      35.201 -13.701 -20.989  0.00  0.00    +0.295 HD
ENDBRANCH  17  18
ENDBRANCH  10  17
ENDBRANCH   1  14
BRANCH   6  20
ATOM     20  O   UNL     1      32.978 -22.043 -18.257  0.00  0.00    -0.471 OA
BRANCH  20  21
ATOM     21  C   UNL     1      33.468 -23.337 -17.938  0.00  0.00    +0.229 C 
BRANCH  21  23
ATOM     22  N   UNL     1      33.499 -23.876 -13.693  0.00  0.00    -0.406 NA
ATOM     23  C   UNL     1      33.442 -23.521 -16.453  0.00  0.00    +0.012 C 
ATOM     24  C   UNL     1      32.252 -23.468 -15.714  0.00  0.00    +0.096 C 
ATOM     25  C   UNL     1      34.651 -23.751 -15.812  0.00  0.00    +0.028 C 
ATOM     26  C   UNL     1      32.328 -23.653 -14.318  0.00  0.00    +0.117 C 
ATOM     27  C   UNL     1      34.625 -23.920 -14.442  0.00  0.00    +0.130 C 
ATOM     28  C   UNL     1      31.011 -23.237 -16.334  0.00  0.00    -0.015 C 
ATOM     29  C   UNL     1      31.145 -23.599 -13.586  0.00  0.00    +0.028 C 
ATOM     30  C   UNL     1      29.845 -23.188 -15.577  0.00  0.00    -0.004 C 
ATOM     31  C   UNL     1      29.912 -23.370 -14.201  0.00  0.00    +0.002 C 
BRANCH  27  32
ATOM     32  C   UNL     1      35.839 -24.163 -13.700  0.00  0.00    +0.030 C 
ATOM     33  C   UNL     1      35.910 -23.822 -12.349  0.00  0.00    +0.003 C 
ATOM     34  C   UNL     1      36.941 -24.737 -14.333  0.00  0.00    +0.003 C 
ATOM     35  C   UNL     1      37.083 -24.057 -11.631  0.00  0.00    +0.000 C 
ATOM     36  C   UNL     1      38.114 -24.972 -13.615  0.00  0.00    +0.000 C 
ATOM     37  C   UNL     1      38.185 -24.631 -12.264  0.00  0.00    +0.000 C 
ENDBRANCH  27  32
ENDBRANCH  21  23
ENDBRANCH  20  21
ENDBRANCH   6  20
TORSDOF 7
ENDMDL
MODEL 2
REMARK VINA RESULT:     -12.8      1.017      4.076
REMARK  Name = 25049750
REMARK  7 active torsions:
REMARK  status: ('A' for Active; 'I' for Inactive)
REMARK    1  A    between atoms: C_1  and  C_14
REMARK    2  A    between atoms: C_6  and  O_20
REMARK    3  A    between atoms: C_10  and  C_17
REMARK    4  A    between atoms: C_17  and  O_18
REMARK    5  A    between atoms: O_20  and  C_21
REMARK    6  A    between atoms: C_21  and  C_23
REMARK    7  A    between atoms: C_27  and  C_32
REMARK                            x       y       z     vdW  Elec       q    Type
REMARK                         _______ _______ _______ _____ _____    ______ ____
ROOT
ATOM      1  C   UNL     1      35.247 -19.755 -21.682  0.00  0.00    -0.004 C 
ATOM      2  C   UNL     1      33.885 -19.860 -21.396  0.00  0.00    +0.000 C 
ATOM      3  C   UNL     1      36.179 -20.429 -20.894  0.00  0.00    +0.000 C 
ATOM      4  C   UNL     1      33.457 -20.638 -20.321  0.00  0.00    +0.037 C 
ATOM      5  C   UNL     1      35.750 -21.208 -19.819  0.00  0.00    +0.037 C 
ATOM      6  C   UNL     1      34.389 -21.314 -19.533  0.00  0.00    +0.139 C 
ENDROOT
BRANCH   1  14
ATOM      7  O   UNL     1      33.304 -17.227 -24.849  0.00  0.00    -0.275 OA
ATOM      8  N   UNL     1      34.708 -18.842 -23.899  0.00  0.00    -0.302 N 
ATOM      9  C   UNL     1      34.876 -16.709 -23.139  0.00  0.00    +0.081 C 
ATOM     10  C   UNL     1      34.091 -15.727 -22.340  0.00  0.00    +0.108 C 
ATOM     11  C   UNL     1      35.030 -15.258 -23.420  0.00  0.00    +0.021 C 
ATOM     12  C   UNL     1      35.989 -17.439 -22.479  0.00  0.00    +0.033 C 
ATOM     13  C   UNL     1      34.180 -17.577 -24.073  0.00  0.00    +0.222 C 
ATOM     14  C   UNL     1      35.711 -18.912 -22.849  0.00  0.00    +0.095 C 
ATOM     15  H   UNL     1      34.433 -19.621 -24.435  0.00  0.00    +0.150 HD
BRANCH  10  17
ATOM     16  O   UNL     1      34.531 -14.210 -20.607  0.00  0.00    -0.250 OA
ATOM     17  C   UNL     1      34.507 -15.367 -21.002  0.00  0.00    +0.314 C 
BRANCH  17  18
ATOM     18  O   UNL     1      34.855 -16.443 -20.256  0.00  0.00    -0.480 OA
ATOM     19  H   UNL     1      35.759 -16.651 -20.126  0.00  0.00    +0.295 HD
ENDBRANCH  17  18
ENDBRANCH  10  17
ENDBRANCH   1  14
BRANCH   6  20
ATOM     20  O   UNL     1      33.968 -22.078 -18.476  0.00  0.00    -0.471 OA
BRANCH  20  21
ATOM     21  C   UNL     1      34.977 -22.637 -17.647  0.00  0.00    +0.229 C 
BRANCH  21  23
ATOM     22  N   UNL     1      33.085 -24.165 -14.127  0.00  0.00    -0.406 NA
ATOM     23  C   UNL     1      34.348 -23.172 -16.398  0.00  0.00    +0.012 C 
ATOM     24  C   UNL     1      35.090 -23.419 -15.235  0.00  0.00    +0.096 C 
ATOM     25  C   UNL     1      32.983 -23.420 -16.422  0.00  0.00    +0.028 C 
ATOM     26  C   UNL     1      34.409 -23.922 -14.107  0.00  0.00    +0.117 C 
ATOM     27  C   UNL     1      32.405 -23.913 -15.269  0.00  0.00    +0.130 C 
ATOM     28  C   UNL     1      36.474 -23.176 -15.180  0.00  0.00    -0.015 C 
ATOM     29  C   UNL     1      35.147 -24.168 -12.953  0.00  0.00    +0.028 C 
ATOM     30  C   UNL     1      37.187 -23.431 -14.012  0.00  0.00    -0.004 C 
ATOM     31  C   UNL     1      36.522 -23.927 -12.897  0.00  0.00    +0.002 C 
BRANCH  27  32
ATOM     32  C   UNL     1      30.992 -24.199 -15.210  0.00  0.00    +0.030 C 
ATOM     33  C   UNL     1      30.089 -23.405 -15.918  0.00  0.00    +0.003 C 
ATOM     34  C   UNL     1      30.527 -25.268 -14.445  0.00  0.00    +0.003 C 
ATOM     35  C   UNL     1      28.723 -23.681 -15.862  0.00  0.00    +0.000 C 
ATOM     36  C   UNL     1      29.161 -25.545 -14.388  0.00  0.00    +0.000 C 
ATOM     37  C   UNL     1      28.259 -24.751 -15.096  0.00  0.00    +0.000 C 
ENDBRANCH  27  32
ENDBRANCH  21  23
ENDBRANCH  20  21
ENDBRANCH   6  20
TORSDOF 7
ENDMDL
MODEL 3
REMARK VINA RESULT:     -12.2      6.405     13.107
REMARK  Name = 25049750
REMARK  7 active torsions:
REMARK  status: ('A' for Active; 'I' for Inactive)
REMARK    1  A    between atoms: C_1  and  C_14
REMARK    2  A    between atoms: C_6  and  O_20
REMARK    3  A    between atoms: C_10  and  C_17
REMARK    4  A    between atoms: C_17  and  O_18
REMARK    5  A    between atoms: O_20  and  C_21
REMARK    6  A    between atoms: C_21  and  C_23
REMARK    7  A    between atoms: C_27  and  C_32
REMARK                            x       y       z     vdW  Elec       q    Type
REMARK                         _______ _______ _______ _____ _____    ______ ____
ROOT
ATOM      1  C   UNL     1      34.590 -15.639 -21.602  0.00  0.00    -0.004 C 
ATOM      2  C   UNL     1      34.193 -14.998 -22.776  0.00  0.00    +0.000 C 
ATOM      3  C   UNL     1      34.052 -15.245 -20.377  0.00  0.00    +0.000 C 
ATOM      4  C   UNL     1      33.259 -13.964 -22.724  0.00  0.00    +0.037 C 
ATOM      5  C   UNL     1      33.118 -14.210 -20.326  0.00  0.00    +0.037 C 
ATOM      6  C   UNL     1      32.720 -13.570 -21.499  0.00  0.00    +0.139 C 
ENDROOT
BRANCH   1  14
ATOM      7  O   UNL     1      34.685 -19.994 -20.498  0.00  0.00    -0.275 OA
ATOM      8  N   UNL     1      35.364 -17.757 -20.625  0.00  0.00    -0.302 N 
ATOM      9  C   UNL     1      34.999 -18.869 -22.571  0.00  0.00    +0.081 C 
ATOM     10  C   UNL     1      33.867 -19.433 -23.357  0.00  0.00    +0.108 C 
ATOM     11  C   UNL     1      35.235 -20.059 -23.429  0.00  0.00    +0.021 C 
ATOM     12  C   UNL     1      35.570 -17.560 -22.979  0.00  0.00    +0.033 C 
ATOM     13  C   UNL     1      34.982 -18.988 -21.123  0.00  0.00    +0.222 C 
ATOM     14  C   UNL     1      35.601 -16.762 -21.658  0.00  0.00    +0.095 C 
ATOM     15  H   UNL     1      35.466 -17.571 -19.663  0.00  0.00    +0.150 HD
BRANCH  10  17
ATOM     16  O   UNL     1      34.066 -17.894 -25.115  0.00  0.00    -0.250 OA
ATOM     17  C   UNL     1      33.442 -18.805 -24.590  0.00  0.00    +0.314 C 
BRANCH  17  18
ATOM     18  O   UNL     1      32.297 -19.339 -25.081  0.00  0.00    -0.480 OA
ATOM     19  H   UNL     1      32.331 -19.950 -25.789  0.00  0.00    +0.295 HD
ENDBRANCH  17  18
ENDBRANCH  10  17
ENDBRANCH   1  14
BRANCH   6  20
ATOM     20  O   UNL     1      31.803 -12.553 -21.449  0.00  0.00    -0.471 OA
BRANCH  20  21
ATOM     21  C   UNL     1      31.675 -11.747 -22.612  0.00  0.00    +0.229 C 
BRANCH  21  23
ATOM     22  N   UNL     1      32.932  -7.739 -21.797  0.00  0.00    -0.406 NA
ATOM     23  C   UNL     1      32.102 -10.349 -22.292  0.00  0.00    +0.012 C 
ATOM     24  C   UNL     1      31.929  -9.788 -21.019  0.00  0.00    +0.096 C 
ATOM     25  C   UNL     1      32.688  -9.607 -23.308  0.00  0.00    +0.028 C 
ATOM     26  C   UNL     1      32.365  -8.462 -20.813  0.00  0.00    +0.117 C 
ATOM     27  C   UNL     1      33.081  -8.318 -23.011  0.00  0.00    +0.130 C 
ATOM     28  C   UNL     1      31.341 -10.513 -19.969  0.00  0.00    -0.015 C 
ATOM     29  C   UNL     1      32.192  -7.906 -19.549  0.00  0.00    +0.028 C 
ATOM     30  C   UNL     1      31.180  -9.932 -18.715  0.00  0.00    -0.004 C 
ATOM     31  C   UNL     1      31.607  -8.626 -18.505  0.00  0.00    +0.002 C 
BRANCH  27  32
ATOM     32  C   UNL     1      33.697  -7.479 -24.011  0.00  0.00    +0.030 C 
ATOM     33  C   UNL     1      34.921  -6.863 -23.748  0.00  0.00    +0.003 C 
ATOM     34  C   UNL     1      33.070  -7.284 -25.241  0.00  0.00    +0.003 C 
ATOM     35  C   UNL     1      35.517  -6.053 -24.715  0.00  0.00    +0.000 C 
ATOM     36  C   UNL     1      33.666  -6.474 -26.208  0.00  0.00    +0.000 C 
ATOM     37  C   UNL     1      34.889  -5.858 -25.944  0.00  0.00    +0.000 C 
ENDBRANCH  27  32
ENDBRANCH  21  23
ENDBRANCH  20  21
ENDBRANCH   6  20
TORSDOF 7
ENDMDL
MODEL 4
REMARK VINA RESULT:     -11.6      5.553     12.786
REMARK  Name = 25049750
REMARK  7 active torsions:
REMARK  status: ('A' for Active; 'I' for Inactive)
REMARK    1  A    between atoms: C_1  and  C_14
REMARK    2  A    between atoms: C_6  and  O_20
REMARK    3  A    between atoms: C_10  and  C_17
REMARK    4  A    between atoms: C_17  and  O_18
REMARK    5  A    between atoms: O_20  and  C_21
REMARK    6  A    between atoms: C_21  and  C_23
REMARK    7  A    between atoms: C_27  and  C_32
REMARK                            x       y       z     vdW  Elec       q    Type
REMARK                         _______ _______ _______ _____ _____    ______ ____
ROOT
ATOM      1  C   UNL     1      35.030 -16.600 -22.266  0.00  0.00    -0.004 C 
ATOM      2  C   UNL     1      34.482 -15.850 -23.308  0.00  0.00    +0.000 C 
ATOM      3  C   UNL     1      34.845 -16.195 -20.944  0.00  0.00    +0.000 C 
ATOM      4  C   UNL     1      33.752 -14.696 -23.028  0.00  0.00    +0.037 C 
ATOM      5  C   UNL     1      34.113 -15.040 -20.665  0.00  0.00    +0.037 C 
ATOM      6  C   UNL     1      33.566 -14.291 -21.706  0.00  0.00    +0.139 C 
ENDROOT
BRANCH   1  14
ATOM      7  O   UNL     1      37.530 -19.519 -19.938  0.00  0.00    -0.275 OA
ATOM      8  N   UNL     1      36.926 -18.033 -21.643  0.00  0.00    -0.302 N 
ATOM      9  C   UNL     1      35.551 -19.792 -21.231  0.00  0.00    +0.081 C 
ATOM     10  C   UNL     1      34.608 -20.271 -20.182  0.00  0.00    +0.108 C 
ATOM     11  C   UNL     1      35.366 -21.254 -21.035  0.00  0.00    +0.021 C 
ATOM     12  C   UNL     1      34.998 -19.152 -22.451  0.00  0.00    +0.033 C 
ATOM     13  C   UNL     1      36.785 -19.139 -20.828  0.00  0.00    +0.222 C 
ATOM     14  C   UNL     1      35.821 -17.852 -22.571  0.00  0.00    +0.095 C 
ATOM     15  H   UNL     1      37.701 -17.426 -21.601  0.00  0.00    +0.150 HD
BRANCH  10  17
ATOM     16  O   UNL     1      32.686 -19.850 -21.457  0.00  0.00    -0.250 OA
ATOM     17  C   UNL     1      33.180 -20.265 -20.419  0.00  0.00    +0.314 C 
BRANCH  17  18
ATOM     18  O   UNL     1      32.476 -20.767 -19.375  0.00  0.00    -0.480 OA
ATOM     19  H   UNL     1      31.771 -21.364 -19.529  0.00  0.00    +0.295 HD
ENDBRANCH  17  18
ENDBRANCH  10  17
ENDBRANCH   1  14
BRANCH   6  20
ATOM     20  O   UNL     1      32.848 -13.157 -21.430  0.00  0.00    -0.471 OA
BRANCH  20  21
ATOM     21  C   UNL     1      32.396 -12.398 -22.543  0.00  0.00    +0.229 C 
BRANCH  21  23
ATOM     22  N   UNL     1      32.807  -8.215 -21.745  0.00  0.00    -0.406 NA
ATOM     23  C   UNL     1      32.525 -10.940 -22.230  0.00  0.00    +0.012 C 
ATOM     24  C   UNL     1      32.128 -10.403 -20.998  0.00  0.00    +0.096 C 
ATOM     25  C   UNL     1      33.061 -10.117 -23.210  0.00  0.00    +0.028 C 
ATOM     26  C   UNL     1      32.289  -9.016 -20.795  0.00  0.00    +0.117 C 
ATOM     27  C   UNL     1      33.179  -8.772 -22.920  0.00  0.00    +0.130 C 
ATOM     28  C   UNL     1      31.583 -11.210 -19.984  0.00  0.00    -0.015 C 
ATOM     29  C   UNL     1      31.894  -8.483 -19.572  0.00  0.00    +0.028 C 
ATOM     30  C   UNL     1      31.196 -10.651 -18.771  0.00  0.00    -0.004 C 
ATOM     31  C   UNL     1      31.352  -9.285 -18.564  0.00  0.00    +0.002 C 
BRANCH  27  32
ATOM     32  C   UNL     1      33.724  -7.848 -23.885  0.00  0.00    +0.030 C 
ATOM     33  C   UNL     1      34.917  -7.178 -23.612  0.00  0.00    +0.003 C 
ATOM     34  C   UNL     1      33.060  -7.625 -25.090  0.00  0.00    +0.003 C 
ATOM     35  C   UNL     1      35.446  -6.285 -24.545  0.00  0.00    +0.000 C 
ATOM     36  C   UNL     1      33.588  -6.732 -26.023  0.00  0.00    +0.000 C 
ATOM     37  C   UNL     1      34.780  -6.062 -25.750  0.00  0.00    +0.000 C 
ENDBRANCH  27  32
ENDBRANCH  21  23
ENDBRANCH  20  21
ENDBRANCH   6  20
TORSDOF 7
ENDMDL
MODEL 5
REMARK VINA RESULT:     -11.2      2.084      4.515
REMARK  Name = 25049750
REMARK  7 active torsions:
REMARK  status: ('A' for Active; 'I' for Inactive)
REMARK    1  A    between atoms: C_1  and  C_14
REMARK    2  A    between atoms: C_6  and  O_20
REMARK    3  A    between atoms: C_10  and  C_17
REMARK    4  A    between atoms: C_17  and  O_18
REMARK    5  A    between atoms: O_20  and  C_21
REMARK    6  A    between atoms: C_21  and  C_23
REMARK    7  A    between atoms: C_27  and  C_32
REMARK                            x       y       z     vdW  Elec       q    Type
REMARK                         _______ _______ _______ _____ _____    ______ ____
ROOT
ATOM      1  C   UNL     1      35.188 -17.805 -22.725  0.00  0.00    -0.004 C 
ATOM      2  C   UNL     1      34.520 -18.923 -23.227  0.00  0.00    +0.000 C 
ATOM      3  C   UNL     1      35.657 -17.805 -21.412  0.00  0.00    +0.000 C 
ATOM      4  C   UNL     1      34.321 -20.039 -22.414  0.00  0.00    +0.037 C 
ATOM      5  C   UNL     1      35.458 -18.921 -20.600  0.00  0.00    +0.037 C 
ATOM      6  C   UNL     1      34.791 -20.039 -21.101  0.00  0.00    +0.139 C 
ENDROOT
BRANCH   1  14
ATOM      7  O   UNL     1      32.644 -15.196 -25.354  0.00  0.00    -0.275 OA
ATOM      8  N   UNL     1      34.443 -16.542 -24.697  0.00  0.00    -0.302 N 
ATOM      9  C   UNL     1      33.964 -14.717 -23.434  0.00  0.00    +0.081 C 
ATOM     10  C   UNL     1      32.912 -14.232 -22.498  0.00  0.00    +0.108 C 
ATOM     11  C   UNL     1      33.691 -13.259 -23.343  0.00  0.00    +0.021 C 
ATOM     12  C   UNL     1      35.231 -15.250 -22.871  0.00  0.00    +0.033 C 
ATOM     13  C   UNL     1      33.570 -15.475 -24.609  0.00  0.00    +0.222 C 
ATOM     14  C   UNL     1      35.404 -16.596 -23.607  0.00  0.00    +0.095 C 
ATOM     15  H   UNL     1      34.418 -17.202 -25.428  0.00  0.00    +0.150 HD
BRANCH  10  17
ATOM     16  O   UNL     1      34.274 -14.380 -20.595  0.00  0.00    -0.250 OA
ATOM     17  C   UNL     1      33.181 -14.127 -21.080  0.00  0.00    +0.314 C 
BRANCH  17  18
ATOM     18  O   UNL     1      32.099 -13.721 -20.372  0.00  0.00    -0.480 OA
ATOM     19  H   UNL     1      31.633 -14.331 -19.835  0.00  0.00    +0.295 HD
ENDBRANCH  17  18
ENDBRANCH  10  17
ENDBRANCH   1  14
BRANCH   6  20
ATOM     20  O   UNL     1      34.596 -21.136 -20.302  0.00  0.00    -0.471 OA
BRANCH  20  21
ATOM     21  C   UNL     1      33.300 -21.299 -19.744  0.00  0.00    +0.229 C 
BRANCH  21  23
ATOM     22  N   UNL     1      33.521 -23.380 -16.012  0.00  0.00    -0.406 NA
ATOM     23  C   UNL     1      33.415 -22.022 -18.438  0.00  0.00    +0.012 C 
ATOM     24  C   UNL     1      34.646 -22.219 -17.799  0.00  0.00    +0.096 C 
ATOM     25  C   UNL     1      32.245 -22.502 -17.865  0.00  0.00    +0.028 C 
ATOM     26  C   UNL     1      34.653 -22.913 -16.570  0.00  0.00    +0.117 C 
ATOM     27  C   UNL     1      32.353 -23.169 -16.661  0.00  0.00    +0.130 C 
ATOM     28  C   UNL     1      35.847 -21.745 -18.354  0.00  0.00    -0.015 C 
ATOM     29  C   UNL     1      35.877 -23.108 -15.937  0.00  0.00    +0.028 C 
ATOM     30  C   UNL     1      37.056 -21.954 -17.698  0.00  0.00    -0.004 C 
ATOM     31  C   UNL     1      37.071 -22.637 -16.488  0.00  0.00    +0.002 C 
BRANCH  27  32
ATOM     32  C   UNL     1      31.186 -23.700 -15.998  0.00  0.00    +0.030 C 
ATOM     33  C   UNL     1      29.920 -23.199 -16.306  0.00  0.00    +0.003 C 
ATOM     34  C   UNL     1      31.322 -24.713 -15.050  0.00  0.00    +0.003 C 
ATOM     35  C   UNL     1      28.792 -23.713 -15.667  0.00  0.00    +0.000 C 
ATOM     36  C   UNL     1      30.193 -25.227 -14.410  0.00  0.00    +0.000 C 
ATOM     37  C   UNL     1      28.929 -24.725 -14.718  0.00  0.00    +0.000 C 
ENDBRANCH  27  32
ENDBRANCH  21  23
ENDBRANCH  20  21
ENDBRANCH   6  20
TORSDOF 7
ENDMDL
MODEL 6
REMARK VINA RESULT:     -10.4      3.322     10.890
REMARK  Name = 25049750
REMARK  7 active torsions:
REMARK  status: ('A' for Active; 'I' for Inactive)
REMARK    1  A    between atoms: C_1  and  C_14
REMARK    2  A    between atoms: C_6  and  O_20
REMARK    3  A    between atoms: C_10  and  C_17
REMARK    4  A    between atoms: C_17  and  O_18
REMARK    5  A    between atoms: O_20  and  C_21
REMARK    6  A    between atoms: C_21  and  C_23
REMARK    7  A    between atoms: C_27  and  C_32
REMARK                            x       y       z     vdW  Elec       q    Type
REMARK                         _______ _______ _______ _____ _____    ______ ____
ROOT
ATOM      1  C   UNL     1      35.765 -20.828 -19.970  0.00  0.00    -0.004 C 
ATOM      2  C   UNL     1      34.461 -20.495 -20.342  0.00  0.00    +0.000 C 
ATOM      3  C   UNL     1      36.803 -19.921 -20.185  0.00  0.00    +0.000 C 
ATOM      4  C   UNL     1      34.198 -19.258 -20.928  0.00  0.00    +0.037 C 
ATOM      5  C   UNL     1      36.539 -18.684 -20.771  0.00  0.00    +0.037 C 
ATOM      6  C   UNL     1      35.236 -18.351 -21.142  0.00  0.00    +0.139 C 
ENDROOT
BRANCH   1  14
ATOM      7  O   UNL     1      36.285 -22.404 -15.795  0.00  0.00    -0.275 OA
ATOM      8  N   UNL     1      36.739 -22.028 -18.060  0.00  0.00    -0.302 N 
ATOM      9  C   UNL     1      34.730 -22.934 -17.515  0.00  0.00    +0.081 C 
ATOM     10  C   UNL     1      33.453 -22.543 -16.854  0.00  0.00    +0.108 C 
ATOM     11  C   UNL     1      33.945 -23.965 -16.786  0.00  0.00    +0.021 C 
ATOM     12  C   UNL     1      34.780 -22.981 -18.999  0.00  0.00    +0.033 C 
ATOM     13  C   UNL     1      35.985 -22.438 -16.978  0.00  0.00    +0.222 C 
ATOM     14  C   UNL     1      36.050 -22.169 -19.333  0.00  0.00    +0.095 C 
ATOM     15  H   UNL     1      37.655 -21.676 -17.978  0.00  0.00    +0.150 HD
BRANCH  10  17
ATOM     16  O   UNL     1      32.247 -21.927 -18.768  0.00  0.00    -0.250 OA
ATOM     17  C   UNL     1      32.244 -22.376 -17.631  0.00  0.00    +0.314 C 
BRANCH  17  18
ATOM     18  O   UNL     1      31.134 -22.769 -16.960  0.00  0.00    -0.480 OA
ATOM     19  H   UNL     1      31.203 -23.390 -16.262  0.00  0.00    +0.295 HD
ENDBRANCH  17  18
ENDBRANCH  10  17
ENDBRANCH   1  14
BRANCH   6  20
ATOM     20  O   UNL     1      34.977 -17.135 -21.719  0.00  0.00    -0.471 OA
BRANCH  20  21
ATOM     21  C   UNL     1      34.785 -16.037 -20.839  0.00  0.00    +0.229 C 
BRANCH  21  23
ATOM     22  N   UNL     1      32.721 -12.859 -22.827  0.00  0.00    -0.406 NA
ATOM     23  C   UNL     1      34.069 -14.942 -21.567  0.00  0.00    +0.012 C 
ATOM     24  C   UNL     1      33.907 -14.953 -22.959  0.00  0.00    +0.096 C 
ATOM     25  C   UNL     1      33.558 -13.895 -20.813  0.00  0.00    +0.028 C 
ATOM     26  C   UNL     1      33.217 -13.876 -23.556  0.00  0.00    +0.117 C 
ATOM     27  C   UNL     1      32.898 -12.887 -21.486  0.00  0.00    +0.130 C 
ATOM     28  C   UNL     1      34.412 -15.999 -23.751  0.00  0.00    -0.015 C 
ATOM     29  C   UNL     1      33.057 -13.888 -24.938  0.00  0.00    +0.028 C 
ATOM     30  C   UNL     1      34.238 -15.984 -25.131  0.00  0.00    -0.004 C 
ATOM     31  C   UNL     1      33.559 -14.927 -25.726  0.00  0.00    +0.002 C 
BRANCH  27  32
ATOM     32  C   UNL     1      32.338 -11.762 -20.777  0.00  0.00    +0.030 C 
ATOM     33  C   UNL     1      31.954 -10.617 -21.476  0.00  0.00    +0.003 C 
ATOM     34  C   UNL     1      32.181 -11.818 -19.392  0.00  0.00    +0.003 C 
ATOM     35  C   UNL     1      31.412  -9.529 -20.790  0.00  0.00    +0.000 C 
ATOM     36  C   UNL     1      31.639 -10.731 -18.707  0.00  0.00    +0.000 C 
ATOM     37  C   UNL     1      31.256  -9.586 -19.406  0.00  0.00    +0.000 C 
ENDBRANCH  27  32
ENDBRANCH  21  23
ENDBRANCH  20  21
ENDBRANCH   6  20
TORSDOF 7
ENDMDL
