MODEL 1
REMARK VINA RESULT:     -11.6      0.000      0.000
REMARK  Name = 135565554
REMARK  0 active torsions:
REMARK  status: ('A' for Active; 'I' for Inactive)
REMARK                            x       y       z     vdW  Elec       q    Type
REMARK                         _______ _______ _______ _____ _____    ______ ____
ROOT
ATOM      1  F   UNL     1      29.417 -24.638 -14.443  0.00  0.00    -0.204 F 
ATOM      2  O   UNL     1      32.382 -22.834 -17.982  0.00  0.00    -0.268 OA
ATOM      3  N   UNL     1      37.539 -24.443 -13.883  0.00  0.00    +0.397 N 
ATOM      4  N   UNL     1      33.983 -24.825 -12.761  0.00  0.00    -0.358 N 
ATOM      5  N   UNL     1      35.694 -22.934 -16.621  0.00  0.00    -0.185 NA
ATOM      6  N   UNL     1      34.538 -22.828 -17.315  0.00  0.00    -0.203 N 
ATOM      7  C   UNL     1      36.538 -24.567 -12.789  0.00  0.00    -0.007 C 
ATOM      8  C   UNL     1      36.853 -25.968 -12.258  0.00  0.00    -0.016 C 
ATOM      9  C   UNL     1      35.155 -24.448 -13.355  0.00  0.00    +0.017 A 
ATOM     10  C   UNL     1      37.700 -25.760 -14.515  0.00  0.00    -0.076 C 
ATOM     11  C   UNL     1      37.208 -26.779 -13.495  0.00  0.00    -0.024 C 
ATOM     12  C   UNL     1      37.295 -23.362 -14.853  0.00  0.00    -0.028 C 
ATOM     13  C   UNL     1      34.851 -23.916 -14.586  0.00  0.00    +0.024 A 
ATOM     14  C   UNL     1      36.767 -23.506 -11.708  0.00  0.00    -0.015 C 
ATOM     15  C   UNL     1      35.877 -23.406 -15.434  0.00  0.00    +0.056 C 
ATOM     16  C   UNL     1      33.474 -24.009 -14.780  0.00  0.00    +0.022 A 
ATOM     17  C   UNL     1      32.934 -24.574 -13.622  0.00  0.00    +0.059 A 
ATOM     18  C   UNL     1      32.650 -23.658 -15.844  0.00  0.00    +0.059 C 
ATOM     19  C   UNL     1      31.563 -24.801 -13.470  0.00  0.00    +0.047 C 
ATOM     20  C   UNL     1      33.197 -23.088 -17.087  0.00  0.00    +0.265 C 
ATOM     21  C   UNL     1      31.267 -23.882 -15.704  0.00  0.00    +0.034 C 
ATOM     22  C   UNL     1      30.738 -24.440 -14.537  0.00  0.00    +0.142 C 
ATOM     23  H   UNL     1      38.418 -24.148 -13.456  0.00  0.00    -0.078 HD
ATOM     24  H   UNL     1      33.900 -25.216 -11.861  0.00  0.00    +0.166 HD
ATOM     25  H   UNL     1      34.690 -22.473 -18.220  0.00  0.00    +0.178 HD
ENDROOT
TORSDOF 0
ENDMDL
MODEL 2
REMARK VINA RESULT:     -10.4      3.012      5.807
REMARK  Name = 135565554
REMARK  0 active torsions:
REMARK  status: ('A' for Active; 'I' for Inactive)
REMARK                            x       y       z     vdW  Elec       q    Type
REMARK                         _______ _______ _______ _____ _____    ______ ____
ROOT
ATOM      1  F   UNL     1      35.563 -22.188 -19.338  0.00  0.00    -0.204 F 
ATOM      2  O   UNL     1      36.677 -23.347 -14.649  0.00  0.00    -0.268 OA
ATOM      3  N   UNL     1      30.041 -24.457 -13.797  0.00  0.00    +0.397 N 
ATOM      4  N   UNL     1      31.375 -23.067 -17.014  0.00  0.00    -0.358 N 
ATOM      5  N   UNL     1      33.539 -23.889 -13.008  0.00  0.00    -0.185 NA
ATOM      6  N   UNL     1      34.812 -23.744 -13.441  0.00  0.00    -0.203 N 
ATOM      7  C   UNL     1      29.827 -23.715 -15.069  0.00  0.00    -0.007 C 
ATOM      8  C   UNL     1      28.981 -24.718 -15.857  0.00  0.00    -0.016 C 
ATOM      9  C   UNL     1      31.149 -23.424 -15.714  0.00  0.00    +0.017 A 
ATOM     10  C   UNL     1      30.186 -25.884 -14.112  0.00  0.00    -0.076 C 
ATOM     11  C   UNL     1      29.548 -26.080 -15.481  0.00  0.00    -0.024 C 
ATOM     12  C   UNL     1      31.118 -23.943 -12.933  0.00  0.00    -0.028 C 
ATOM     13  C   UNL     1      32.364 -23.463 -15.070  0.00  0.00    +0.024 A 
ATOM     14  C   UNL     1      29.052 -22.415 -14.827  0.00  0.00    -0.015 C 
ATOM     15  C   UNL     1      32.444 -23.781 -13.683  0.00  0.00    +0.056 C 
ATOM     16  C   UNL     1      33.364 -23.174 -15.996  0.00  0.00    +0.022 A 
ATOM     17  C   UNL     1      32.731 -22.917 -17.216  0.00  0.00    +0.059 A 
ATOM     18  C   UNL     1      34.749 -23.111 -15.893  0.00  0.00    +0.059 C 
ATOM     19  C   UNL     1      33.443 -22.578 -18.370  0.00  0.00    +0.047 C 
ATOM     20  C   UNL     1      35.442 -23.406 -14.627  0.00  0.00    +0.265 C 
ATOM     21  C   UNL     1      35.478 -22.771 -17.049  0.00  0.00    +0.034 C 
ATOM     22  C   UNL     1      34.834 -22.508 -18.260  0.00  0.00    +0.142 C 
ATOM     23  H   UNL     1      29.215 -24.306 -13.217  0.00  0.00    -0.078 HD
ATOM     24  H   UNL     1      30.679 -22.939 -17.699  0.00  0.00    +0.166 HD
ATOM     25  H   UNL     1      35.461 -23.927 -12.725  0.00  0.00    +0.178 HD
ENDROOT
TORSDOF 0
ENDMDL
MODEL 3
REMARK VINA RESULT:      -9.4     15.158     17.562
REMARK  Name = 135565554
REMARK  0 active torsions:
REMARK  status: ('A' for Active; 'I' for Inactive)
REMARK                            x       y       z     vdW  Elec       q    Type
REMARK                         _______ _______ _______ _____ _____    ______ ____
ROOT
ATOM      1  F   UNL     1      31.897 -14.056 -21.478  0.00  0.00    -0.204 F 
ATOM      2  O   UNL     1      31.285 -10.639 -17.940  0.00  0.00    -0.268 OA
ATOM      3  N   UNL     1      32.794  -6.054 -22.705  0.00  0.00    +0.397 N 
ATOM      4  N   UNL     1      33.009  -9.729 -23.416  0.00  0.00    -0.358 N 
ATOM      5  N   UNL     1      32.206  -7.515 -19.434  0.00  0.00    -0.185 NA
ATOM      6  N   UNL     1      31.806  -8.577 -18.698  0.00  0.00    -0.203 N 
ATOM      7  C   UNL     1      33.320  -7.182 -23.521  0.00  0.00    -0.007 C 
ATOM      8  C   UNL     1      32.561  -6.975 -24.834  0.00  0.00    -0.016 C 
ATOM      9  C   UNL     1      32.998  -8.484 -22.852  0.00  0.00    +0.017 A 
ATOM     10  C   UNL     1      31.377  -5.861 -23.042  0.00  0.00    -0.076 C 
ATOM     11  C   UNL     1      31.179  -6.501 -24.409  0.00  0.00    -0.024 C 
ATOM     12  C   UNL     1      33.035  -6.149 -21.255  0.00  0.00    -0.028 C 
ATOM     13  C   UNL     1      32.644  -8.624 -21.530  0.00  0.00    +0.024 A 
ATOM     14  C   UNL     1      34.832  -7.050 -23.735  0.00  0.00    -0.015 C 
ATOM     15  C   UNL     1      32.574  -7.489 -20.670  0.00  0.00    +0.056 C 
ATOM     16  C   UNL     1      32.384  -9.970 -21.282  0.00  0.00    +0.022 A 
ATOM     17  C   UNL     1      32.626 -10.660 -22.473  0.00  0.00    +0.059 A 
ATOM     18  C   UNL     1      31.965 -10.651 -20.145  0.00  0.00    +0.059 C 
ATOM     19  C   UNL     1      32.473 -12.045 -22.577  0.00  0.00    +0.047 C 
ATOM     20  C   UNL     1      31.676  -9.943 -18.885  0.00  0.00    +0.265 C 
ATOM     21  C   UNL     1      31.807 -12.047 -20.236  0.00  0.00    +0.034 C 
ATOM     22  C   UNL     1      32.060 -12.727 -21.430  0.00  0.00    +0.142 C 
ATOM     23  H   UNL     1      33.332  -5.224 -22.954  0.00  0.00    -0.078 HD
ATOM     24  H   UNL     1      33.251  -9.929 -24.349  0.00  0.00    +0.166 HD
ATOM     25  H   UNL     1      31.536  -8.308 -17.791  0.00  0.00    +0.178 HD
ENDROOT
TORSDOF 0
ENDMDL
MODEL 4
REMARK VINA RESULT:      -8.9      2.531      4.077
REMARK  Name = 135565554
REMARK  0 active torsions:
REMARK  status: ('A' for Active; 'I' for Inactive)
REMARK                            x       y       z     vdW  Elec       q    Type
REMARK                         _______ _______ _______ _____ _____    ______ ____
ROOT
ATOM      1  F   UNL     1      36.262 -21.343 -19.100  0.00  0.00    -0.204 F 
ATOM      2  O   UNL     1      32.192 -23.098 -16.881  0.00  0.00    -0.268 OA
ATOM      3  N   UNL     1      36.275 -24.917 -11.781  0.00  0.00    +0.397 N 
ATOM      4  N   UNL     1      37.663 -23.480 -14.955  0.00  0.00    -0.358 N 
ATOM      5  N   UNL     1      33.332 -24.721 -13.898  0.00  0.00    -0.185 NA
ATOM      6  N   UNL     1      32.705 -24.154 -14.953  0.00  0.00    -0.203 N 
ATOM      7  C   UNL     1      37.415 -24.718 -12.718  0.00  0.00    -0.007 C 
ATOM      8  C   UNL     1      38.304 -23.774 -11.905  0.00  0.00    -0.016 C 
ATOM      9  C   UNL     1      36.919 -24.110 -13.995  0.00  0.00    +0.017 A 
ATOM     10  C   UNL     1      36.036 -23.655 -11.070  0.00  0.00    -0.076 C 
ATOM     11  C   UNL     1      37.330 -22.858 -11.178  0.00  0.00    -0.024 C 
ATOM     12  C   UNL     1      35.054 -25.487 -12.375  0.00  0.00    -0.028 C 
ATOM     13  C   UNL     1      35.607 -24.103 -14.407  0.00  0.00    +0.024 A 
ATOM     14  C   UNL     1      38.134 -26.042 -13.000  0.00  0.00    -0.015 C 
ATOM     15  C   UNL     1      34.592 -24.719 -13.617  0.00  0.00    +0.056 C 
ATOM     16  C   UNL     1      35.527 -23.417 -15.617  0.00  0.00    +0.022 A 
ATOM     17  C   UNL     1      36.828 -23.037 -15.959  0.00  0.00    +0.059 A 
ATOM     18  C   UNL     1      34.457 -23.092 -16.443  0.00  0.00    +0.059 C 
ATOM     19  C   UNL     1      37.116 -22.334 -17.132  0.00  0.00    +0.047 C 
ATOM     20  C   UNL     1      33.074 -23.457 -16.091  0.00  0.00    +0.265 C 
ATOM     21  C   UNL     1      34.734 -22.385 -17.628  0.00  0.00    +0.034 C 
ATOM     22  C   UNL     1      36.039 -22.017 -17.963  0.00  0.00    +0.142 C 
ATOM     23  H   UNL     1      36.550 -25.646 -11.122  0.00  0.00    -0.078 HD
ATOM     24  H   UNL     1      38.640 -23.362 -14.931  0.00  0.00    +0.166 HD
ATOM     25  H   UNL     1      31.729 -24.269 -14.898  0.00  0.00    +0.178 HD
ENDROOT
TORSDOF 0
ENDMDL
MODEL 5
REMARK VINA RESULT:      -8.7      2.334      3.876
REMARK  Name = 135565554
REMARK  0 active torsions:
REMARK  status: ('A' for Active; 'I' for Inactive)
REMARK                            x       y       z     vdW  Elec       q    Type
REMARK                         _______ _______ _______ _____ _____    ______ ____
ROOT
ATOM      1  F   UNL     1      34.025 -21.281 -19.927  0.00  0.00    -0.204 F 
ATOM      2  O   UNL     1      30.375 -22.660 -16.871  0.00  0.00    -0.268 OA
ATOM      3  N   UNL     1      35.254 -25.054 -12.814  0.00  0.00    +0.397 N 
ATOM      4  N   UNL     1      36.059 -23.678 -16.208  0.00  0.00    -0.358 N 
ATOM      5  N   UNL     1      31.958 -24.483 -14.224  0.00  0.00    -0.185 NA
ATOM      6  N   UNL     1      31.179 -23.822 -15.110  0.00  0.00    -0.203 N 
ATOM      7  C   UNL     1      36.174 -24.949 -13.979  0.00  0.00    -0.007 C 
ATOM      8  C   UNL     1      37.319 -24.129 -13.378  0.00  0.00    -0.016 C 
ATOM      9  C   UNL     1      35.480 -24.253 -15.111  0.00  0.00    +0.017 A 
ATOM     10  C   UNL     1      35.317 -23.795 -12.060  0.00  0.00    -0.076 C 
ATOM     11  C   UNL     1      36.635 -23.137 -12.448  0.00  0.00    -0.024 C 
ATOM     12  C   UNL     1      33.876 -25.473 -13.125  0.00  0.00    -0.028 C 
ATOM     13  C   UNL     1      34.119 -24.095 -15.221  0.00  0.00    +0.024 A 
ATOM     14  C   UNL     1      36.664 -26.332 -14.421  0.00  0.00    -0.015 C 
ATOM     15  C   UNL     1      33.240 -24.623 -14.230  0.00  0.00    +0.056 C 
ATOM     16  C   UNL     1      33.850 -23.369 -16.380  0.00  0.00    +0.022 A 
ATOM     17  C   UNL     1      35.077 -23.118 -17.000  0.00  0.00    +0.059 A 
ATOM     18  C   UNL     1      32.667 -22.908 -16.946  0.00  0.00    +0.059 C 
ATOM     19  C   UNL     1      35.176 -22.415 -18.204  0.00  0.00    +0.047 C 
ATOM     20  C   UNL     1      31.363 -23.133 -16.298  0.00  0.00    +0.265 C 
ATOM     21  C   UNL     1      32.753 -22.198 -18.159  0.00  0.00    +0.034 C 
ATOM     22  C   UNL     1      33.985 -21.961 -18.773  0.00  0.00    +0.142 C 
ATOM     23  H   UNL     1      35.584 -25.827 -12.237  0.00  0.00    -0.078 HD
ATOM     24  H   UNL     1      37.024 -23.664 -16.401  0.00  0.00    +0.166 HD
ATOM     25  H   UNL     1      30.233 -23.833 -14.841  0.00  0.00    +0.178 HD
ENDROOT
TORSDOF 0
ENDMDL
