MODEL 1
REMARK VINA RESULT:     -12.2      0.000      0.000
REMARK  Name = 6914657
REMARK  8 active torsions:
REMARK  status: ('A' for Active; 'I' for Inactive)
REMARK    1  A    between atoms: C_1  and  C_4
REMARK    2  A    between atoms: C_1  and  C_16
REMARK    3  A    between atoms: C_9  and  C_10
REMARK    4  A    between atoms: C_16  and  C_17
REMARK    5  A    between atoms: C_17  and  C_18
REMARK    6  A    between atoms: C_18  and  N_20
REMARK    7  A    between atoms: C_21  and  C_23
REMARK    8  A    between atoms: C_24  and  C_26
REMARK                            x       y       z     vdW  Elec       q    Type
REMARK                         _______ _______ _______ _____ _____    ______ ____
ROOT
ATOM      1  C   UNL     1      32.384 -13.602 -21.176  0.00  0.00    +0.000 C 
ENDROOT
BRANCH   1   4
ATOM      2  O   UNL     1      32.972  -7.607 -19.604  0.00  0.00    -0.270 OA
ATOM      3  N   UNL     1      32.109  -9.323 -20.938  0.00  0.00    -0.276 N 
ATOM      4  C   UNL     1      31.796 -12.193 -21.162  0.00  0.00    +0.003 C 
ATOM      5  C   UNL     1      32.373 -11.348 -22.309  0.00  0.00    +0.022 C 
ATOM      6  C   UNL     1      32.055 -11.507 -19.810  0.00  0.00    +0.022 C 
ATOM      7  C   UNL     1      31.848  -9.915 -22.256  0.00  0.00    +0.094 C 
ATOM      8  C   UNL     1      31.546 -10.067 -19.812  0.00  0.00    +0.094 C 
ATOM      9  C   UNL     1      32.789  -8.125 -20.704  0.00  0.00    +0.249 C 
BRANCH   9  10
ATOM     10  C   UNL     1      33.353  -7.412 -21.857  0.00  0.00    +0.054 C 
ATOM     11  C   UNL     1      32.662  -6.338 -22.419  0.00  0.00    +0.005 C 
ATOM     12  C   UNL     1      34.579  -7.807 -22.391  0.00  0.00    +0.005 C 
ATOM     13  C   UNL     1      33.197  -5.660 -23.514  0.00  0.00    +0.000 C 
ATOM     14  C   UNL     1      35.115  -7.129 -23.486  0.00  0.00    +0.000 C 
ATOM     15  C   UNL     1      34.423  -6.055 -24.048  0.00  0.00    +0.000 C 
ENDBRANCH   9  10
ENDBRANCH   1   4
BRANCH   1  16
ATOM     16  C   UNL     1      33.160 -13.865 -22.464  0.00  0.00    +0.002 C 
BRANCH  16  17
ATOM     17  C   UNL     1      34.499 -14.541 -22.172  0.00  0.00    +0.021 C 
BRANCH  17  18
ATOM     18  C   UNL     1      34.837 -15.583 -23.231  0.00  0.00    +0.090 C 
BRANCH  18  20
ATOM     19  O   UNL     1      34.515 -18.053 -24.713  0.00  0.00    -0.270 OA
ATOM     20  N   UNL     1      34.775 -16.918 -22.699  0.00  0.00    -0.301 N 
ATOM     21  C   UNL     1      34.618 -18.049 -23.490  0.00  0.00    +0.246 C 
ATOM     22  H   UNL     1      34.848 -17.035 -21.725  0.00  0.00    +0.150 HD
BRANCH  21  23
ATOM     23  C   UNL     1      34.587 -19.300 -22.680  0.00  0.00    +0.058 C 
ATOM     24  C   UNL     1      34.411 -19.234 -21.352  0.00  0.00    +0.006 C 
BRANCH  24  26
ATOM     25  N   UNL     1      33.019 -22.003 -19.233  0.00  0.00    -0.242 NA
ATOM     26  C   UNL     1      34.355 -20.402 -20.456  0.00  0.00    +0.019 C 
ATOM     27  C   UNL     1      35.518 -21.004 -19.989  0.00  0.00    +0.003 C 
ATOM     28  C   UNL     1      33.141 -20.935 -20.053  0.00  0.00    +0.099 C 
ATOM     29  C   UNL     1      35.433 -22.105 -19.144  0.00  0.00    +0.021 C 
ATOM     30  C   UNL     1      34.172 -22.561 -18.799  0.00  0.00    +0.099 C 
ENDBRANCH  24  26
ENDBRANCH  21  23
ENDBRANCH  18  20
ENDBRANCH  17  18
ENDBRANCH  16  17
ENDBRANCH   1  16
TORSDOF 8
ENDMDL
MODEL 2
REMARK VINA RESULT:     -11.2      7.477     11.263
REMARK  Name = 6914657
REMARK  8 active torsions:
REMARK  status: ('A' for Active; 'I' for Inactive)
REMARK    1  A    between atoms: C_1  and  C_4
REMARK    2  A    between atoms: C_1  and  C_16
REMARK    3  A    between atoms: C_9  and  C_10
REMARK    4  A    between atoms: C_16  and  C_17
REMARK    5  A    between atoms: C_17  and  C_18
REMARK    6  A    between atoms: C_18  and  N_20
REMARK    7  A    between atoms: C_21  and  C_23
REMARK    8  A    between atoms: C_24  and  C_26
REMARK                            x       y       z     vdW  Elec       q    Type
REMARK                         _______ _______ _______ _____ _____    ______ ____
ROOT
ATOM      1  C   UNL     1      36.922 -22.176 -16.090  0.00  0.00    +0.000 C 
ENDROOT
BRANCH   1   4
ATOM      2  O   UNL     1      32.490 -20.758 -20.227  0.00  0.00    -0.270 OA
ATOM      3  N   UNL     1      34.609 -21.566 -19.657  0.00  0.00    -0.276 N 
ATOM      4  C   UNL     1      36.284 -22.422 -17.455  0.00  0.00    +0.003 C 
ATOM      5  C   UNL     1      36.761 -21.378 -18.478  0.00  0.00    +0.022 C 
ATOM      6  C   UNL     1      34.750 -22.408 -17.352  0.00  0.00    +0.022 C 
ATOM      7  C   UNL     1      36.068 -21.571 -19.825  0.00  0.00    +0.094 C 
ATOM      8  C   UNL     1      34.099 -22.569 -18.724  0.00  0.00    +0.094 C 
ATOM      9  C   UNL     1      33.715 -20.734 -20.335  0.00  0.00    +0.249 C 
BRANCH   9  10
ATOM     10  C   UNL     1      34.263 -19.730 -21.255  0.00  0.00    +0.054 C 
ATOM     11  C   UNL     1      34.047 -19.849 -22.628  0.00  0.00    +0.005 C 
ATOM     12  C   UNL     1      35.001 -18.656 -20.756  0.00  0.00    +0.005 C 
ATOM     13  C   UNL     1      34.569 -18.895 -23.501  0.00  0.00    +0.000 C 
ATOM     14  C   UNL     1      35.522 -17.701 -21.630  0.00  0.00    +0.000 C 
ATOM     15  C   UNL     1      35.306 -17.821 -23.003  0.00  0.00    +0.000 C 
ENDBRANCH   9  10
ENDBRANCH   1   4
BRANCH   1  16
ATOM     16  C   UNL     1      36.254 -23.020 -15.008  0.00  0.00    +0.002 C 
BRANCH  16  17
ATOM     17  C   UNL     1      37.220 -24.067 -14.453  0.00  0.00    +0.021 C 
BRANCH  17  18
ATOM     18  C   UNL     1      36.471 -25.214 -13.784  0.00  0.00    +0.090 C 
BRANCH  18  20
ATOM     19  O   UNL     1      34.521 -24.177 -11.908  0.00  0.00    -0.270 OA
ATOM     20  N   UNL     1      35.050 -25.101 -13.976  0.00  0.00    -0.301 N 
ATOM     21  C   UNL     1      34.188 -24.588 -13.016  0.00  0.00    +0.246 C 
ATOM     22  H   UNL     1      34.670 -25.401 -14.833  0.00  0.00    +0.150 HD
BRANCH  21  23
ATOM     23  C   UNL     1      32.771 -24.586 -13.478  0.00  0.00    +0.058 C 
ATOM     24  C   UNL     1      32.433 -23.929 -14.597  0.00  0.00    +0.006 C 
BRANCH  24  26
ATOM     25  N   UNL     1      29.510 -22.842 -16.689  0.00  0.00    -0.242 NA
ATOM     26  C   UNL     1      31.069 -23.866 -15.151  0.00  0.00    +0.019 C 
ATOM     27  C   UNL     1      30.071 -24.723 -14.699  0.00  0.00    +0.003 C 
ATOM     28  C   UNL     1      30.740 -22.952 -16.139  0.00  0.00    +0.099 C 
ATOM     29  C   UNL     1      28.794 -24.640 -15.241  0.00  0.00    +0.021 C 
ATOM     30  C   UNL     1      28.566 -23.691 -16.224  0.00  0.00    +0.099 C 
ENDBRANCH  24  26
ENDBRANCH  21  23
ENDBRANCH  18  20
ENDBRANCH  17  18
ENDBRANCH  16  17
ENDBRANCH   1  16
TORSDOF 8
ENDMDL
MODEL 3
REMARK VINA RESULT:     -11.2      5.490     13.499
REMARK  Name = 6914657
REMARK  8 active torsions:
REMARK  status: ('A' for Active; 'I' for Inactive)
REMARK    1  A    between atoms: C_1  and  C_4
REMARK    2  A    between atoms: C_1  and  C_16
REMARK    3  A    between atoms: C_9  and  C_10
REMARK    4  A    between atoms: C_16  and  C_17
REMARK    5  A    between atoms: C_17  and  C_18
REMARK    6  A    between atoms: C_18  and  N_20
REMARK    7  A    between atoms: C_21  and  C_23
REMARK    8  A    between atoms: C_24  and  C_26
REMARK                            x       y       z     vdW  Elec       q    Type
REMARK                         _______ _______ _______ _____ _____    ______ ____
ROOT
ATOM      1  C   UNL     1      33.506 -23.258 -18.437  0.00  0.00    +0.000 C 
ENDROOT
BRANCH   1   4
ATOM      2  O   UNL     1      33.180 -25.067 -12.489  0.00  0.00    -0.270 OA
ATOM      3  N   UNL     1      33.867 -23.595 -14.170  0.00  0.00    -0.276 N 
ATOM      4  C   UNL     1      33.521 -22.884 -16.957  0.00  0.00    +0.003 C 
ATOM      5  C   UNL     1      34.912 -23.120 -16.347  0.00  0.00    +0.022 C 
ATOM      6  C   UNL     1      32.456 -23.679 -16.182  0.00  0.00    +0.022 C 
ATOM      7  C   UNL     1      34.915 -22.822 -14.849  0.00  0.00    +0.094 C 
ATOM      8  C   UNL     1      32.517 -23.376 -14.686  0.00  0.00    +0.094 C 
ATOM      9  C   UNL     1      34.062 -24.452 -13.084  0.00  0.00    +0.249 C 
BRANCH   9  10
ATOM     10  C   UNL     1      35.433 -24.658 -12.602  0.00  0.00    +0.054 C 
ATOM     11  C   UNL     1      35.948 -23.842 -11.593  0.00  0.00    +0.005 C 
ATOM     12  C   UNL     1      36.222 -25.669 -13.151  0.00  0.00    +0.005 C 
ATOM     13  C   UNL     1      37.250 -24.038 -11.135  0.00  0.00    +0.000 C 
ATOM     14  C   UNL     1      37.524 -25.865 -12.692  0.00  0.00    +0.000 C 
ATOM     15  C   UNL     1      38.039 -25.049 -11.684  0.00  0.00    +0.000 C 
ENDBRANCH   9  10
ENDBRANCH   1   4
BRANCH   1  16
ATOM     16  C   UNL     1      33.985 -22.097 -19.305  0.00  0.00    +0.002 C 
BRANCH  16  17
ATOM     17  C   UNL     1      35.425 -22.315 -19.769  0.00  0.00    +0.021 C 
BRANCH  17  18
ATOM     18  C   UNL     1      36.291 -21.094 -19.482  0.00  0.00    +0.090 C 
BRANCH  18  20
ATOM     19  O   UNL     1      37.843 -19.075 -20.865  0.00  0.00    -0.270 OA
ATOM     20  N   UNL     1      35.797 -19.924 -20.156  0.00  0.00    -0.301 N 
ATOM     21  C   UNL     1      36.620 -19.007 -20.796  0.00  0.00    +0.246 C 
ATOM     22  H   UNL     1      34.825 -19.767 -20.165  0.00  0.00    +0.150 HD
BRANCH  21  23
ATOM     23  C   UNL     1      35.844 -17.892 -21.412  0.00  0.00    +0.058 C 
ATOM     24  C   UNL     1      35.589 -17.901 -22.728  0.00  0.00    +0.006 C 
BRANCH  24  26
ATOM     25  N   UNL     1      33.570 -16.195 -25.395  0.00  0.00    -0.242 NA
ATOM     26  C   UNL     1      34.827 -16.860 -23.439  0.00  0.00    +0.019 C 
ATOM     27  C   UNL     1      34.635 -15.601 -22.879  0.00  0.00    +0.003 C 
ATOM     28  C   UNL     1      34.278 -17.104 -24.688  0.00  0.00    +0.099 C 
ATOM     29  C   UNL     1      33.912 -14.640 -23.575  0.00  0.00    +0.021 C 
ATOM     30  C   UNL     1      33.405 -14.983 -24.818  0.00  0.00    +0.099 C 
ENDBRANCH  24  26
ENDBRANCH  21  23
ENDBRANCH  18  20
ENDBRANCH  17  18
ENDBRANCH  16  17
ENDBRANCH   1  16
TORSDOF 8
ENDMDL
MODEL 4
REMARK VINA RESULT:     -11.1      6.644     13.183
REMARK  Name = 6914657
REMARK  8 active torsions:
REMARK  status: ('A' for Active; 'I' for Inactive)
REMARK    1  A    between atoms: C_1  and  C_4
REMARK    2  A    between atoms: C_1  and  C_16
REMARK    3  A    between atoms: C_9  and  C_10
REMARK    4  A    between atoms: C_16  and  C_17
REMARK    5  A    between atoms: C_17  and  C_18
REMARK    6  A    between atoms: C_18  and  N_20
REMARK    7  A    between atoms: C_21  and  C_23
REMARK    8  A    between atoms: C_24  and  C_26
REMARK                            x       y       z     vdW  Elec       q    Type
REMARK                         _______ _______ _______ _____ _____    ______ ____
ROOT
ATOM      1  C   UNL     1      36.060 -22.406 -14.988  0.00  0.00    +0.000 C 
ENDROOT
BRANCH   1   4
ATOM      2  O   UNL     1      30.922 -24.950 -12.561  0.00  0.00    -0.270 OA
ATOM      3  N   UNL     1      32.453 -24.634 -14.299  0.00  0.00    -0.276 N 
ATOM      4  C   UNL     1      35.056 -23.556 -14.971  0.00  0.00    +0.003 C 
ATOM      5  C   UNL     1      33.797 -23.196 -15.775  0.00  0.00    +0.022 C 
ATOM      6  C   UNL     1      34.679 -23.931 -13.528  0.00  0.00    +0.022 C 
ATOM      7  C   UNL     1      32.757 -24.311 -15.699  0.00  0.00    +0.094 C 
ATOM      8  C   UNL     1      33.613 -25.024 -13.498  0.00  0.00    +0.094 C 
ATOM      9  C   UNL     1      31.181 -24.639 -13.722  0.00  0.00    +0.249 C 
BRANCH   9  10
ATOM     10  C   UNL     1      30.042 -24.229 -14.552  0.00  0.00    +0.054 C 
ATOM     11  C   UNL     1      29.369 -25.173 -15.327  0.00  0.00    +0.005 C 
ATOM     12  C   UNL     1      29.633 -22.896 -14.567  0.00  0.00    +0.005 C 
ATOM     13  C   UNL     1      28.287 -24.785 -16.116  0.00  0.00    +0.000 C 
ATOM     14  C   UNL     1      28.550 -22.507 -15.356  0.00  0.00    +0.000 C 
ATOM     15  C   UNL     1      27.877 -23.452 -16.131  0.00  0.00    +0.000 C 
ENDBRANCH   9  10
ENDBRANCH   1   4
BRANCH   1  16
ATOM     16  C   UNL     1      37.076 -22.576 -16.114  0.00  0.00    +0.002 C 
BRANCH  16  17
ATOM     17  C   UNL     1      36.820 -21.577 -17.242  0.00  0.00    +0.021 C 
BRANCH  17  18
ATOM     18  C   UNL     1      36.090 -22.232 -18.408  0.00  0.00    +0.090 C 
BRANCH  18  20
ATOM     19  O   UNL     1      33.353 -21.908 -19.304  0.00  0.00    -0.270 OA
ATOM     20  N   UNL     1      35.585 -21.254 -19.333  0.00  0.00    -0.301 N 
ATOM     21  C   UNL     1      34.250 -21.173 -19.706  0.00  0.00    +0.246 C 
ATOM     22  H   UNL     1      36.219 -20.609 -19.721  0.00  0.00    +0.150 HD
BRANCH  21  23
ATOM     23  C   UNL     1      34.004 -20.068 -20.676  0.00  0.00    +0.058 C 
ATOM     24  C   UNL     1      34.974 -19.691 -21.521  0.00  0.00    +0.006 C 
BRANCH  24  26
ATOM     25  N   UNL     1      34.138 -17.939 -24.735  0.00  0.00    -0.242 NA
ATOM     26  C   UNL     1      34.840 -18.621 -22.524  0.00  0.00    +0.019 C 
ATOM     27  C   UNL     1      35.263 -17.324 -22.251  0.00  0.00    +0.003 C 
ATOM     28  C   UNL     1      34.289 -18.874 -23.770  0.00  0.00    +0.099 C 
ATOM     29  C   UNL     1      35.125 -16.336 -23.219  0.00  0.00    +0.021 C 
ATOM     30  C   UNL     1      34.561 -16.691 -24.433  0.00  0.00    +0.099 C 
ENDBRANCH  24  26
ENDBRANCH  21  23
ENDBRANCH  18  20
ENDBRANCH  17  18
ENDBRANCH  16  17
ENDBRANCH   1  16
TORSDOF 8
ENDMDL
MODEL 5
REMARK VINA RESULT:     -11.1      3.420      6.955
REMARK  Name = 6914657
REMARK  8 active torsions:
REMARK  status: ('A' for Active; 'I' for Inactive)
REMARK    1  A    between atoms: C_1  and  C_4
REMARK    2  A    between atoms: C_1  and  C_16
REMARK    3  A    between atoms: C_9  and  C_10
REMARK    4  A    between atoms: C_16  and  C_17
REMARK    5  A    between atoms: C_17  and  C_18
REMARK    6  A    between atoms: C_18  and  N_20
REMARK    7  A    between atoms: C_21  and  C_23
REMARK    8  A    between atoms: C_24  and  C_26
REMARK                            x       y       z     vdW  Elec       q    Type
REMARK                         _______ _______ _______ _____ _____    ______ ____
ROOT
ATOM      1  C   UNL     1      35.244 -19.036 -21.122  0.00  0.00    +0.000 C 
ENDROOT
BRANCH   1   4
ATOM      2  O   UNL     1      32.851 -15.043 -25.257  0.00  0.00    -0.270 OA
ATOM      3  N   UNL     1      34.410 -15.643 -23.621  0.00  0.00    -0.276 N 
ATOM      4  C   UNL     1      35.452 -17.854 -22.066  0.00  0.00    +0.003 C 
ATOM      5  C   UNL     1      34.999 -16.541 -21.407  0.00  0.00    +0.022 C 
ATOM      6  C   UNL     1      34.701 -18.074 -23.390  0.00  0.00    +0.022 C 
ATOM      7  C   UNL     1      35.131 -15.366 -22.373  0.00  0.00    +0.094 C 
ATOM      8  C   UNL     1      34.832 -16.862 -24.311  0.00  0.00    +0.094 C 
ATOM      9  C   UNL     1      33.425 -14.832 -24.191  0.00  0.00    +0.249 C 
BRANCH   9  10
ATOM     10  C   UNL     1      33.018 -13.624 -23.464  0.00  0.00    +0.054 C 
ATOM     11  C   UNL     1      33.411 -12.367 -23.924  0.00  0.00    +0.005 C 
ATOM     12  C   UNL     1      32.237 -13.731 -22.313  0.00  0.00    +0.005 C 
ATOM     13  C   UNL     1      33.025 -11.219 -23.234  0.00  0.00    +0.000 C 
ATOM     14  C   UNL     1      31.850 -12.583 -21.623  0.00  0.00    +0.000 C 
ATOM     15  C   UNL     1      32.244 -11.326 -22.083  0.00  0.00    +0.000 C 
ENDBRANCH   9  10
ENDBRANCH   1   4
BRANCH   1  16
ATOM     16  C   UNL     1      36.578 -19.636 -20.686  0.00  0.00    +0.002 C 
BRANCH  16  17
ATOM     17  C   UNL     1      36.386 -20.629 -19.540  0.00  0.00    +0.021 C 
BRANCH  17  18
ATOM     18  C   UNL     1      35.417 -21.740 -19.926  0.00  0.00    +0.090 C 
BRANCH  18  20
ATOM     19  O   UNL     1      32.615 -22.158 -19.317  0.00  0.00    -0.270 OA
ATOM     20  N   UNL     1      34.864 -22.385 -18.766  0.00  0.00    -0.301 N 
ATOM     21  C   UNL     1      33.500 -22.541 -18.557  0.00  0.00    +0.246 C 
ATOM     22  H   UNL     1      35.484 -22.735 -18.087  0.00  0.00    +0.150 HD
BRANCH  21  23
ATOM     23  C   UNL     1      33.205 -23.245 -17.276  0.00  0.00    +0.058 C 
ATOM     24  C   UNL     1      32.015 -23.084 -16.682  0.00  0.00    +0.006 C 
BRANCH  24  26
ATOM     25  N   UNL     1      32.093 -24.214 -13.102  0.00  0.00    -0.242 NA
ATOM     26  C   UNL     1      31.613 -23.735 -15.423  0.00  0.00    +0.019 C 
ATOM     27  C   UNL     1      30.432 -24.463 -15.336  0.00  0.00    +0.003 C 
ATOM     28  C   UNL     1      32.402 -23.641 -14.287  0.00  0.00    +0.099 C 
ATOM     29  C   UNL     1      30.080 -25.066 -14.135  0.00  0.00    +0.021 C 
ATOM     30  C   UNL     1      30.936 -24.914 -13.057  0.00  0.00    +0.099 C 
ENDBRANCH  24  26
ENDBRANCH  21  23
ENDBRANCH  18  20
ENDBRANCH  17  18
ENDBRANCH  16  17
ENDBRANCH   1  16
TORSDOF 8
ENDMDL
MODEL 6
REMARK VINA RESULT:     -11.0      1.074      1.654
REMARK  Name = 6914657
REMARK  8 active torsions:
REMARK  status: ('A' for Active; 'I' for Inactive)
REMARK    1  A    between atoms: C_1  and  C_4
REMARK    2  A    between atoms: C_1  and  C_16
REMARK    3  A    between atoms: C_9  and  C_10
REMARK    4  A    between atoms: C_16  and  C_17
REMARK    5  A    between atoms: C_17  and  C_18
REMARK    6  A    between atoms: C_18  and  N_20
REMARK    7  A    between atoms: C_21  and  C_23
REMARK    8  A    between atoms: C_24  and  C_26
REMARK                            x       y       z     vdW  Elec       q    Type
REMARK                         _______ _______ _______ _____ _____    ______ ____
ROOT
ATOM      1  C   UNL     1      31.935 -13.300 -20.973  0.00  0.00    +0.000 C 
ENDROOT
BRANCH   1   4
ATOM      2  O   UNL     1      33.231  -7.375 -19.567  0.00  0.00    -0.270 OA
ATOM      3  N   UNL     1      32.100  -9.012 -20.796  0.00  0.00    -0.276 N 
ATOM      4  C   UNL     1      31.491 -11.839 -20.939  0.00  0.00    +0.003 C 
ATOM      5  C   UNL     1      32.053 -11.069 -22.145  0.00  0.00    +0.022 C 
ATOM      6  C   UNL     1      31.924 -11.167 -19.626  0.00  0.00    +0.022 C 
ATOM      7  C   UNL     1      31.677  -9.590 -22.077  0.00  0.00    +0.094 C 
ATOM      8  C   UNL     1      31.559  -9.684 -19.615  0.00  0.00    +0.094 C 
ATOM      9  C   UNL     1      32.910  -7.884 -20.639  0.00  0.00    +0.249 C 
BRANCH   9  10
ATOM     10  C   UNL     1      33.446  -7.243 -21.846  0.00  0.00    +0.054 C 
ATOM     11  C   UNL     1      34.676  -7.650 -22.365  0.00  0.00    +0.005 C 
ATOM     12  C   UNL     1      32.726  -6.228 -22.476  0.00  0.00    +0.005 C 
ATOM     13  C   UNL     1      35.185  -7.041 -23.511  0.00  0.00    +0.000 C 
ATOM     14  C   UNL     1      33.234  -5.620 -23.623  0.00  0.00    +0.000 C 
ATOM     15  C   UNL     1      34.465  -6.026 -24.141  0.00  0.00    +0.000 C 
ENDBRANCH   9  10
ENDBRANCH   1   4
BRANCH   1  16
ATOM     16  C   UNL     1      33.120 -13.495 -21.915  0.00  0.00    +0.002 C 
BRANCH  16  17
ATOM     17  C   UNL     1      32.651 -13.676 -23.358  0.00  0.00    +0.021 C 
BRANCH  17  18
ATOM     18  C   UNL     1      33.731 -14.326 -24.215  0.00  0.00    +0.090 C 
BRANCH  18  20
ATOM     19  O   UNL     1      34.175 -17.052 -25.091  0.00  0.00    -0.270 OA
ATOM     20  N   UNL     1      34.415 -15.370 -23.502  0.00  0.00    -0.301 N 
ATOM     21  C   UNL     1      34.581 -16.655 -24.003  0.00  0.00    +0.246 C 
ATOM     22  H   UNL     1      34.785 -15.163 -22.614  0.00  0.00    +0.150 HD
BRANCH  21  23
ATOM     23  C   UNL     1      35.328 -17.533 -23.057  0.00  0.00    +0.058 C 
ATOM     24  C   UNL     1      34.660 -18.377 -22.259  0.00  0.00    +0.006 C 
BRANCH  24  26
ATOM     25  N   UNL     1      35.084 -21.188 -19.805  0.00  0.00    -0.242 NA
ATOM     26  C   UNL     1      35.292 -19.295 -21.295  0.00  0.00    +0.019 C 
ATOM     27  C   UNL     1      36.635 -19.168 -20.958  0.00  0.00    +0.003 C 
ATOM     28  C   UNL     1      34.567 -20.313 -20.696  0.00  0.00    +0.099 C 
ATOM     29  C   UNL     1      37.203 -20.049 -20.045  0.00  0.00    +0.021 C 
ATOM     30  C   UNL     1      36.393 -21.032 -19.501  0.00  0.00    +0.099 C 
ENDBRANCH  24  26
ENDBRANCH  21  23
ENDBRANCH  18  20
ENDBRANCH  17  18
ENDBRANCH  16  17
ENDBRANCH   1  16
TORSDOF 8
ENDMDL
MODEL 7
REMARK VINA RESULT:     -11.0      3.029     12.090
REMARK  Name = 6914657
REMARK  8 active torsions:
REMARK  status: ('A' for Active; 'I' for Inactive)
REMARK    1  A    between atoms: C_1  and  C_4
REMARK    2  A    between atoms: C_1  and  C_16
REMARK    3  A    between atoms: C_9  and  C_10
REMARK    4  A    between atoms: C_16  and  C_17
REMARK    5  A    between atoms: C_17  and  C_18
REMARK    6  A    between atoms: C_18  and  N_20
REMARK    7  A    between atoms: C_21  and  C_23
REMARK    8  A    between atoms: C_24  and  C_26
REMARK                            x       y       z     vdW  Elec       q    Type
REMARK                         _______ _______ _______ _____ _____    ______ ____
ROOT
ATOM      1  C   UNL     1      34.435 -19.304 -21.108  0.00  0.00    +0.000 C 
ENDROOT
BRANCH   1   4
ATOM      2  O   UNL     1      35.860 -23.092 -16.378  0.00  0.00    -0.270 OA
ATOM      3  N   UNL     1      34.667 -22.559 -18.316  0.00  0.00    -0.276 N 
ATOM      4  C   UNL     1      34.512 -20.723 -20.551  0.00  0.00    +0.003 C 
ATOM      5  C   UNL     1      33.292 -21.031 -19.669  0.00  0.00    +0.022 C 
ATOM      6  C   UNL     1      35.812 -20.927 -19.755  0.00  0.00    +0.022 C 
ATOM      7  C   UNL     1      33.400 -22.421 -19.045  0.00  0.00    +0.094 C 
ATOM      8  C   UNL     1      35.863 -22.316 -19.121  0.00  0.00    +0.094 C 
ATOM      9  C   UNL     1      34.798 -22.936 -16.977  0.00  0.00    +0.249 C 
BRANCH   9  10
ATOM     10  C   UNL     1      33.576 -23.158 -16.197  0.00  0.00    +0.054 C 
ATOM     11  C   UNL     1      32.329 -23.105 -16.822  0.00  0.00    +0.005 C 
ATOM     12  C   UNL     1      33.658 -23.423 -14.830  0.00  0.00    +0.005 C 
ATOM     13  C   UNL     1      31.167 -23.317 -16.080  0.00  0.00    +0.000 C 
ATOM     14  C   UNL     1      32.496 -23.635 -14.088  0.00  0.00    +0.000 C 
ATOM     15  C   UNL     1      31.250 -23.581 -14.714  0.00  0.00    +0.000 C 
ENDBRANCH   9  10
ENDBRANCH   1   4
BRANCH   1  16
ATOM     16  C   UNL     1      34.874 -19.260 -22.570  0.00  0.00    +0.002 C 
BRANCH  16  17
ATOM     17  C   UNL     1      35.423 -17.881 -22.938  0.00  0.00    +0.021 C 
BRANCH  17  18
ATOM     18  C   UNL     1      34.624 -17.252 -24.074  0.00  0.00    +0.090 C 
BRANCH  18  20
ATOM     19  O   UNL     1      33.471 -15.289 -25.865  0.00  0.00    -0.270 OA
ATOM     20  N   UNL     1      34.210 -15.914 -23.751  0.00  0.00    -0.301 N 
ATOM     21  C   UNL     1      33.663 -15.038 -24.680  0.00  0.00    +0.246 C 
ATOM     22  H   UNL     1      34.318 -15.604 -22.823  0.00  0.00    +0.150 HD
BRANCH  21  23
ATOM     23  C   UNL     1      33.323 -13.719 -24.074  0.00  0.00    +0.058 C 
ATOM     24  C   UNL     1      32.742 -13.666 -22.868  0.00  0.00    +0.006 C 
BRANCH  24  26
ATOM     25  N   UNL     1      32.113 -10.019 -22.234  0.00  0.00    -0.242 NA
ATOM     26  C   UNL     1      32.370 -12.422 -22.171  0.00  0.00    +0.019 C 
ATOM     27  C   UNL     1      31.940 -12.441 -20.849  0.00  0.00    +0.003 C 
ATOM     28  C   UNL     1      32.438 -11.196 -22.814  0.00  0.00    +0.099 C 
ATOM     29  C   UNL     1      31.597 -11.250 -20.219  0.00  0.00    +0.021 C 
ATOM     30  C   UNL     1      31.700 -10.077 -20.948  0.00  0.00    +0.099 C 
ENDBRANCH  24  26
ENDBRANCH  21  23
ENDBRANCH  18  20
ENDBRANCH  17  18
ENDBRANCH  16  17
ENDBRANCH   1  16
TORSDOF 8
ENDMDL
MODEL 8
REMARK VINA RESULT:     -10.8      5.230     13.054
REMARK  Name = 6914657
REMARK  8 active torsions:
REMARK  status: ('A' for Active; 'I' for Inactive)
REMARK    1  A    between atoms: C_1  and  C_4
REMARK    2  A    between atoms: C_1  and  C_16
REMARK    3  A    between atoms: C_9  and  C_10
REMARK    4  A    between atoms: C_16  and  C_17
REMARK    5  A    between atoms: C_17  and  C_18
REMARK    6  A    between atoms: C_18  and  N_20
REMARK    7  A    between atoms: C_21  and  C_23
REMARK    8  A    between atoms: C_24  and  C_26
REMARK                            x       y       z     vdW  Elec       q    Type
REMARK                         _______ _______ _______ _____ _____    ______ ____
ROOT
ATOM      1  C   UNL     1      36.394 -21.840 -16.846  0.00  0.00    +0.000 C 
ENDROOT
BRANCH   1   4
ATOM      2  O   UNL     1      32.519 -23.831 -12.398  0.00  0.00    -0.270 OA
ATOM      3  N   UNL     1      33.568 -24.042 -14.477  0.00  0.00    -0.276 N 
ATOM      4  C   UNL     1      35.688 -23.004 -16.155  0.00  0.00    +0.003 C 
ATOM      5  C   UNL     1      34.246 -23.152 -16.668  0.00  0.00    +0.022 C 
ATOM      6  C   UNL     1      35.696 -22.820 -14.628  0.00  0.00    +0.022 C 
ATOM      7  C   UNL     1      33.510 -24.265 -15.927  0.00  0.00    +0.094 C 
ATOM      8  C   UNL     1      34.921 -23.936 -13.931  0.00  0.00    +0.094 C 
ATOM      9  C   UNL     1      32.469 -23.976 -13.618  0.00  0.00    +0.249 C 
BRANCH   9  10
ATOM     10  C   UNL     1      31.126 -24.073 -14.203  0.00  0.00    +0.054 C 
ATOM     11  C   UNL     1      30.505 -22.935 -14.719  0.00  0.00    +0.005 C 
ATOM     12  C   UNL     1      30.469 -25.303 -14.242  0.00  0.00    +0.005 C 
ATOM     13  C   UNL     1      29.230 -23.028 -15.275  0.00  0.00    +0.000 C 
ATOM     14  C   UNL     1      29.194 -25.396 -14.799  0.00  0.00    +0.000 C 
ATOM     15  C   UNL     1      28.574 -24.257 -15.315  0.00  0.00    +0.000 C 
ENDBRANCH   9  10
ENDBRANCH   1   4
BRANCH   1  16
ATOM     16  C   UNL     1      36.492 -22.067 -18.352  0.00  0.00    +0.002 C 
BRANCH  16  17
ATOM     17  C   UNL     1      35.298 -21.452 -19.080  0.00  0.00    +0.021 C 
BRANCH  17  18
ATOM     18  C   UNL     1      35.566 -21.323 -20.575  0.00  0.00    +0.090 C 
BRANCH  18  20
ATOM     19  O   UNL     1      37.125 -18.889 -20.378  0.00  0.00    -0.270 OA
ATOM     20  N   UNL     1      35.212 -20.019 -21.066  0.00  0.00    -0.301 N 
ATOM     21  C   UNL     1      36.027 -18.903 -20.925  0.00  0.00    +0.246 C 
ATOM     22  H   UNL     1      34.348 -19.912 -21.525  0.00  0.00    +0.150 HD
BRANCH  21  23
ATOM     23  C   UNL     1      35.416 -17.683 -21.526  0.00  0.00    +0.058 C 
ATOM     24  C   UNL     1      35.226 -17.612 -22.851  0.00  0.00    +0.006 C 
BRANCH  24  26
ATOM     25  N   UNL     1      33.492 -15.597 -25.503  0.00  0.00    -0.242 NA
ATOM     26  C   UNL     1      34.625 -16.463 -23.550  0.00  0.00    +0.019 C 
ATOM     27  C   UNL     1      34.607 -15.200 -22.970  0.00  0.00    +0.003 C 
ATOM     28  C   UNL     1      34.059 -16.608 -24.807  0.00  0.00    +0.099 C 
ATOM     29  C   UNL     1      34.033 -14.135 -23.655  0.00  0.00    +0.021 C 
ATOM     30  C   UNL     1      33.494 -14.383 -24.907  0.00  0.00    +0.099 C 
ENDBRANCH  24  26
ENDBRANCH  21  23
ENDBRANCH  18  20
ENDBRANCH  17  18
ENDBRANCH  16  17
ENDBRANCH   1  16
TORSDOF 8
ENDMDL
MODEL 9
REMARK VINA RESULT:     -10.7      1.815      2.567
REMARK  Name = 6914657
REMARK  8 active torsions:
REMARK  status: ('A' for Active; 'I' for Inactive)
REMARK    1  A    between atoms: C_1  and  C_4
REMARK    2  A    between atoms: C_1  and  C_16
REMARK    3  A    between atoms: C_9  and  C_10
REMARK    4  A    between atoms: C_16  and  C_17
REMARK    5  A    between atoms: C_17  and  C_18
REMARK    6  A    between atoms: C_18  and  N_20
REMARK    7  A    between atoms: C_21  and  C_23
REMARK    8  A    between atoms: C_24  and  C_26
REMARK                            x       y       z     vdW  Elec       q    Type
REMARK                         _______ _______ _______ _____ _____    ______ ____
ROOT
ATOM      1  C   UNL     1      34.288 -13.865 -23.374  0.00  0.00    +0.000 C 
ENDROOT
BRANCH   1   4
ATOM      2  O   UNL     1      31.172 -10.336 -19.300  0.00  0.00    -0.270 OA
ATOM      3  N   UNL     1      31.702 -11.010 -21.475  0.00  0.00    -0.276 N 
ATOM      4  C   UNL     1      33.048 -13.038 -23.045  0.00  0.00    +0.003 C 
ATOM      5  C   UNL     1      33.320 -11.539 -23.252  0.00  0.00    +0.022 C 
ATOM      6  C   UNL     1      32.581 -13.302 -21.604  0.00  0.00    +0.022 C 
ATOM      7  C   UNL     1      32.109 -10.699 -22.851  0.00  0.00    +0.094 C 
ATOM      8  C   UNL     1      31.391 -12.418 -21.235  0.00  0.00    +0.094 C 
ATOM      9  C   UNL     1      31.553 -10.083 -20.441  0.00  0.00    +0.249 C 
BRANCH   9  10
ATOM     10  C   UNL     1      31.887  -8.680 -20.715  0.00  0.00    +0.054 C 
ATOM     11  C   UNL     1      31.317  -8.028 -21.810  0.00  0.00    +0.005 C 
ATOM     12  C   UNL     1      32.773  -7.997 -19.882  0.00  0.00    +0.005 C 
ATOM     13  C   UNL     1      31.634  -6.696 -22.071  0.00  0.00    +0.000 C 
ATOM     14  C   UNL     1      33.089  -6.663 -20.143  0.00  0.00    +0.000 C 
ATOM     15  C   UNL     1      32.520  -6.013 -21.238  0.00  0.00    +0.000 C 
ENDBRANCH   9  10
ENDBRANCH   1   4
BRANCH   1  16
ATOM     16  C   UNL     1      34.468 -15.010 -22.380  0.00  0.00    +0.002 C 
BRANCH  16  17
ATOM     17  C   UNL     1      34.638 -16.345 -23.104  0.00  0.00    +0.021 C 
BRANCH  17  18
ATOM     18  C   UNL     1      35.754 -17.176 -22.482  0.00  0.00    +0.090 C 
BRANCH  18  20
ATOM     19  O   UNL     1      34.873 -19.900 -22.926  0.00  0.00    -0.270 OA
ATOM     20  N   UNL     1      35.245 -18.098 -21.503  0.00  0.00    -0.301 N 
ATOM     21  C   UNL     1      34.844 -19.392 -21.809  0.00  0.00    +0.246 C 
ATOM     22  H   UNL     1      35.178 -17.796 -20.569  0.00  0.00    +0.150 HD
BRANCH  21  23
ATOM     23  C   UNL     1      34.360 -20.128 -20.606  0.00  0.00    +0.058 C 
ATOM     24  C   UNL     1      35.094 -21.123 -20.090  0.00  0.00    +0.006 C 
BRANCH  24  26
ATOM     25  N   UNL     1      35.384 -22.965 -16.830  0.00  0.00    -0.242 NA
ATOM     26  C   UNL     1      34.719 -21.910 -18.903  0.00  0.00    +0.019 C 
ATOM     27  C   UNL     1      33.411 -22.341 -18.710  0.00  0.00    +0.003 C 
ATOM     28  C   UNL     1      35.660 -22.245 -17.941  0.00  0.00    +0.099 C 
ATOM     29  C   UNL     1      33.088 -23.082 -17.580  0.00  0.00    +0.021 C 
ATOM     30  C   UNL     1      34.101 -23.366 -16.678  0.00  0.00    +0.099 C 
ENDBRANCH  24  26
ENDBRANCH  21  23
ENDBRANCH  18  20
ENDBRANCH  17  18
ENDBRANCH  16  17
ENDBRANCH   1  16
TORSDOF 8
ENDMDL
