MODEL 1
REMARK VINA RESULT:     -13.3      0.000      0.000
REMARK  Name = 23656870
REMARK  4 active torsions:
REMARK  status: ('A' for Active; 'I' for Inactive)
REMARK    1  A    between atoms: N_2  and  C_25
REMARK    2  A    between atoms: N_3  and  C_14
REMARK    3  A    between atoms: C_10  and  C_32
REMARK    4  A    between atoms: C_16  and  N_21
REMARK                            x       y       z     vdW  Elec       q    Type
REMARK                         _______ _______ _______ _____ _____    ______ ____
ROOT
ATOM      1  N   UNL     1      32.039 -23.574 -14.902  0.00  0.00    -0.123 N 
ATOM      2  N   UNL     1      34.310 -24.040 -14.458  0.00  0.00    -0.274 N 
ATOM      3  N   UNL     1      32.832 -22.439 -18.657  0.00  0.00    -0.238 N 
ATOM      4  N   UNL     1      33.576 -23.239 -16.564  0.00  0.00    -0.295 NA
ATOM      5  N   UNL     1      31.269 -22.779 -16.978  0.00  0.00    -0.314 NA
ATOM      6  N   UNL     1      31.658 -23.932 -13.662  0.00  0.00    -0.170 NA
ATOM      7  C   UNL     1      33.354 -23.614 -15.338  0.00  0.00    +0.279 C 
ATOM      8  C   UNL     1      31.015 -23.166 -15.707  0.00  0.00    +0.219 C 
ATOM      9  C   UNL     1      32.522 -22.823 -17.374  0.00  0.00    +0.207 C 
ATOM     10  C   UNL     1      29.880 -23.264 -14.936  0.00  0.00    +0.203 C 
ATOM     11  C   UNL     1      30.336 -23.740 -13.689  0.00  0.00    +0.116 C 
ATOM     12  H   UNL     1      33.990 -24.292 -13.562  0.00  0.00    +0.156 HD
ATOM     13  H   UNL     1      32.133 -22.587 -19.333  0.00  0.00    +0.166 HD
ENDROOT
BRANCH   3  14
ATOM     14  C   UNL     1      34.016 -21.868 -19.120  0.00  0.00    +0.060 C 
ATOM     15  C   UNL     1      33.981 -20.930 -20.152  0.00  0.00    +0.030 C 
ATOM     16  C   UNL     1      35.165 -20.357 -20.614  0.00  0.00    +0.052 C 
ATOM     17  C   UNL     1      35.236 -22.232 -18.549  0.00  0.00    +0.015 C 
ATOM     18  C   UNL     1      36.385 -20.721 -20.044  0.00  0.00    +0.015 C 
ATOM     19  C   UNL     1      36.421 -21.658 -19.011  0.00  0.00    +0.003 C 
BRANCH  16  21
ATOM     20  O   UNL     1      35.300 -17.350 -20.534  0.00  0.00    -0.275 OA
ATOM     21  N   UNL     1      35.131 -19.421 -21.648  0.00  0.00    -0.284 N 
ATOM     22  C   UNL     1      35.197 -18.024 -21.554  0.00  0.00    +0.227 C 
ATOM     23  C   UNL     1      35.128 -17.368 -22.910  0.00  0.00    +0.095 C 
ATOM     24  H   UNL     1      35.051 -19.787 -22.559  0.00  0.00    +0.155 HD
ENDBRANCH  16  21
ENDBRANCH   3  14
BRANCH   2  25
ATOM     25  C   UNL     1      35.687 -24.164 -14.669  0.00  0.00    +0.051 C 
ATOM     26  C   UNL     1      36.413 -23.091 -15.183  0.00  0.00    +0.015 C 
ATOM     27  C   UNL     1      36.334 -25.362 -14.365  0.00  0.00    +0.015 C 
ATOM     28  C   UNL     1      37.787 -23.213 -15.394  0.00  0.00    +0.001 C 
ATOM     29  C   UNL     1      37.708 -25.485 -14.575  0.00  0.00    +0.001 C 
ATOM     30  C   UNL     1      38.434 -24.411 -15.090  0.00  0.00    +0.000 C 
ENDBRANCH   2  25
BRANCH  10  32
ATOM     31  N   UNL     1      27.469 -22.690 -15.656  0.00  0.00    -0.195 NA
ATOM     32  C   UNL     1      28.553 -22.948 -15.332  0.00  0.00    +0.087 C 
ENDBRANCH  10  32
TORSDOF 4
ENDMDL
MODEL 2
REMARK VINA RESULT:     -12.5      2.245      5.708
REMARK  Name = 23656870
REMARK  4 active torsions:
REMARK  status: ('A' for Active; 'I' for Inactive)
REMARK    1  A    between atoms: N_2  and  C_25
REMARK    2  A    between atoms: N_3  and  C_14
REMARK    3  A    between atoms: C_10  and  C_32
REMARK    4  A    between atoms: C_16  and  N_21
REMARK                            x       y       z     vdW  Elec       q    Type
REMARK                         _______ _______ _______ _____ _____    ______ ____
ROOT
ATOM      1  N   UNL     1      36.326 -25.268 -13.657  0.00  0.00    -0.123 N 
ATOM      2  N   UNL     1      33.983 -25.034 -13.486  0.00  0.00    -0.274 N 
ATOM      3  N   UNL     1      36.545 -22.595 -16.628  0.00  0.00    -0.238 N 
ATOM      4  N   UNL     1      35.261 -23.809 -15.061  0.00  0.00    -0.295 NA
ATOM      5  N   UNL     1      37.631 -24.071 -15.206  0.00  0.00    -0.314 NA
ATOM      6  N   UNL     1      36.371 -26.179 -12.666  0.00  0.00    -0.170 NA
ATOM      7  C   UNL     1      35.154 -24.673 -14.095  0.00  0.00    +0.279 C 
ATOM      8  C   UNL     1      37.542 -24.972 -14.201  0.00  0.00    +0.219 C 
ATOM      9  C   UNL     1      36.508 -23.517 -15.609  0.00  0.00    +0.207 C 
ATOM     10  C   UNL     1      38.450 -25.746 -13.516  0.00  0.00    +0.203 C 
ATOM     11  C   UNL     1      37.673 -26.467 -12.586  0.00  0.00    +0.116 C 
ATOM     12  H   UNL     1      34.060 -25.702 -12.767  0.00  0.00    +0.156 HD
ATOM     13  H   UNL     1      37.370 -22.064 -16.701  0.00  0.00    +0.166 HD
ENDROOT
BRANCH   3  14
ATOM     14  C   UNL     1      35.557 -22.320 -17.572  0.00  0.00    +0.060 C 
ATOM     15  C   UNL     1      35.852 -21.522 -18.678  0.00  0.00    +0.030 C 
ATOM     16  C   UNL     1      34.864 -21.248 -19.623  0.00  0.00    +0.052 C 
ATOM     17  C   UNL     1      34.274 -22.843 -17.412  0.00  0.00    +0.015 C 
ATOM     18  C   UNL     1      33.581 -21.770 -19.463  0.00  0.00    +0.015 C 
ATOM     19  C   UNL     1      33.285 -22.569 -18.357  0.00  0.00    +0.003 C 
BRANCH  16  21
ATOM     20  O   UNL     1      36.961 -19.119 -19.994  0.00  0.00    -0.275 OA
ATOM     21  N   UNL     1      35.158 -20.449 -20.728  0.00  0.00    -0.284 N 
ATOM     22  C   UNL     1      36.151 -19.466 -20.846  0.00  0.00    +0.227 C 
ATOM     23  C   UNL     1      36.143 -18.825 -22.212  0.00  0.00    +0.095 C 
ATOM     24  H   UNL     1      34.598 -20.593 -21.526  0.00  0.00    +0.155 HD
ENDBRANCH  16  21
ENDBRANCH   3  14
BRANCH   2  25
ATOM     25  C   UNL     1      32.691 -24.573 -13.753  0.00  0.00    +0.051 C 
ATOM     26  C   UNL     1      32.498 -23.283 -14.244  0.00  0.00    +0.015 C 
ATOM     27  C   UNL     1      31.593 -25.405 -13.530  0.00  0.00    +0.015 C 
ATOM     28  C   UNL     1      31.209 -22.822 -14.512  0.00  0.00    +0.001 C 
ATOM     29  C   UNL     1      30.304 -24.945 -13.798  0.00  0.00    +0.001 C 
ATOM     30  C   UNL     1      30.111 -23.654 -14.289  0.00  0.00    +0.000 C 
ENDBRANCH   2  25
BRANCH  10  32
ATOM     31  N   UNL     1      41.003 -25.830 -13.888  0.00  0.00    -0.195 NA
ATOM     32  C   UNL     1      39.855 -25.792 -13.720  0.00  0.00    +0.087 C 
ENDBRANCH  10  32
TORSDOF 4
ENDMDL
MODEL 3
REMARK VINA RESULT:     -11.5      1.420      1.644
REMARK  Name = 23656870
REMARK  4 active torsions:
REMARK  status: ('A' for Active; 'I' for Inactive)
REMARK    1  A    between atoms: N_2  and  C_25
REMARK    2  A    between atoms: N_3  and  C_14
REMARK    3  A    between atoms: C_10  and  C_32
REMARK    4  A    between atoms: C_16  and  N_21
REMARK                            x       y       z     vdW  Elec       q    Type
REMARK                         _______ _______ _______ _____ _____    ______ ____
ROOT
ATOM      1  N   UNL     1      32.118 -24.648 -14.195  0.00  0.00    -0.123 N 
ATOM      2  N   UNL     1      34.359 -24.965 -13.525  0.00  0.00    -0.274 N 
ATOM      3  N   UNL     1      33.212 -23.268 -17.790  0.00  0.00    -0.238 N 
ATOM      4  N   UNL     1      33.791 -24.116 -15.663  0.00  0.00    -0.295 NA
ATOM      5  N   UNL     1      31.511 -23.808 -16.307  0.00  0.00    -0.314 NA
ATOM      6  N   UNL     1      31.637 -25.096 -13.021  0.00  0.00    -0.170 NA
ATOM      7  C   UNL     1      33.470 -24.568 -14.486  0.00  0.00    +0.279 C 
ATOM      8  C   UNL     1      31.156 -24.277 -15.089  0.00  0.00    +0.219 C 
ATOM      9  C   UNL     1      32.799 -23.739 -16.566  0.00  0.00    +0.207 C 
ATOM     10  C   UNL     1      29.956 -24.498 -14.452  0.00  0.00    +0.203 C 
ATOM     11  C   UNL     1      30.314 -25.001 -13.185  0.00  0.00    +0.116 C 
ATOM     12  H   UNL     1      33.967 -25.286 -12.681  0.00  0.00    +0.156 HD
ATOM     13  H   UNL     1      32.601 -23.433 -18.544  0.00  0.00    +0.166 HD
ENDROOT
BRANCH   3  14
ATOM     14  C   UNL     1      34.388 -22.587 -18.095  0.00  0.00    +0.060 C 
ATOM     15  C   UNL     1      34.438 -21.744 -19.206  0.00  0.00    +0.030 C 
ATOM     16  C   UNL     1      35.615 -21.062 -19.510  0.00  0.00    +0.052 C 
ATOM     17  C   UNL     1      35.516 -22.747 -17.290  0.00  0.00    +0.015 C 
ATOM     18  C   UNL     1      36.743 -21.222 -18.706  0.00  0.00    +0.015 C 
ATOM     19  C   UNL     1      36.694 -22.064 -17.594  0.00  0.00    +0.003 C 
BRANCH  16  21
ATOM     20  O   UNL     1      37.592 -18.913 -20.246  0.00  0.00    -0.275 OA
ATOM     21  N   UNL     1      35.667 -20.220 -20.622  0.00  0.00    -0.284 N 
ATOM     22  C   UNL     1      36.615 -19.230 -20.916  0.00  0.00    +0.227 C 
ATOM     23  C   UNL     1      36.315 -18.538 -22.222  0.00  0.00    +0.095 C 
ATOM     24  H   UNL     1      34.946 -20.336 -21.285  0.00  0.00    +0.155 HD
ENDBRANCH  16  21
ENDBRANCH   3  14
BRANCH   2  25
ATOM     25  C   UNL     1      35.756 -24.976 -13.590  0.00  0.00    +0.051 C 
ATOM     26  C   UNL     1      36.404 -25.739 -14.561  0.00  0.00    +0.015 C 
ATOM     27  C   UNL     1      36.502 -24.222 -12.683  0.00  0.00    +0.015 C 
ATOM     28  C   UNL     1      37.797 -25.750 -14.626  0.00  0.00    +0.001 C 
ATOM     29  C   UNL     1      37.895 -24.232 -12.749  0.00  0.00    +0.001 C 
ATOM     30  C   UNL     1      38.543 -24.996 -13.719  0.00  0.00    +0.000 C 
ENDBRANCH   2  25
BRANCH  10  32
ATOM     31  N   UNL     1      27.597 -24.068 -15.406  0.00  0.00    -0.195 NA
ATOM     32  C   UNL     1      28.658 -24.262 -14.977  0.00  0.00    +0.087 C 
ENDBRANCH  10  32
TORSDOF 4
ENDMDL
