MODEL 1
REMARK VINA RESULT:     -12.1      0.000      0.000
REMARK  Name = 11659487
REMARK  5 active torsions:
REMARK  status: ('A' for Active; 'I' for Inactive)
REMARK    1  A    between atoms: C_1  and  C_15
REMARK    2  A    between atoms: C_2  and  C_7
REMARK    3  A    between atoms: C_10  and  O_13
REMARK    4  A    between atoms: C_15  and  C_16
REMARK    5  A    between atoms: C_16  and  C_18
REMARK                            x       y       z     vdW  Elec       q    Type
REMARK                         _______ _______ _______ _____ _____    ______ ____
ROOT
ATOM      1  C   UNL     1      34.365 -21.487 -19.418  0.00  0.00    -0.022 C 
ATOM      2  C   UNL     1      35.185 -19.884 -21.031  0.00  0.00    -0.000 C 
ATOM      3  C   UNL     1      34.127 -20.601 -20.469  0.00  0.00    -0.004 C 
ATOM      4  C   UNL     1      35.661 -21.657 -18.930  0.00  0.00    -0.004 C 
ATOM      5  C   UNL     1      36.480 -20.054 -20.542  0.00  0.00    -0.000 C 
ATOM      6  C   UNL     1      36.718 -20.941 -19.492  0.00  0.00    -0.000 C 
ENDROOT
BRANCH   2   7
ATOM      7  C   UNL     1      34.937 -18.964 -22.119  0.00  0.00    +0.003 C 
ATOM      8  C   UNL     1      35.275 -17.618 -21.986  0.00  0.00    +0.037 C 
ATOM      9  C   UNL     1      34.362 -19.424 -23.304  0.00  0.00    +0.000 C 
ATOM     10  C   UNL     1      35.037 -16.732 -23.036  0.00  0.00    +0.139 C 
ATOM     11  C   UNL     1      34.124 -18.539 -24.354  0.00  0.00    +0.003 C 
ATOM     12  C   UNL     1      34.462 -17.192 -24.221  0.00  0.00    +0.037 C 
BRANCH  10  13
ATOM     13  O   UNL     1      35.367 -15.417 -22.906  0.00  0.00    -0.471 OA
ATOM     14  C   UNL     1      34.294 -14.487 -22.782  0.00  0.00    +0.252 C 
ENDBRANCH  10  13
ENDBRANCH   2   7
BRANCH   1  15
ATOM     15  C   UNL     1      33.235 -22.253 -18.818  0.00  0.00    +0.034 C 
BRANCH  15  16
ATOM     16  C   UNL     1      33.631 -23.092 -17.586  0.00  0.00    +0.064 C 
BRANCH  16  18
ATOM     17  N   UNL     1      31.277 -23.019 -17.020  0.00  0.00    -0.396 NA
ATOM     18  C   UNL     1      32.528 -23.198 -16.560  0.00  0.00    +0.110 C 
ATOM     19  C   UNL     1      32.864 -23.464 -15.251  0.00  0.00    +0.023 C 
ATOM     20  C   UNL     1      31.825 -23.556 -14.332  0.00  0.00    -0.015 C 
ATOM     21  C   UNL     1      30.294 -23.114 -16.099  0.00  0.00    +0.158 C 
ATOM     22  C   UNL     1      30.512 -23.379 -14.755  0.00  0.00    +0.100 C 
ATOM     23  N   UNL     1      28.951 -22.938 -16.514  0.00  0.00    -0.336 N 
ATOM     24  H   UNL     1      28.749 -22.748 -17.458  0.00  0.00    +0.144 HD
ATOM     25  H   UNL     1      28.219 -23.003 -15.858  0.00  0.00    +0.144 HD
ENDBRANCH  16  18
ENDBRANCH  15  16
ENDBRANCH   1  15
TORSDOF 5
ENDMDL
MODEL 2
REMARK VINA RESULT:     -11.8      1.238      1.658
REMARK  Name = 11659487
REMARK  5 active torsions:
REMARK  status: ('A' for Active; 'I' for Inactive)
REMARK    1  A    between atoms: C_1  and  C_15
REMARK    2  A    between atoms: C_2  and  C_7
REMARK    3  A    between atoms: C_10  and  O_13
REMARK    4  A    between atoms: C_15  and  C_16
REMARK    5  A    between atoms: C_16  and  C_18
REMARK                            x       y       z     vdW  Elec       q    Type
REMARK                         _______ _______ _______ _____ _____    ______ ____
ROOT
ATOM      1  C   UNL     1      34.280 -21.476 -19.374  0.00  0.00    -0.022 C 
ATOM      2  C   UNL     1      35.149 -19.918 -21.005  0.00  0.00    -0.000 C 
ATOM      3  C   UNL     1      34.067 -20.583 -20.425  0.00  0.00    -0.004 C 
ATOM      4  C   UNL     1      35.574 -21.705 -18.905  0.00  0.00    -0.004 C 
ATOM      5  C   UNL     1      36.442 -20.147 -20.535  0.00  0.00    -0.000 C 
ATOM      6  C   UNL     1      36.655 -21.041 -19.486  0.00  0.00    -0.000 C 
ENDROOT
BRANCH   2   7
ATOM      7  C   UNL     1      34.928 -18.991 -22.093  0.00  0.00    +0.003 C 
ATOM      8  C   UNL     1      35.230 -17.640 -21.930  0.00  0.00    +0.037 C 
ATOM      9  C   UNL     1      34.414 -19.449 -23.306  0.00  0.00    +0.000 C 
ATOM     10  C   UNL     1      35.017 -16.746 -22.980  0.00  0.00    +0.139 C 
ATOM     11  C   UNL     1      34.202 -18.556 -24.356  0.00  0.00    +0.003 C 
ATOM     12  C   UNL     1      34.504 -17.204 -24.193  0.00  0.00    +0.037 C 
BRANCH  10  13
ATOM     13  O   UNL     1      35.312 -15.426 -22.821  0.00  0.00    -0.471 OA
ATOM     14  C   UNL     1      34.287 -14.488 -23.143  0.00  0.00    +0.252 C 
ENDBRANCH  10  13
ENDBRANCH   2   7
BRANCH   1  15
ATOM     15  C   UNL     1      33.125 -22.187 -18.754  0.00  0.00    +0.034 C 
BRANCH  15  16
ATOM     16  C   UNL     1      33.527 -23.389 -17.875  0.00  0.00    +0.064 C 
BRANCH  16  18
ATOM     17  N   UNL     1      33.643 -23.634 -15.468  0.00  0.00    -0.396 NA
ATOM     18  C   UNL     1      32.849 -23.391 -16.526  0.00  0.00    +0.110 C 
ATOM     19  C   UNL     1      31.494 -23.152 -16.466  0.00  0.00    +0.023 C 
ATOM     20  C   UNL     1      30.900 -23.161 -15.208  0.00  0.00    -0.015 C 
ATOM     21  C   UNL     1      33.032 -23.635 -14.264  0.00  0.00    +0.158 C 
ATOM     22  C   UNL     1      31.676 -23.407 -14.081  0.00  0.00    +0.100 C 
ATOM     23  N   UNL     1      33.809 -23.882 -13.105  0.00  0.00    -0.336 N 
ATOM     24  H   UNL     1      34.775 -24.050 -13.188  0.00  0.00    +0.144 HD
ATOM     25  H   UNL     1      33.382 -23.888 -12.218  0.00  0.00    +0.144 HD
ENDBRANCH  16  18
ENDBRANCH  15  16
ENDBRANCH   1  15
TORSDOF 5
ENDMDL
MODEL 3
REMARK VINA RESULT:     -11.7      4.440      8.562
REMARK  Name = 11659487
REMARK  5 active torsions:
REMARK  status: ('A' for Active; 'I' for Inactive)
REMARK    1  A    between atoms: C_1  and  C_15
REMARK    2  A    between atoms: C_2  and  C_7
REMARK    3  A    between atoms: C_10  and  O_13
REMARK    4  A    between atoms: C_15  and  C_16
REMARK    5  A    between atoms: C_16  and  C_18
REMARK                            x       y       z     vdW  Elec       q    Type
REMARK                         _______ _______ _______ _____ _____    ______ ____
ROOT
ATOM      1  C   UNL     1      34.880 -17.001 -22.706  0.00  0.00    -0.022 C 
ATOM      2  C   UNL     1      34.805 -19.273 -21.888  0.00  0.00    -0.000 C 
ATOM      3  C   UNL     1      35.004 -17.911 -21.657  0.00  0.00    -0.004 C 
ATOM      4  C   UNL     1      34.560 -17.452 -23.987  0.00  0.00    -0.004 C 
ATOM      5  C   UNL     1      34.484 -19.724 -23.167  0.00  0.00    -0.000 C 
ATOM      6  C   UNL     1      34.362 -18.814 -24.218  0.00  0.00    -0.000 C 
ENDROOT
BRANCH   2   7
ATOM      7  C   UNL     1      34.932 -20.217 -20.799  0.00  0.00    +0.003 C 
ATOM      8  C   UNL     1      33.794 -20.808 -20.252  0.00  0.00    +0.037 C 
ATOM      9  C   UNL     1      36.193 -20.537 -20.297  0.00  0.00    +0.000 C 
ATOM     10  C   UNL     1      33.916 -21.718 -19.202  0.00  0.00    +0.139 C 
ATOM     11  C   UNL     1      36.316 -21.447 -19.248  0.00  0.00    +0.003 C 
ATOM     12  C   UNL     1      35.177 -22.039 -18.700  0.00  0.00    +0.037 C 
BRANCH  10  13
ATOM     13  O   UNL     1      32.805 -22.296 -18.668  0.00  0.00    -0.471 OA
ATOM     14  C   UNL     1      32.985 -23.095 -17.500  0.00  0.00    +0.252 C 
ENDBRANCH  10  13
ENDBRANCH   2   7
BRANCH   1  15
ATOM     15  C   UNL     1      35.092 -15.545 -22.461  0.00  0.00    +0.034 C 
BRANCH  15  16
ATOM     16  C   UNL     1      34.112 -14.631 -23.223  0.00  0.00    +0.064 C 
BRANCH  16  18
ATOM     17  N   UNL     1      32.841 -12.605 -22.838  0.00  0.00    -0.396 NA
ATOM     18  C   UNL     1      33.277 -13.763 -22.312  0.00  0.00    +0.110 C 
ATOM     19  C   UNL     1      33.022 -14.202 -21.031  0.00  0.00    +0.023 C 
ATOM     20  C   UNL     1      32.250 -13.380 -20.218  0.00  0.00    -0.015 C 
ATOM     21  C   UNL     1      32.095 -11.833 -22.019  0.00  0.00    +0.158 C 
ATOM     22  C   UNL     1      31.774 -12.171 -20.713  0.00  0.00    +0.100 C 
ATOM     23  N   UNL     1      31.600 -10.599 -22.509  0.00  0.00    -0.336 N 
ATOM     24  H   UNL     1      31.804 -10.318 -23.430  0.00  0.00    +0.144 HD
ATOM     25  H   UNL     1      31.055 -10.021 -21.927  0.00  0.00    +0.144 HD
ENDBRANCH  16  18
ENDBRANCH  15  16
ENDBRANCH   1  15
TORSDOF 5
ENDMDL
MODEL 4
REMARK VINA RESULT:     -11.1      3.026      3.895
REMARK  Name = 11659487
REMARK  5 active torsions:
REMARK  status: ('A' for Active; 'I' for Inactive)
REMARK    1  A    between atoms: C_1  and  C_15
REMARK    2  A    between atoms: C_2  and  C_7
REMARK    3  A    between atoms: C_10  and  O_13
REMARK    4  A    between atoms: C_15  and  C_16
REMARK    5  A    between atoms: C_16  and  C_18
REMARK                            x       y       z     vdW  Elec       q    Type
REMARK                         _______ _______ _______ _____ _____    ______ ____
ROOT
ATOM      1  C   UNL     1      35.619 -21.550 -19.019  0.00  0.00    -0.022 C 
ATOM      2  C   UNL     1      34.540 -20.211 -20.717  0.00  0.00    -0.000 C 
ATOM      3  C   UNL     1      35.701 -20.633 -20.067  0.00  0.00    -0.004 C 
ATOM      4  C   UNL     1      34.377 -22.042 -18.619  0.00  0.00    -0.004 C 
ATOM      5  C   UNL     1      33.298 -20.704 -20.317  0.00  0.00    -0.000 C 
ATOM      6  C   UNL     1      33.216 -21.620 -19.268  0.00  0.00    -0.000 C 
ENDROOT
BRANCH   2   7
ATOM      7  C   UNL     1      34.625 -19.262 -21.805  0.00  0.00    +0.003 C 
ATOM      8  C   UNL     1      34.971 -17.936 -21.549  0.00  0.00    +0.037 C 
ATOM      9  C   UNL     1      34.362 -19.673 -23.111  0.00  0.00    +0.000 C 
ATOM     10  C   UNL     1      35.054 -17.021 -22.599  0.00  0.00    +0.139 C 
ATOM     11  C   UNL     1      34.444 -18.759 -24.161  0.00  0.00    +0.003 C 
ATOM     12  C   UNL     1      34.791 -17.432 -23.905  0.00  0.00    +0.037 C 
BRANCH  10  13
ATOM     13  O   UNL     1      35.392 -15.726 -22.349  0.00  0.00    -0.471 OA
ATOM     14  C   UNL     1      34.572 -14.715 -22.933  0.00  0.00    +0.252 C 
ENDBRANCH  10  13
ENDBRANCH   2   7
BRANCH   1  15
ATOM     15  C   UNL     1      36.859 -22.002 -18.324  0.00  0.00    +0.034 C 
BRANCH  15  16
ATOM     16  C   UNL     1      36.938 -21.580 -16.843  0.00  0.00    +0.064 C 
BRANCH  16  18
ATOM     17  N   UNL     1      37.880 -23.348 -15.482  0.00  0.00    -0.396 NA
ATOM     18  C   UNL     1      36.754 -22.734 -15.887  0.00  0.00    +0.110 C 
ATOM     19  C   UNL     1      35.477 -23.077 -15.501  0.00  0.00    +0.023 C 
ATOM     20  C   UNL     1      35.343 -24.144 -14.619  0.00  0.00    -0.015 C 
ATOM     21  C   UNL     1      37.710 -24.380 -14.627  0.00  0.00    +0.158 C 
ATOM     22  C   UNL     1      36.475 -24.813 -14.169  0.00  0.00    +0.100 C 
ATOM     23  N   UNL     1      38.855 -25.072 -14.158  0.00  0.00    -0.336 N 
ATOM     24  H   UNL     1      39.751 -24.799 -14.457  0.00  0.00    +0.144 HD
ATOM     25  H   UNL     1      38.752 -25.827 -13.534  0.00  0.00    +0.144 HD
ENDBRANCH  16  18
ENDBRANCH  15  16
ENDBRANCH   1  15
TORSDOF 5
ENDMDL
MODEL 5
REMARK VINA RESULT:     -11.0      3.453      6.520
REMARK  Name = 11659487
REMARK  5 active torsions:
REMARK  status: ('A' for Active; 'I' for Inactive)
REMARK    1  A    between atoms: C_1  and  C_15
REMARK    2  A    between atoms: C_2  and  C_7
REMARK    3  A    between atoms: C_10  and  O_13
REMARK    4  A    between atoms: C_15  and  C_16
REMARK    5  A    between atoms: C_16  and  C_18
REMARK                            x       y       z     vdW  Elec       q    Type
REMARK                         _______ _______ _______ _____ _____    ______ ____
ROOT
ATOM      1  C   UNL     1      34.934 -16.526 -22.455  0.00  0.00    -0.022 C 
ATOM      2  C   UNL     1      33.629 -14.535 -22.868  0.00  0.00    -0.000 C 
ATOM      3  C   UNL     1      34.316 -15.368 -21.984  0.00  0.00    -0.004 C 
ATOM      4  C   UNL     1      34.865 -16.853 -23.810  0.00  0.00    -0.004 C 
ATOM      5  C   UNL     1      33.560 -14.861 -24.222  0.00  0.00    -0.000 C 
ATOM      6  C   UNL     1      34.178 -16.020 -24.693  0.00  0.00    -0.000 C 
ENDROOT
BRANCH   2   7
ATOM      7  C   UNL     1      32.989 -13.333 -22.380  0.00  0.00    +0.003 C 
ATOM      8  C   UNL     1      32.992 -12.176 -23.158  0.00  0.00    +0.037 C 
ATOM      9  C   UNL     1      32.368 -13.332 -21.132  0.00  0.00    +0.000 C 
ATOM     10  C   UNL     1      32.374 -11.017 -22.687  0.00  0.00    +0.139 C 
ATOM     11  C   UNL     1      31.750 -12.174 -20.660  0.00  0.00    +0.003 C 
ATOM     12  C   UNL     1      31.753 -11.016 -21.439  0.00  0.00    +0.037 C 
BRANCH  10  13
ATOM     13  O   UNL     1      32.377  -9.887 -23.447  0.00  0.00    -0.471 OA
ATOM     14  C   UNL     1      31.535  -8.817 -23.023  0.00  0.00    +0.252 C 
ENDBRANCH  10  13
ENDBRANCH   2   7
BRANCH   1  15
ATOM     15  C   UNL     1      35.669 -17.417 -21.511  0.00  0.00    +0.034 C 
BRANCH  15  16
ATOM     16  C   UNL     1      35.751 -18.887 -21.970  0.00  0.00    +0.064 C 
BRANCH  16  18
ATOM     17  N   UNL     1      35.993 -20.476 -20.158  0.00  0.00    -0.396 NA
ATOM     18  C   UNL     1      35.136 -19.852 -20.986  0.00  0.00    +0.110 C 
ATOM     19  C   UNL     1      33.770 -20.029 -20.998  0.00  0.00    +0.023 C 
ATOM     20  C   UNL     1      33.235 -20.925 -20.078  0.00  0.00    -0.015 C 
ATOM     21  C   UNL     1      35.438 -21.339 -19.280  0.00  0.00    +0.158 C 
ATOM     22  C   UNL     1      34.078 -21.597 -19.200  0.00  0.00    +0.100 C 
ATOM     23  N   UNL     1      36.283 -22.030 -18.377  0.00  0.00    -0.336 N 
ATOM     24  H   UNL     1      37.255 -21.879 -18.399  0.00  0.00    +0.144 HD
ATOM     25  H   UNL     1      35.898 -22.664 -17.729  0.00  0.00    +0.144 HD
ENDBRANCH  16  18
ENDBRANCH  15  16
ENDBRANCH   1  15
TORSDOF 5
ENDMDL
MODEL 6
REMARK VINA RESULT:     -10.8      3.377      6.657
REMARK  Name = 11659487
REMARK  5 active torsions:
REMARK  status: ('A' for Active; 'I' for Inactive)
REMARK    1  A    between atoms: C_1  and  C_15
REMARK    2  A    between atoms: C_2  and  C_7
REMARK    3  A    between atoms: C_10  and  O_13
REMARK    4  A    between atoms: C_15  and  C_16
REMARK    5  A    between atoms: C_16  and  C_18
REMARK                            x       y       z     vdW  Elec       q    Type
REMARK                         _______ _______ _______ _____ _____    ______ ____
ROOT
ATOM      1  C   UNL     1      34.728 -16.222 -22.498  0.00  0.00    -0.022 C 
ATOM      2  C   UNL     1      33.619 -14.186 -23.178  0.00  0.00    -0.000 C 
ATOM      3  C   UNL     1      34.217 -14.963 -22.185  0.00  0.00    -0.004 C 
ATOM      4  C   UNL     1      34.639 -16.706 -23.803  0.00  0.00    -0.004 C 
ATOM      5  C   UNL     1      33.530 -14.670 -24.483  0.00  0.00    -0.000 C 
ATOM      6  C   UNL     1      34.041 -15.930 -24.796  0.00  0.00    -0.000 C 
ENDROOT
BRANCH   2   7
ATOM      7  C   UNL     1      33.090 -12.879 -22.854  0.00  0.00    +0.003 C 
ATOM      8  C   UNL     1      32.149 -12.741 -21.834  0.00  0.00    +0.037 C 
ATOM      9  C   UNL     1      33.523 -11.757 -23.560  0.00  0.00    +0.000 C 
ATOM     10  C   UNL     1      31.640 -11.480 -21.521  0.00  0.00    +0.139 C 
ATOM     11  C   UNL     1      33.014 -10.497 -23.248  0.00  0.00    +0.003 C 
ATOM     12  C   UNL     1      32.073 -10.358 -22.227  0.00  0.00    +0.037 C 
BRANCH  10  13
ATOM     13  O   UNL     1      30.721 -11.344 -20.525  0.00  0.00    -0.471 OA
ATOM     14  C   UNL     1      31.072 -10.505 -19.427  0.00  0.00    +0.252 C 
ENDBRANCH  10  13
ENDBRANCH   2   7
BRANCH   1  15
ATOM     15  C   UNL     1      35.368 -17.053 -21.437  0.00  0.00    +0.034 C 
BRANCH  15  16
ATOM     16  C   UNL     1      35.870 -18.424 -21.932  0.00  0.00    +0.064 C 
BRANCH  16  18
ATOM     17  N   UNL     1      34.216 -19.815 -20.836  0.00  0.00    -0.396 NA
ATOM     18  C   UNL     1      35.526 -19.556 -20.993  0.00  0.00    +0.110 C 
ATOM     19  C   UNL     1      36.551 -20.234 -20.371  0.00  0.00    +0.023 C 
ATOM     20  C   UNL     1      36.201 -21.271 -19.513  0.00  0.00    -0.015 C 
ATOM     21  C   UNL     1      33.914 -20.828 -19.995  0.00  0.00    +0.158 C 
ATOM     22  C   UNL     1      34.860 -21.580 -19.316  0.00  0.00    +0.100 C 
ATOM     23  N   UNL     1      32.552 -21.156 -19.784  0.00  0.00    -0.336 N 
ATOM     24  H   UNL     1      31.847 -20.648 -20.246  0.00  0.00    +0.144 HD
ATOM     25  H   UNL     1      32.311 -21.891 -19.175  0.00  0.00    +0.144 HD
ENDBRANCH  16  18
ENDBRANCH  15  16
ENDBRANCH   1  15
TORSDOF 5
ENDMDL
MODEL 7
REMARK VINA RESULT:     -10.7      3.915      8.254
REMARK  Name = 11659487
REMARK  5 active torsions:
REMARK  status: ('A' for Active; 'I' for Inactive)
REMARK    1  A    between atoms: C_1  and  C_15
REMARK    2  A    between atoms: C_2  and  C_7
REMARK    3  A    between atoms: C_10  and  O_13
REMARK    4  A    between atoms: C_15  and  C_16
REMARK    5  A    between atoms: C_16  and  C_18
REMARK                            x       y       z     vdW  Elec       q    Type
REMARK                         _______ _______ _______ _____ _____    ______ ____
ROOT
ATOM      1  C   UNL     1      36.172 -22.768 -16.006  0.00  0.00    -0.022 C 
ATOM      2  C   UNL     1      34.295 -23.888 -14.976  0.00  0.00    -0.000 C 
ATOM      3  C   UNL     1      34.794 -22.913 -15.841  0.00  0.00    -0.004 C 
ATOM      4  C   UNL     1      37.049 -23.596 -15.306  0.00  0.00    -0.004 C 
ATOM      5  C   UNL     1      35.172 -24.716 -14.276  0.00  0.00    -0.000 C 
ATOM      6  C   UNL     1      36.549 -24.570 -14.440  0.00  0.00    -0.000 C 
ENDROOT
BRANCH   2   7
ATOM      7  C   UNL     1      32.866 -24.039 -14.805  0.00  0.00    +0.003 C 
ATOM      8  C   UNL     1      31.990 -23.485 -15.738  0.00  0.00    +0.037 C 
ATOM      9  C   UNL     1      32.365 -24.741 -13.709  0.00  0.00    +0.000 C 
ATOM     10  C   UNL     1      30.612 -23.632 -15.573  0.00  0.00    +0.139 C 
ATOM     11  C   UNL     1      30.988 -24.888 -13.544  0.00  0.00    +0.003 C 
ATOM     12  C   UNL     1      30.111 -24.334 -14.477  0.00  0.00    +0.037 C 
BRANCH  10  13
ATOM     13  O   UNL     1      29.756 -23.091 -16.484  0.00  0.00    -0.471 OA
ATOM     14  C   UNL     1      28.413 -22.868 -16.060  0.00  0.00    +0.252 C 
ENDBRANCH  10  13
ENDBRANCH   2   7
BRANCH   1  15
ATOM     15  C   UNL     1      36.707 -21.728 -16.930  0.00  0.00    +0.034 C 
BRANCH  15  16
ATOM     16  C   UNL     1      36.670 -22.130 -18.418  0.00  0.00    +0.064 C 
BRANCH  16  18
ATOM     17  N   UNL     1      35.876 -20.480 -20.003  0.00  0.00    -0.396 NA
ATOM     18  C   UNL     1      35.536 -21.487 -19.180  0.00  0.00    +0.110 C 
ATOM     19  C   UNL     1      34.256 -21.961 -18.986  0.00  0.00    +0.023 C 
ATOM     20  C   UNL     1      33.235 -21.347 -19.703  0.00  0.00    -0.015 C 
ATOM     21  C   UNL     1      34.857 -19.908 -20.682  0.00  0.00    +0.158 C 
ATOM     22  C   UNL     1      33.532 -20.300 -20.569  0.00  0.00    +0.100 C 
ATOM     23  N   UNL     1      35.144 -18.841 -21.569  0.00  0.00    -0.336 N 
ATOM     24  H   UNL     1      36.070 -18.529 -21.680  0.00  0.00    +0.144 HD
ATOM     25  H   UNL     1      34.415 -18.410 -22.073  0.00  0.00    +0.144 HD
ENDBRANCH  16  18
ENDBRANCH  15  16
ENDBRANCH   1  15
TORSDOF 5
ENDMDL
MODEL 8
REMARK VINA RESULT:     -10.6      4.773      9.564
REMARK  Name = 11659487
REMARK  5 active torsions:
REMARK  status: ('A' for Active; 'I' for Inactive)
REMARK    1  A    between atoms: C_1  and  C_15
REMARK    2  A    between atoms: C_2  and  C_7
REMARK    3  A    between atoms: C_10  and  O_13
REMARK    4  A    between atoms: C_15  and  C_16
REMARK    5  A    between atoms: C_16  and  C_18
REMARK                            x       y       z     vdW  Elec       q    Type
REMARK                         _______ _______ _______ _____ _____    ______ ____
ROOT
ATOM      1  C   UNL     1      33.479 -23.408 -16.783  0.00  0.00    -0.022 C 
ATOM      2  C   UNL     1      34.225 -24.341 -14.682  0.00  0.00    -0.000 C 
ATOM      3  C   UNL     1      34.492 -23.955 -15.997  0.00  0.00    -0.004 C 
ATOM      4  C   UNL     1      32.197 -23.249 -16.256  0.00  0.00    -0.004 C 
ATOM      5  C   UNL     1      32.944 -24.181 -14.156  0.00  0.00    -0.000 C 
ATOM      6  C   UNL     1      31.929 -23.635 -14.943  0.00  0.00    -0.000 C 
ENDROOT
BRANCH   2   7
ATOM      7  C   UNL     1      35.277 -24.906 -13.866  0.00  0.00    +0.003 C 
ATOM      8  C   UNL     1      36.327 -25.601 -14.465  0.00  0.00    +0.037 C 
ATOM      9  C   UNL     1      35.241 -24.756 -12.480  0.00  0.00    +0.000 C 
ATOM     10  C   UNL     1      37.342 -26.146 -13.678  0.00  0.00    +0.139 C 
ATOM     11  C   UNL     1      36.255 -25.301 -11.693  0.00  0.00    +0.003 C 
ATOM     12  C   UNL     1      37.306 -25.995 -12.292  0.00  0.00    +0.037 C 
BRANCH  10  13
ATOM     13  O   UNL     1      38.368 -26.824 -14.262  0.00  0.00    -0.471 OA
ATOM     14  C   UNL     1      39.633 -26.168 -14.316  0.00  0.00    +0.252 C 
ENDBRANCH  10  13
ENDBRANCH   2   7
BRANCH   1  15
ATOM     15  C   UNL     1      33.764 -22.996 -18.188  0.00  0.00    +0.034 C 
BRANCH  15  16
ATOM     16  C   UNL     1      35.161 -22.376 -18.388  0.00  0.00    +0.064 C 
BRANCH  16  18
ATOM     17  N   UNL     1      36.378 -20.714 -19.663  0.00  0.00    -0.396 NA
ATOM     18  C   UNL     1      35.182 -21.283 -19.430  0.00  0.00    +0.110 C 
ATOM     19  C   UNL     1      34.004 -20.946 -20.059  0.00  0.00    +0.023 C 
ATOM     20  C   UNL     1      34.057 -19.936 -21.014  0.00  0.00    -0.015 C 
ATOM     21  C   UNL     1      36.391 -19.737 -20.596  0.00  0.00    +0.158 C 
ATOM     22  C   UNL     1      35.270 -19.315 -21.293  0.00  0.00    +0.100 C 
ATOM     23  N   UNL     1      37.619 -19.095 -20.893  0.00  0.00    -0.336 N 
ATOM     24  H   UNL     1      38.440 -19.362 -20.422  0.00  0.00    +0.144 HD
ATOM     25  H   UNL     1      37.649 -18.380 -21.570  0.00  0.00    +0.144 HD
ENDBRANCH  16  18
ENDBRANCH  15  16
ENDBRANCH   1  15
TORSDOF 5
ENDMDL
MODEL 9
REMARK VINA RESULT:     -10.6      3.809      8.736
REMARK  Name = 11659487
REMARK  5 active torsions:
REMARK  status: ('A' for Active; 'I' for Inactive)
REMARK    1  A    between atoms: C_1  and  C_15
REMARK    2  A    between atoms: C_2  and  C_7
REMARK    3  A    between atoms: C_10  and  O_13
REMARK    4  A    between atoms: C_15  and  C_16
REMARK    5  A    between atoms: C_16  and  C_18
REMARK                            x       y       z     vdW  Elec       q    Type
REMARK                         _______ _______ _______ _____ _____    ______ ____
ROOT
ATOM      1  C   UNL     1      34.775 -22.701 -17.892  0.00  0.00    -0.022 C 
ATOM      2  C   UNL     1      33.711 -23.417 -15.844  0.00  0.00    -0.000 C 
ATOM      3  C   UNL     1      33.662 -23.209 -17.223  0.00  0.00    -0.004 C 
ATOM      4  C   UNL     1      35.938 -22.400 -17.182  0.00  0.00    -0.004 C 
ATOM      5  C   UNL     1      34.873 -23.116 -15.134  0.00  0.00    -0.000 C 
ATOM      6  C   UNL     1      35.987 -22.607 -15.803  0.00  0.00    -0.000 C 
ENDROOT
BRANCH   2   7
ATOM      7  C   UNL     1      32.557 -23.946 -15.151  0.00  0.00    +0.003 C 
ATOM      8  C   UNL     1      31.283 -23.792 -15.698  0.00  0.00    +0.037 C 
ATOM      9  C   UNL     1      32.717 -24.611 -13.936  0.00  0.00    +0.000 C 
ATOM     10  C   UNL     1      30.170 -24.302 -15.029  0.00  0.00    +0.139 C 
ATOM     11  C   UNL     1      31.605 -25.121 -13.267  0.00  0.00    +0.003 C 
ATOM     12  C   UNL     1      30.331 -24.967 -13.814  0.00  0.00    +0.037 C 
BRANCH  10  13
ATOM     13  O   UNL     1      28.927 -24.151 -15.563  0.00  0.00    -0.471 OA
ATOM     14  C   UNL     1      28.551 -22.839 -15.976  0.00  0.00    +0.252 C 
ENDBRANCH  10  13
ENDBRANCH   2   7
BRANCH   1  15
ATOM     15  C   UNL     1      34.724 -22.479 -19.366  0.00  0.00    +0.034 C 
BRANCH  15  16
ATOM     16  C   UNL     1      34.012 -21.175 -19.779  0.00  0.00    +0.064 C 
BRANCH  16  18
ATOM     17  N   UNL     1      34.305 -19.744 -21.711  0.00  0.00    -0.396 NA
ATOM     18  C   UNL     1      34.880 -20.263 -20.612  0.00  0.00    +0.110 C 
ATOM     19  C   UNL     1      36.175 -20.027 -20.204  0.00  0.00    +0.023 C 
ATOM     20  C   UNL     1      36.948 -19.182 -20.993  0.00  0.00    -0.015 C 
ATOM     21  C   UNL     1      35.086 -18.929 -22.453  0.00  0.00    +0.158 C 
ATOM     22  C   UNL     1      36.401 -18.619 -22.141  0.00  0.00    +0.100 C 
ATOM     23  N   UNL     1      34.543 -18.346 -23.625  0.00  0.00    -0.336 N 
ATOM     24  H   UNL     1      33.614 -18.539 -23.885  0.00  0.00    +0.144 HD
ATOM     25  H   UNL     1      35.096 -17.749 -24.180  0.00  0.00    +0.144 HD
ENDBRANCH  16  18
ENDBRANCH  15  16
ENDBRANCH   1  15
TORSDOF 5
ENDMDL
