MODEL 1
REMARK VINA RESULT:     -11.9      0.000      0.000
REMARK  Name = 56640146
REMARK  6 active torsions:
REMARK  status: ('A' for Active; 'I' for Inactive)
REMARK    1  A    between atoms: C_1  and  C_32
REMARK    2  A    between atoms: C_2  and  O_36
REMARK    3  A    between atoms: C_3  and  C_7
REMARK    4  A    between atoms: C_5  and  N_25
REMARK    5  A    between atoms: C_15  and  N_17
REMARK    6  A    between atoms: N_17  and  S_19
REMARK                            x       y       z     vdW  Elec       q    Type
REMARK                         _______ _______ _______ _____ _____    ______ ____
ROOT
ATOM      1  C   UNL     1      35.581 -23.902 -15.200  0.00  0.00    +0.012 C 
ATOM      2  C   UNL     1      35.671 -23.119 -16.350  0.00  0.00    +0.135 C 
ATOM      3  C   UNL     1      34.520 -22.806 -17.074  0.00  0.00    +0.035 C 
ATOM      4  C   UNL     1      34.340 -24.376 -14.774  0.00  0.00    +0.014 C 
ATOM      5  C   UNL     1      33.189 -24.065 -15.497  0.00  0.00    +0.059 C 
ATOM      6  C   UNL     1      33.279 -23.280 -16.648  0.00  0.00    +0.018 C 
ENDROOT
BRANCH   3   7
ATOM      7  C   UNL     1      34.590 -21.994 -18.269  0.00  0.00    +0.003 C 
ATOM      8  C   UNL     1      35.804 -21.428 -18.657  0.00  0.00    +0.000 C 
ATOM      9  C   UNL     1      35.888 -20.636 -19.815  0.00  0.00    +0.000 C 
ATOM     10  C   UNL     1      33.445 -21.779 -19.031  0.00  0.00    +0.000 C 
ATOM     11  C   UNL     1      34.724 -20.417 -20.589  0.00  0.00    +0.001 C 
ATOM     12  C   UNL     1      33.510 -20.996 -20.183  0.00  0.00    +0.000 C 
ATOM     13  C   UNL     1      37.102 -20.058 -20.221  0.00  0.00    +0.001 C 
ATOM     14  C   UNL     1      34.808 -19.626 -21.747  0.00  0.00    +0.016 C 
ATOM     15  C   UNL     1      36.023 -19.059 -22.134  0.00  0.00    +0.064 C 
ATOM     16  C   UNL     1      37.167 -19.275 -21.374  0.00  0.00    +0.016 C 
BRANCH  15  17
ATOM     17  N   UNL     1      36.091 -18.257 -23.313  0.00  0.00    -0.219 N 
ATOM     18  H   UNL     1      36.917 -18.212 -23.847  0.00  0.00    +0.173 HD
BRANCH  17  19
ATOM     19  S   UNL     1      34.688 -17.371 -23.776  0.00  0.00    +0.056 S 
ATOM     20  O   UNL     1      34.981 -16.657 -25.005  0.00  0.00    -0.154 OA
ATOM     21  O   UNL     1      33.497 -18.189 -23.666  0.00  0.00    -0.154 OA
ATOM     22  C   UNL     1      34.639 -16.159 -22.475  0.00  0.00    +0.200 C 
ENDBRANCH  17  19
ENDBRANCH  15  17
ENDBRANCH   3   7
BRANCH   5  25
ATOM     23  O   UNL     1      32.651 -25.202 -12.905  0.00  0.00    -0.251 OA
ATOM     24  O   UNL     1      28.236 -25.929 -13.912  0.00  0.00    -0.270 OA
ATOM     25  N   UNL     1      31.899 -24.556 -15.054  0.00  0.00    -0.220 N 
ATOM     26  N   UNL     1      30.482 -25.612 -13.462  0.00  0.00    -0.235 N 
ATOM     27  C   UNL     1      31.766 -25.135 -13.763  0.00  0.00    +0.318 C 
ATOM     28  C   UNL     1      30.780 -24.447 -15.874  0.00  0.00    +0.078 C 
ATOM     29  C   UNL     1      29.561 -24.877 -15.548  0.00  0.00    +0.075 C 
ATOM     30  C   UNL     1      29.346 -25.521 -14.243  0.00  0.00    +0.254 C 
ATOM     31  H   UNL     1      30.377 -26.064 -12.593  0.00  0.00    +0.159 HD
ENDBRANCH   5  25
BRANCH   1  32
ATOM     32  C   UNL     1      36.802 -24.246 -14.411  0.00  0.00    +0.022 C 
ATOM     33  C   UNL     1      36.689 -25.673 -13.792  0.00  0.00    +0.004 C 
ATOM     34  C   UNL     1      38.142 -24.245 -15.216  0.00  0.00    +0.004 C 
ATOM     35  C   UNL     1      37.019 -23.240 -13.240  0.00  0.00    +0.004 C 
ENDBRANCH   1  32
BRANCH   2  36
ATOM     36  O   UNL     1      36.891 -22.660 -16.759  0.00  0.00    -0.472 OA
ATOM     37  C   UNL     1      37.285 -21.374 -16.289  0.00  0.00    +0.252 C 
ENDBRANCH   2  36
TORSDOF 6
ENDMDL
MODEL 2
REMARK VINA RESULT:     -11.2      2.359      4.764
REMARK  Name = 56640146
REMARK  6 active torsions:
REMARK  status: ('A' for Active; 'I' for Inactive)
REMARK    1  A    between atoms: C_1  and  C_32
REMARK    2  A    between atoms: C_2  and  O_36
REMARK    3  A    between atoms: C_3  and  C_7
REMARK    4  A    between atoms: C_5  and  N_25
REMARK    5  A    between atoms: C_15  and  N_17
REMARK    6  A    between atoms: N_17  and  S_19
REMARK                            x       y       z     vdW  Elec       q    Type
REMARK                         _______ _______ _______ _____ _____    ______ ____
ROOT
ATOM      1  C   UNL     1      33.048 -24.108 -14.801  0.00  0.00    +0.012 C 
ATOM      2  C   UNL     1      33.033 -23.326 -15.955  0.00  0.00    +0.135 C 
ATOM      3  C   UNL     1      34.209 -23.128 -16.680  0.00  0.00    +0.035 C 
ATOM      4  C   UNL     1      34.239 -24.690 -14.368  0.00  0.00    +0.014 C 
ATOM      5  C   UNL     1      35.415 -24.492 -15.091  0.00  0.00    +0.059 C 
ATOM      6  C   UNL     1      35.400 -23.711 -16.247  0.00  0.00    +0.018 C 
ENDROOT
BRANCH   3   7
ATOM      7  C   UNL     1      34.216 -22.322 -17.881  0.00  0.00    +0.003 C 
ATOM      8  C   UNL     1      35.408 -21.763 -18.339  0.00  0.00    +0.000 C 
ATOM      9  C   UNL     1      35.430 -20.976 -19.504  0.00  0.00    +0.000 C 
ATOM     10  C   UNL     1      33.030 -22.105 -18.578  0.00  0.00    +0.000 C 
ATOM     11  C   UNL     1      34.225 -20.756 -20.212  0.00  0.00    +0.001 C 
ATOM     12  C   UNL     1      33.033 -21.327 -19.736  0.00  0.00    +0.000 C 
ATOM     13  C   UNL     1      36.622 -20.406 -19.980  0.00  0.00    +0.001 C 
ATOM     14  C   UNL     1      34.247 -19.971 -21.377  0.00  0.00    +0.016 C 
ATOM     15  C   UNL     1      35.440 -19.411 -21.835  0.00  0.00    +0.064 C 
ATOM     16  C   UNL     1      36.625 -19.628 -21.138  0.00  0.00    +0.016 C 
BRANCH  15  17
ATOM     17  N   UNL     1      35.445 -18.614 -23.019  0.00  0.00    -0.219 N 
ATOM     18  H   UNL     1      35.690 -19.004 -23.890  0.00  0.00    +0.173 HD
BRANCH  17  19
ATOM     19  S   UNL     1      35.011 -16.952 -22.884  0.00  0.00    +0.056 S 
ATOM     20  O   UNL     1      34.381 -16.746 -21.594  0.00  0.00    -0.154 OA
ATOM     21  O   UNL     1      36.096 -16.096 -23.319  0.00  0.00    -0.154 OA
ATOM     22  C   UNL     1      33.722 -16.865 -24.106  0.00  0.00    +0.200 C 
ENDBRANCH  17  19
ENDBRANCH  15  17
ENDBRANCH   3   7
BRANCH   5  25
ATOM     23  O   UNL     1      36.195 -27.223 -15.580  0.00  0.00    -0.251 OA
ATOM     24  O   UNL     1      40.152 -26.715 -13.318  0.00  0.00    -0.270 OA
ATOM     25  N   UNL     1      36.653 -25.099 -14.643  0.00  0.00    -0.220 N 
ATOM     26  N   UNL     1      38.118 -26.956 -14.392  0.00  0.00    -0.235 N 
ATOM     27  C   UNL     1      36.908 -26.471 -14.910  0.00  0.00    +0.318 C 
ATOM     28  C   UNL     1      37.608 -24.344 -13.969  0.00  0.00    +0.078 C 
ATOM     29  C   UNL     1      38.768 -24.823 -13.517  0.00  0.00    +0.075 C 
ATOM     30  C   UNL     1      39.093 -26.242 -13.721  0.00  0.00    +0.254 C 
ATOM     31  H   UNL     1      38.293 -27.917 -14.520  0.00  0.00    +0.159 HD
ENDBRANCH   5  25
BRANCH   1  32
ATOM     32  C   UNL     1      31.800 -24.332 -14.012  0.00  0.00    +0.022 C 
ATOM     33  C   UNL     1      31.236 -22.989 -13.455  0.00  0.00    +0.004 C 
ATOM     34  C   UNL     1      30.617 -24.985 -14.800  0.00  0.00    +0.004 C 
ATOM     35  C   UNL     1      32.061 -25.274 -12.797  0.00  0.00    +0.004 C 
ENDBRANCH   1  32
BRANCH   2  36
ATOM     36  O   UNL     1      31.862 -22.760 -16.370  0.00  0.00    -0.472 OA
ATOM     37  C   UNL     1      30.854 -23.646 -16.851  0.00  0.00    +0.252 C 
ENDBRANCH   2  36
TORSDOF 6
ENDMDL
MODEL 3
REMARK VINA RESULT:     -10.8      1.288      2.101
REMARK  Name = 56640146
REMARK  6 active torsions:
REMARK  status: ('A' for Active; 'I' for Inactive)
REMARK    1  A    between atoms: C_1  and  C_32
REMARK    2  A    between atoms: C_2  and  O_36
REMARK    3  A    between atoms: C_3  and  C_7
REMARK    4  A    between atoms: C_5  and  N_25
REMARK    5  A    between atoms: C_15  and  N_17
REMARK    6  A    between atoms: N_17  and  S_19
REMARK                            x       y       z     vdW  Elec       q    Type
REMARK                         _______ _______ _______ _____ _____    ______ ____
ROOT
ATOM      1  C   UNL     1      35.726 -24.030 -14.823  0.00  0.00    +0.012 C 
ATOM      2  C   UNL     1      36.011 -23.258 -15.950  0.00  0.00    +0.135 C 
ATOM      3  C   UNL     1      34.981 -22.859 -16.801  0.00  0.00    +0.035 C 
ATOM      4  C   UNL     1      34.411 -24.404 -14.548  0.00  0.00    +0.014 C 
ATOM      5  C   UNL     1      33.380 -24.006 -15.400  0.00  0.00    +0.059 C 
ATOM      6  C   UNL     1      33.666 -23.233 -16.526  0.00  0.00    +0.018 C 
ENDROOT
BRANCH   3   7
ATOM      7  C   UNL     1      35.254 -22.058 -17.975  0.00  0.00    +0.003 C 
ATOM      8  C   UNL     1      34.203 -21.616 -18.778  0.00  0.00    +0.000 C 
ATOM      9  C   UNL     1      34.453 -20.838 -19.921  0.00  0.00    +0.000 C 
ATOM     10  C   UNL     1      36.567 -21.729 -18.300  0.00  0.00    +0.000 C 
ATOM     11  C   UNL     1      35.787 -20.504 -20.252  0.00  0.00    +0.001 C 
ATOM     12  C   UNL     1      36.833 -20.957 -19.431  0.00  0.00    +0.000 C 
ATOM     13  C   UNL     1      33.407 -20.385 -20.741  0.00  0.00    +0.001 C 
ATOM     14  C   UNL     1      36.037 -19.725 -21.395  0.00  0.00    +0.016 C 
ATOM     15  C   UNL     1      34.985 -19.284 -22.198  0.00  0.00    +0.064 C 
ATOM     16  C   UNL     1      33.673 -19.613 -21.872  0.00  0.00    +0.016 C 
BRANCH  15  17
ATOM     17  N   UNL     1      35.256 -18.495 -23.357  0.00  0.00    -0.219 N 
ATOM     18  H   UNL     1      35.635 -18.902 -24.169  0.00  0.00    +0.173 HD
BRANCH  17  19
ATOM     19  S   UNL     1      34.901 -16.810 -23.294  0.00  0.00    +0.056 S 
ATOM     20  O   UNL     1      34.334 -16.509 -21.994  0.00  0.00    -0.154 OA
ATOM     21  O   UNL     1      36.003 -16.028 -23.817  0.00  0.00    -0.154 OA
ATOM     22  C   UNL     1      33.568 -16.727 -24.469  0.00  0.00    +0.200 C 
ENDBRANCH  17  19
ENDBRANCH  15  17
ENDBRANCH   3   7
BRANCH   5  25
ATOM     23  O   UNL     1      31.048 -22.954 -16.726  0.00  0.00    -0.251 OA
ATOM     24  O   UNL     1      28.205 -25.538 -14.221  0.00  0.00    -0.270 OA
ATOM     25  N   UNL     1      32.013 -24.394 -15.114  0.00  0.00    -0.220 N 
ATOM     26  N   UNL     1      29.662 -24.199 -15.419  0.00  0.00    -0.235 N 
ATOM     27  C   UNL     1      30.940 -23.773 -15.809  0.00  0.00    +0.318 C 
ATOM     28  C   UNL     1      31.739 -25.387 -14.179  0.00  0.00    +0.078 C 
ATOM     29  C   UNL     1      30.514 -25.799 -13.853  0.00  0.00    +0.075 C 
ATOM     30  C   UNL     1      29.347 -25.181 -14.499  0.00  0.00    +0.254 C 
ATOM     31  H   UNL     1      28.901 -23.746 -15.849  0.00  0.00    +0.159 HD
ENDBRANCH   5  25
BRANCH   1  32
ATOM     32  C   UNL     1      36.816 -24.466 -13.900  0.00  0.00    +0.022 C 
ATOM     33  C   UNL     1      37.168 -23.345 -12.875  0.00  0.00    +0.004 C 
ATOM     34  C   UNL     1      36.498 -25.733 -13.040  0.00  0.00    +0.004 C 
ATOM     35  C   UNL     1      38.117 -24.812 -14.686  0.00  0.00    +0.004 C 
ENDBRANCH   1  32
BRANCH   2  36
ATOM     36  O   UNL     1      37.302 -22.897 -16.209  0.00  0.00    -0.472 OA
ATOM     37  C   UNL     1      37.688 -21.576 -15.839  0.00  0.00    +0.252 C 
ENDBRANCH   2  36
TORSDOF 6
ENDMDL
MODEL 4
REMARK VINA RESULT:     -10.6     10.687     14.900
REMARK  Name = 56640146
REMARK  6 active torsions:
REMARK  status: ('A' for Active; 'I' for Inactive)
REMARK    1  A    between atoms: C_1  and  C_32
REMARK    2  A    between atoms: C_2  and  O_36
REMARK    3  A    between atoms: C_3  and  C_7
REMARK    4  A    between atoms: C_5  and  N_25
REMARK    5  A    between atoms: C_15  and  N_17
REMARK    6  A    between atoms: N_17  and  S_19
REMARK                            x       y       z     vdW  Elec       q    Type
REMARK                         _______ _______ _______ _____ _____    ______ ____
ROOT
ATOM      1  C   UNL     1      32.215 -10.855 -20.869  0.00  0.00    +0.012 C 
ATOM      2  C   UNL     1      32.267  -9.670 -21.602  0.00  0.00    +0.135 C 
ATOM      3  C   UNL     1      32.707  -9.686 -22.926  0.00  0.00    +0.035 C 
ATOM      4  C   UNL     1      32.606 -12.057 -21.458  0.00  0.00    +0.014 C 
ATOM      5  C   UNL     1      33.048 -12.074 -22.781  0.00  0.00    +0.059 C 
ATOM      6  C   UNL     1      33.098 -10.888 -23.515  0.00  0.00    +0.018 C 
ENDROOT
BRANCH   3   7
ATOM      7  C   UNL     1      32.768  -8.468 -23.704  0.00  0.00    +0.003 C 
ATOM      8  C   UNL     1      34.003  -7.910 -24.032  0.00  0.00    +0.000 C 
ATOM      9  C   UNL     1      34.077  -6.727 -24.787  0.00  0.00    +0.000 C 
ATOM     10  C   UNL     1      31.591  -7.855 -24.125  0.00  0.00    +0.000 C 
ATOM     11  C   UNL     1      32.881  -6.104 -25.215  0.00  0.00    +0.001 C 
ATOM     12  C   UNL     1      31.646  -6.680 -24.876  0.00  0.00    +0.000 C 
ATOM     13  C   UNL     1      35.312  -6.151 -25.127  0.00  0.00    +0.001 C 
ATOM     14  C   UNL     1      32.956  -4.921 -25.970  0.00  0.00    +0.016 C 
ATOM     15  C   UNL     1      34.191  -4.363 -26.297  0.00  0.00    +0.064 C 
ATOM     16  C   UNL     1      35.368  -4.977 -25.877  0.00  0.00    +0.016 C 
BRANCH  15  17
ATOM     17  N   UNL     1      34.250  -3.161 -27.065  0.00  0.00    -0.219 N 
ATOM     18  H   UNL     1      34.380  -2.288 -26.628  0.00  0.00    +0.173 HD
BRANCH  17  19
ATOM     19  S   UNL     1      34.086  -3.278 -28.776  0.00  0.00    +0.056 S 
ATOM     20  O   UNL     1      34.839  -2.198 -29.384  0.00  0.00    -0.154 OA
ATOM     21  O   UNL     1      34.268  -4.645 -29.221  0.00  0.00    -0.154 OA
ATOM     22  C   UNL     1      32.364  -2.870 -28.955  0.00  0.00    +0.200 C 
ENDBRANCH  17  19
ENDBRANCH  15  17
ENDBRANCH   3   7
BRANCH   5  25
ATOM     23  O   UNL     1      34.520 -14.168 -21.457  0.00  0.00    -0.251 OA
ATOM     24  O   UNL     1      34.565 -16.795 -25.216  0.00  0.00    -0.270 OA
ATOM     25  N   UNL     1      33.454 -13.324 -23.394  0.00  0.00    -0.220 N 
ATOM     26  N   UNL     1      34.584 -15.416 -23.360  0.00  0.00    -0.235 N 
ATOM     27  C   UNL     1      34.214 -14.265 -22.649  0.00  0.00    +0.318 C 
ATOM     28  C   UNL     1      33.086 -13.622 -24.703  0.00  0.00    +0.078 C 
ATOM     29  C   UNL     1      33.422 -14.743 -25.343  0.00  0.00    +0.075 C 
ATOM     30  C   UNL     1      34.239 -15.753 -24.655  0.00  0.00    +0.254 C 
ATOM     31  H   UNL     1      35.155 -16.060 -22.881  0.00  0.00    +0.159 HD
ENDBRANCH   5  25
BRANCH   1  32
ATOM     32  C   UNL     1      31.746 -10.858 -19.451  0.00  0.00    +0.022 C 
ATOM     33  C   UNL     1      31.774 -12.297 -18.851  0.00  0.00    +0.004 C 
ATOM     34  C   UNL     1      32.583  -9.978 -18.466  0.00  0.00    +0.004 C 
ATOM     35  C   UNL     1      30.282 -10.329 -19.341  0.00  0.00    +0.004 C 
ENDBRANCH   1  32
BRANCH   2  36
ATOM     36  O   UNL     1      31.882  -8.498 -21.015  0.00  0.00    -0.472 OA
ATOM     37  C   UNL     1      32.920  -7.616 -20.598  0.00  0.00    +0.252 C 
ENDBRANCH   2  36
TORSDOF 6
ENDMDL
MODEL 5
REMARK VINA RESULT:     -10.3      2.300      4.789
REMARK  Name = 56640146
REMARK  6 active torsions:
REMARK  status: ('A' for Active; 'I' for Inactive)
REMARK    1  A    between atoms: C_1  and  C_32
REMARK    2  A    between atoms: C_2  and  O_36
REMARK    3  A    between atoms: C_3  and  C_7
REMARK    4  A    between atoms: C_5  and  N_25
REMARK    5  A    between atoms: C_15  and  N_17
REMARK    6  A    between atoms: N_17  and  S_19
REMARK                            x       y       z     vdW  Elec       q    Type
REMARK                         _______ _______ _______ _____ _____    ______ ____
ROOT
ATOM      1  C   UNL     1      32.072 -24.396 -14.890  0.00  0.00    +0.012 C 
ATOM      2  C   UNL     1      32.408 -23.651 -16.020  0.00  0.00    +0.135 C 
ATOM      3  C   UNL     1      33.749 -23.412 -16.326  0.00  0.00    +0.035 C 
ATOM      4  C   UNL     1      33.075 -24.900 -14.063  0.00  0.00    +0.014 C 
ATOM      5  C   UNL     1      34.416 -24.660 -14.367  0.00  0.00    +0.059 C 
ATOM      6  C   UNL     1      34.752 -23.917 -15.498  0.00  0.00    +0.018 C 
ENDROOT
BRANCH   3   7
ATOM      7  C   UNL     1      34.120 -22.644 -17.494  0.00  0.00    +0.003 C 
ATOM      8  C   UNL     1      33.132 -22.100 -18.314  0.00  0.00    +0.000 C 
ATOM      9  C   UNL     1      33.477 -21.353 -19.453  0.00  0.00    +0.000 C 
ATOM     10  C   UNL     1      35.464 -22.449 -17.798  0.00  0.00    +0.000 C 
ATOM     11  C   UNL     1      34.843 -21.154 -19.762  0.00  0.00    +0.001 C 
ATOM     12  C   UNL     1      35.825 -21.709 -18.925  0.00  0.00    +0.000 C 
ATOM     13  C   UNL     1      32.495 -20.797 -20.290  0.00  0.00    +0.001 C 
ATOM     14  C   UNL     1      35.188 -20.406 -20.900  0.00  0.00    +0.016 C 
ATOM     15  C   UNL     1      34.199 -19.863 -21.720  0.00  0.00    +0.064 C 
ATOM     16  C   UNL     1      32.855 -20.057 -21.416  0.00  0.00    +0.016 C 
BRANCH  15  17
ATOM     17  N   UNL     1      34.566 -19.106 -22.874  0.00  0.00    -0.219 N 
ATOM     18  H   UNL     1      34.371 -19.438 -23.780  0.00  0.00    +0.173 HD
BRANCH  17  19
ATOM     19  S   UNL     1      35.359 -17.595 -22.637  0.00  0.00    +0.056 S 
ATOM     20  O   UNL     1      34.630 -16.847 -21.631  0.00  0.00    -0.154 OA
ATOM     21  O   UNL     1      36.793 -17.774 -22.526  0.00  0.00    -0.154 OA
ATOM     22  C   UNL     1      35.026 -16.817 -24.201  0.00  0.00    +0.200 C 
ENDBRANCH  17  19
ENDBRANCH  15  17
ENDBRANCH   3   7
BRANCH   5  25
ATOM     23  O   UNL     1      34.748 -24.011 -11.579  0.00  0.00    -0.251 OA
ATOM     24  O   UNL     1      38.443 -26.700 -11.182  0.00  0.00    -0.270 OA
ATOM     25  N   UNL     1      35.459 -25.185 -13.508  0.00  0.00    -0.220 N 
ATOM     26  N   UNL     1      36.619 -25.300 -11.434  0.00  0.00    -0.235 N 
ATOM     27  C   UNL     1      35.545 -24.757 -12.155  0.00  0.00    +0.318 C 
ATOM     28  C   UNL     1      36.368 -26.122 -13.989  0.00  0.00    +0.078 C 
ATOM     29  C   UNL     1      37.359 -26.650 -13.270  0.00  0.00    +0.075 C 
ATOM     30  C   UNL     1      37.540 -26.233 -11.871  0.00  0.00    +0.254 C 
ATOM     31  H   UNL     1      36.730 -24.980 -10.509  0.00  0.00    +0.159 HD
ENDBRANCH   5  25
BRANCH   1  32
ATOM     32  C   UNL     1      30.643 -24.663 -14.547  0.00  0.00    +0.022 C 
ATOM     33  C   UNL     1      29.869 -23.335 -14.283  0.00  0.00    +0.004 C 
ATOM     34  C   UNL     1      29.820 -25.415 -15.644  0.00  0.00    +0.004 C 
ATOM     35  C   UNL     1      30.526 -25.541 -13.263  0.00  0.00    +0.004 C 
ENDBRANCH   1  32
BRANCH   2  36
ATOM     36  O   UNL     1      31.418 -23.163 -16.824  0.00  0.00    -0.472 OA
ATOM     37  C   UNL     1      30.547 -22.189 -16.252  0.00  0.00    +0.252 C 
ENDBRANCH   2  36
TORSDOF 6
ENDMDL
MODEL 6
REMARK VINA RESULT:      -9.5      7.656     14.468
REMARK  Name = 56640146
REMARK  6 active torsions:
REMARK  status: ('A' for Active; 'I' for Inactive)
REMARK    1  A    between atoms: C_1  and  C_32
REMARK    2  A    between atoms: C_2  and  O_36
REMARK    3  A    between atoms: C_3  and  C_7
REMARK    4  A    between atoms: C_5  and  N_25
REMARK    5  A    between atoms: C_15  and  N_17
REMARK    6  A    between atoms: N_17  and  S_19
REMARK                            x       y       z     vdW  Elec       q    Type
REMARK                         _______ _______ _______ _____ _____    ______ ____
ROOT
ATOM      1  C   UNL     1      32.288  -9.624 -20.909  0.00  0.00    +0.012 C 
ATOM      2  C   UNL     1      32.566 -10.900 -21.400  0.00  0.00    +0.135 C 
ATOM      3  C   UNL     1      33.095 -11.055 -22.682  0.00  0.00    +0.035 C 
ATOM      4  C   UNL     1      32.537  -8.503 -21.700  0.00  0.00    +0.014 C 
ATOM      5  C   UNL     1      33.065  -8.657 -22.982  0.00  0.00    +0.059 C 
ATOM      6  C   UNL     1      33.344  -9.933 -23.472  0.00  0.00    +0.018 C 
ENDROOT
BRANCH   3   7
ATOM      7  C   UNL     1      33.392 -12.368 -23.210  0.00  0.00    +0.003 C 
ATOM      8  C   UNL     1      34.036 -13.312 -22.411  0.00  0.00    +0.000 C 
ATOM      9  C   UNL     1      34.331 -14.592 -22.911  0.00  0.00    +0.000 C 
ATOM     10  C   UNL     1      33.034 -12.688 -24.517  0.00  0.00    +0.000 C 
ATOM     11  C   UNL     1      33.968 -14.917 -24.239  0.00  0.00    +0.001 C 
ATOM     12  C   UNL     1      33.319 -13.954 -25.029  0.00  0.00    +0.000 C 
ATOM     13  C   UNL     1      34.979 -15.555 -22.120  0.00  0.00    +0.001 C 
ATOM     14  C   UNL     1      34.263 -16.197 -24.738  0.00  0.00    +0.016 C 
ATOM     15  C   UNL     1      34.907 -17.141 -23.938  0.00  0.00    +0.064 C 
ATOM     16  C   UNL     1      35.265 -16.821 -22.632  0.00  0.00    +0.016 C 
BRANCH  15  17
ATOM     17  N   UNL     1      35.201 -18.436 -24.461  0.00  0.00    -0.219 N 
ATOM     18  H   UNL     1      36.006 -18.591 -25.007  0.00  0.00    +0.173 HD
BRANCH  17  19
ATOM     19  S   UNL     1      34.108 -19.722 -24.112  0.00  0.00    +0.056 S 
ATOM     20  O   UNL     1      32.765 -19.284 -24.442  0.00  0.00    -0.154 OA
ATOM     21  O   UNL     1      34.616 -20.984 -24.612  0.00  0.00    -0.154 OA
ATOM     22  C   UNL     1      34.219 -19.753 -22.337  0.00  0.00    +0.200 C 
ENDBRANCH  17  19
ENDBRANCH  15  17
ENDBRANCH   3   7
BRANCH   5  25
ATOM     23  O   UNL     1      31.081  -7.235 -24.514  0.00  0.00    -0.251 OA
ATOM     24  O   UNL     1      34.162  -4.233 -26.104  0.00  0.00    -0.270 OA
ATOM     25  N   UNL     1      33.324  -7.491 -23.804  0.00  0.00    -0.220 N 
ATOM     26  N   UNL     1      32.648  -5.805 -25.339  0.00  0.00    -0.235 N 
ATOM     27  C   UNL     1      32.268  -6.899 -24.548  0.00  0.00    +0.318 C 
ATOM     28  C   UNL     1      34.597  -6.931 -23.856  0.00  0.00    +0.078 C 
ATOM     29  C   UNL     1      34.922  -5.866 -24.590  0.00  0.00    +0.075 C 
ATOM     30  C   UNL     1      33.895  -5.216 -25.417  0.00  0.00    +0.254 C 
ATOM     31  H   UNL     1      31.944  -5.409 -25.903  0.00  0.00    +0.159 HD
ENDBRANCH   5  25
BRANCH   1  32
ATOM     32  C   UNL     1      31.722  -9.438 -19.539  0.00  0.00    +0.022 C 
ATOM     33  C   UNL     1      31.598  -7.926 -19.181  0.00  0.00    +0.004 C 
ATOM     34  C   UNL     1      30.296 -10.039 -19.316  0.00  0.00    +0.004 C 
ATOM     35  C   UNL     1      32.629 -10.105 -18.459  0.00  0.00    +0.004 C 
ENDBRANCH   1  32
BRANCH   2  36
ATOM     36  O   UNL     1      32.319 -11.991 -20.617  0.00  0.00    -0.472 OA
ATOM     37  C   UNL     1      31.178 -12.777 -20.951  0.00  0.00    +0.252 C 
ENDBRANCH   2  36
TORSDOF 6
ENDMDL
MODEL 7
REMARK VINA RESULT:      -9.1      9.703     17.816
REMARK  Name = 56640146
REMARK  6 active torsions:
REMARK  status: ('A' for Active; 'I' for Inactive)
REMARK    1  A    between atoms: C_1  and  C_32
REMARK    2  A    between atoms: C_2  and  O_36
REMARK    3  A    between atoms: C_3  and  C_7
REMARK    4  A    between atoms: C_5  and  N_25
REMARK    5  A    between atoms: C_15  and  N_17
REMARK    6  A    between atoms: N_17  and  S_19
REMARK                            x       y       z     vdW  Elec       q    Type
REMARK                         _______ _______ _______ _____ _____    ______ ____
ROOT
ATOM      1  C   UNL     1      32.335  -5.333 -22.990  0.00  0.00    +0.012 C 
ATOM      2  C   UNL     1      32.627  -6.689 -22.847  0.00  0.00    +0.135 C 
ATOM      3  C   UNL     1      33.268  -7.378 -23.877  0.00  0.00    +0.035 C 
ATOM      4  C   UNL     1      32.682  -4.665 -24.164  0.00  0.00    +0.014 C 
ATOM      5  C   UNL     1      33.322  -5.353 -25.195  0.00  0.00    +0.059 C 
ATOM      6  C   UNL     1      33.614  -6.710 -25.051  0.00  0.00    +0.018 C 
ENDROOT
BRANCH   3   7
ATOM      7  C   UNL     1      33.580  -8.785 -23.748  0.00  0.00    +0.003 C 
ATOM      8  C   UNL     1      32.586  -9.689 -23.376  0.00  0.00    +0.000 C 
ATOM      9  C   UNL     1      32.875 -11.058 -23.246  0.00  0.00    +0.000 C 
ATOM     10  C   UNL     1      34.875  -9.233 -23.997  0.00  0.00    +0.000 C 
ATOM     11  C   UNL     1      34.191 -11.514 -23.498  0.00  0.00    +0.001 C 
ATOM     12  C   UNL     1      35.179 -10.589 -23.873  0.00  0.00    +0.000 C 
ATOM     13  C   UNL     1      31.886 -11.983 -22.873  0.00  0.00    +0.001 C 
ATOM     14  C   UNL     1      34.479 -12.883 -23.369  0.00  0.00    +0.016 C 
ATOM     15  C   UNL     1      33.484 -13.788 -22.996  0.00  0.00    +0.064 C 
ATOM     16  C   UNL     1      32.191 -13.339 -22.749  0.00  0.00    +0.016 C 
BRANCH  15  17
ATOM     17  N   UNL     1      33.795 -15.175 -22.868  0.00  0.00    -0.219 N 
ATOM     18  H   UNL     1      33.745 -15.626 -21.995  0.00  0.00    +0.173 HD
BRANCH  17  19
ATOM     19  S   UNL     1      34.257 -16.040 -24.285  0.00  0.00    +0.056 S 
ATOM     20  O   UNL     1      33.103 -16.138 -25.160  0.00  0.00    -0.154 OA
ATOM     21  O   UNL     1      35.527 -15.561 -24.793  0.00  0.00    -0.154 OA
ATOM     22  C   UNL     1      34.519 -17.657 -23.594  0.00  0.00    +0.200 C 
ENDBRANCH  17  19
ENDBRANCH  15  17
ENDBRANCH   3   7
BRANCH   5  25
ATOM     23  O   UNL     1      36.011  -5.016 -26.175  0.00  0.00    -0.251 OA
ATOM     24  O   UNL     1      34.598  -2.671 -29.853  0.00  0.00    -0.270 OA
ATOM     25  N   UNL     1      33.684  -4.660 -26.416  0.00  0.00    -0.220 N 
ATOM     26  N   UNL     1      35.282  -3.797 -27.952  0.00  0.00    -0.235 N 
ATOM     27  C   UNL     1      35.052  -4.522 -26.774  0.00  0.00    +0.318 C 
ATOM     28  C   UNL     1      32.701  -4.143 -27.255  0.00  0.00    +0.078 C 
ATOM     29  C   UNL     1      32.947  -3.487 -28.389  0.00  0.00    +0.075 C 
ATOM     30  C   UNL     1      34.338  -3.271 -28.814  0.00  0.00    +0.254 C 
ATOM     31  H   UNL     1      36.224  -3.644 -28.194  0.00  0.00    +0.159 HD
ENDBRANCH   5  25
BRANCH   1  32
ATOM     32  C   UNL     1      31.651  -4.578 -21.898  0.00  0.00    +0.022 C 
ATOM     33  C   UNL     1      30.485  -5.410 -21.283  0.00  0.00    +0.004 C 
ATOM     34  C   UNL     1      32.560  -4.174 -20.691  0.00  0.00    +0.004 C 
ATOM     35  C   UNL     1      31.048  -3.241 -22.430  0.00  0.00    +0.004 C 
ENDBRANCH   1  32
BRANCH   2  36
ATOM     36  O   UNL     1      32.283  -7.333 -21.693  0.00  0.00    -0.472 OA
ATOM     37  C   UNL     1      33.312  -7.508 -20.722  0.00  0.00    +0.252 C 
ENDBRANCH   2  36
TORSDOF 6
ENDMDL
