MODEL 1
REMARK VINA RESULT:     -12.3      0.000      0.000
REMARK  Name = 56842109
REMARK  7 active torsions:
REMARK  status: ('A' for Active; 'I' for Inactive)
REMARK    1  A    between atoms: C_1  and  C_24
REMARK    2  A    between atoms: C_3  and  C_9
REMARK    3  A    between atoms: C_5  and  O_22
REMARK    4  A    between atoms: N_8  and  C_11
REMARK    5  A    between atoms: C_11  and  C_12
REMARK    6  A    between atoms: C_15  and  C_21
REMARK    7  A    between atoms: C_24  and  C_29
REMARK                            x       y       z     vdW  Elec       q    Type
REMARK                         _______ _______ _______ _____ _____    ______ ____
ROOT
ATOM      1  C   UNL     1      35.424 -23.841 -13.795  0.00  0.00    -0.018 C 
ATOM      2  C   UNL     1      34.777 -23.490 -14.979  0.00  0.00    +0.003 C 
ATOM      3  C   UNL     1      33.394 -23.641 -15.090  0.00  0.00    +0.087 C 
ATOM      4  C   UNL     1      34.689 -24.343 -12.721  0.00  0.00    -0.001 C 
ATOM      5  C   UNL     1      32.659 -24.143 -14.017  0.00  0.00    +0.143 C 
ATOM      6  C   UNL     1      33.307 -24.495 -12.832  0.00  0.00    +0.037 C 
ENDROOT
BRANCH   3   9
ATOM      7  O   UNL     1      31.514 -23.055 -16.362  0.00  0.00    -0.270 OA
ATOM      8  N   UNL     1      33.551 -23.139 -17.467  0.00  0.00    -0.297 N 
ATOM      9  C   UNL     1      32.738 -23.266 -16.335  0.00  0.00    +0.249 C 
ATOM     10  H   UNL     1      34.513 -23.324 -17.373  0.00  0.00    +0.150 HD
BRANCH   8  11
ATOM     11  C   UNL     1      33.052 -22.753 -18.767  0.00  0.00    +0.117 C 
BRANCH  11  12
ATOM     12  C   UNL     1      33.945 -21.749 -19.436  0.00  0.00    -0.003 C 
ATOM     13  C   UNL     1      33.391 -20.732 -20.213  0.00  0.00    -0.003 C 
ATOM     14  C   UNL     1      35.329 -21.832 -19.281  0.00  0.00    -0.003 C 
ATOM     15  C   UNL     1      35.603 -19.881 -20.679  0.00  0.00    +0.071 C 
ATOM     16  C   UNL     1      34.219 -19.797 -20.835  0.00  0.00    +0.004 C 
ATOM     17  C   UNL     1      36.158 -20.899 -19.903  0.00  0.00    +0.004 C 
BRANCH  15  21
ATOM     18  F   UNL     1      37.790 -18.984 -20.939  0.00  0.00    -0.166 F 
ATOM     19  F   UNL     1      36.518 -18.992 -22.703  0.00  0.00    -0.166 F 
ATOM     20  F   UNL     1      36.131 -17.586 -21.098  0.00  0.00    -0.166 F 
ATOM     21  C   UNL     1      36.489 -18.882 -21.341  0.00  0.00    +0.419 C 
ENDBRANCH  15  21
ENDBRANCH  11  12
ENDBRANCH   8  11
ENDBRANCH   3   9
BRANCH   5  22
ATOM     22  O   UNL     1      31.308 -24.296 -14.105  0.00  0.00    -0.471 OA
ATOM     23  C   UNL     1      30.721 -25.332 -13.319  0.00  0.00    +0.252 C 
ENDBRANCH   5  22
BRANCH   1  24
ATOM     24  C   UNL     1      36.919 -23.676 -13.675  0.00  0.00    +0.080 C 
BRANCH  24  29
ATOM     25  O   UNL     1      39.018 -24.760 -13.172  0.00  0.00    -0.428 OA
ATOM     26  O   UNL     1      36.584 -26.364 -15.094  0.00  0.00    -0.271 OA
ATOM     27  O   UNL     1      40.961 -25.460 -14.152  0.00  0.00    -0.226 OA
ATOM     28  N   UNL     1      38.887 -26.149 -14.900  0.00  0.00    -0.218 N 
ATOM     29  C   UNL     1      37.614 -24.989 -13.380  0.00  0.00    +0.250 C 
ATOM     30  C   UNL     1      37.587 -25.920 -14.559  0.00  0.00    +0.271 C 
ATOM     31  C   UNL     1      39.740 -25.467 -14.093  0.00  0.00    +0.408 C 
ATOM     32  H   UNL     1      39.172 -26.736 -15.638  0.00  0.00    +0.161 HD
ENDBRANCH  24  29
ENDBRANCH   1  24
TORSDOF 7
ENDMDL
MODEL 2
REMARK VINA RESULT:     -12.0      6.884     11.733
REMARK  Name = 56842109
REMARK  7 active torsions:
REMARK  status: ('A' for Active; 'I' for Inactive)
REMARK    1  A    between atoms: C_1  and  C_24
REMARK    2  A    between atoms: C_3  and  C_9
REMARK    3  A    between atoms: C_5  and  O_22
REMARK    4  A    between atoms: N_8  and  C_11
REMARK    5  A    between atoms: C_11  and  C_12
REMARK    6  A    between atoms: C_15  and  C_21
REMARK    7  A    between atoms: C_24  and  C_29
REMARK                            x       y       z     vdW  Elec       q    Type
REMARK                         _______ _______ _______ _____ _____    ______ ____
ROOT
ATOM      1  C   UNL     1      33.989 -14.209 -23.280  0.00  0.00    -0.018 C 
ATOM      2  C   UNL     1      34.648 -15.011 -22.348  0.00  0.00    +0.003 C 
ATOM      3  C   UNL     1      34.884 -16.357 -22.629  0.00  0.00    +0.087 C 
ATOM      4  C   UNL     1      33.567 -14.753 -24.492  0.00  0.00    -0.001 C 
ATOM      5  C   UNL     1      34.462 -16.900 -23.842  0.00  0.00    +0.143 C 
ATOM      6  C   UNL     1      33.803 -16.098 -24.774  0.00  0.00    +0.037 C 
ENDROOT
BRANCH   3   9
ATOM      7  O   UNL     1      35.368 -17.009 -20.430  0.00  0.00    -0.270 OA
ATOM      8  N   UNL     1      36.450 -18.154 -22.132  0.00  0.00    -0.297 N 
ATOM      9  C   UNL     1      35.576 -17.176 -21.643  0.00  0.00    +0.249 C 
ATOM     10  H   UNL     1      36.566 -18.229 -23.106  0.00  0.00    +0.150 HD
BRANCH   8  11
ATOM     11  C   UNL     1      37.190 -19.058 -21.281  0.00  0.00    +0.117 C 
BRANCH  11  12
ATOM     12  C   UNL     1      36.286 -20.000 -20.542  0.00  0.00    -0.003 C 
ATOM     13  C   UNL     1      36.800 -20.804 -19.524  0.00  0.00    -0.003 C 
ATOM     14  C   UNL     1      34.932 -20.073 -20.870  0.00  0.00    -0.003 C 
ATOM     15  C   UNL     1      34.608 -21.752 -19.165  0.00  0.00    +0.071 C 
ATOM     16  C   UNL     1      35.961 -21.681 -18.835  0.00  0.00    +0.004 C 
ATOM     17  C   UNL     1      34.094 -20.949 -20.183  0.00  0.00    +0.004 C 
BRANCH  15  21
ATOM     18  F   UNL     1      33.565 -23.886 -19.062  0.00  0.00    -0.166 F 
ATOM     19  F   UNL     1      34.149 -22.990 -17.169  0.00  0.00    -0.166 F 
ATOM     20  F   UNL     1      32.443 -22.207 -18.255  0.00  0.00    -0.166 F 
ATOM     21  C   UNL     1      33.710 -22.687 -18.427  0.00  0.00    +0.419 C 
ENDBRANCH  15  21
ENDBRANCH  11  12
ENDBRANCH   8  11
ENDBRANCH   3   9
BRANCH   5  22
ATOM     22  O   UNL     1      34.687 -18.212 -24.137  0.00  0.00    -0.471 OA
ATOM     23  C   UNL     1      33.549 -19.003 -24.473  0.00  0.00    +0.252 C 
ENDBRANCH   5  22
BRANCH   1  24
ATOM     24  C   UNL     1      33.734 -12.753 -22.975  0.00  0.00    +0.080 C 
BRANCH  24  29
ATOM     25  O   UNL     1      31.984 -11.094 -22.849  0.00  0.00    -0.428 OA
ATOM     26  O   UNL     1      32.112 -13.745 -20.581  0.00  0.00    -0.271 OA
ATOM     27  O   UNL     1      31.229  -9.370 -21.552  0.00  0.00    -0.226 OA
ATOM     28  N   UNL     1      31.549 -11.497 -20.709  0.00  0.00    -0.218 N 
ATOM     29  C   UNL     1      32.280 -12.487 -22.649  0.00  0.00    +0.250 C 
ATOM     30  C   UNL     1      31.980 -12.697 -21.192  0.00  0.00    +0.271 C 
ATOM     31  C   UNL     1      31.553 -10.543 -21.675  0.00  0.00    +0.408 C 
ATOM     32  H   UNL     1      31.271 -11.341 -19.777  0.00  0.00    +0.161 HD
ENDBRANCH  24  29
ENDBRANCH   1  24
TORSDOF 7
ENDMDL
MODEL 3
REMARK VINA RESULT:     -11.8      2.325      5.823
REMARK  Name = 56842109
REMARK  7 active torsions:
REMARK  status: ('A' for Active; 'I' for Inactive)
REMARK    1  A    between atoms: C_1  and  C_24
REMARK    2  A    between atoms: C_3  and  C_9
REMARK    3  A    between atoms: C_5  and  O_22
REMARK    4  A    between atoms: N_8  and  C_11
REMARK    5  A    between atoms: C_11  and  C_12
REMARK    6  A    between atoms: C_15  and  C_21
REMARK    7  A    between atoms: C_24  and  C_29
REMARK                            x       y       z     vdW  Elec       q    Type
REMARK                         _______ _______ _______ _____ _____    ______ ____
ROOT
ATOM      1  C   UNL     1      32.287 -23.586 -14.389  0.00  0.00    -0.018 C 
ATOM      2  C   UNL     1      33.401 -23.005 -14.996  0.00  0.00    +0.003 C 
ATOM      3  C   UNL     1      34.661 -23.582 -14.840  0.00  0.00    +0.087 C 
ATOM      4  C   UNL     1      32.434 -24.744 -13.627  0.00  0.00    -0.001 C 
ATOM      5  C   UNL     1      34.808 -24.740 -14.078  0.00  0.00    +0.143 C 
ATOM      6  C   UNL     1      33.695 -25.321 -13.471  0.00  0.00    +0.037 C 
ENDROOT
BRANCH   3   9
ATOM      7  O   UNL     1      36.852 -22.747 -14.841  0.00  0.00    -0.270 OA
ATOM      8  N   UNL     1      35.683 -22.647 -16.842  0.00  0.00    -0.297 N 
ATOM      9  C   UNL     1      35.810 -22.960 -15.484  0.00  0.00    +0.249 C 
ATOM     10  H   UNL     1      34.828 -22.843 -17.288  0.00  0.00    +0.150 HD
BRANCH   8  11
ATOM     11  C   UNL     1      36.741 -22.049 -17.624  0.00  0.00    +0.117 C 
BRANCH  11  12
ATOM     12  C   UNL     1      36.213 -21.360 -18.849  0.00  0.00    -0.003 C 
ATOM     13  C   UNL     1      34.911 -21.609 -19.283  0.00  0.00    -0.003 C 
ATOM     14  C   UNL     1      37.024 -20.470 -19.554  0.00  0.00    -0.003 C 
ATOM     15  C   UNL     1      35.231 -20.080 -21.124  0.00  0.00    +0.071 C 
ATOM     16  C   UNL     1      34.419 -20.969 -20.420  0.00  0.00    +0.004 C 
ATOM     17  C   UNL     1      36.533 -19.831 -20.691  0.00  0.00    +0.004 C 
BRANCH  15  21
ATOM     18  F   UNL     1      34.921 -18.045 -22.315  0.00  0.00    -0.166 F 
ATOM     19  F   UNL     1      35.268 -19.833 -23.504  0.00  0.00    -0.166 F 
ATOM     20  F   UNL     1      33.359 -19.546 -22.515  0.00  0.00    -0.166 F 
ATOM     21  C   UNL     1      34.705 -19.393 -22.339  0.00  0.00    +0.419 C 
ENDBRANCH  15  21
ENDBRANCH  11  12
ENDBRANCH   8  11
ENDBRANCH   3   9
BRANCH   5  22
ATOM     22  O   UNL     1      36.031 -25.321 -13.916  0.00  0.00    -0.471 OA
ATOM     23  C   UNL     1      36.310 -26.473 -14.711  0.00  0.00    +0.252 C 
ENDBRANCH   5  22
BRANCH   1  24
ATOM     24  C   UNL     1      30.925 -22.961 -14.559  0.00  0.00    +0.080 C 
BRANCH  24  29
ATOM     25  O   UNL     1      29.500 -22.604 -16.476  0.00  0.00    -0.428 OA
ATOM     26  O   UNL     1      29.059 -25.378 -14.402  0.00  0.00    -0.271 OA
ATOM     27  O   UNL     1      27.352 -22.066 -17.046  0.00  0.00    -0.226 OA
ATOM     28  N   UNL     1      27.850 -23.855 -15.672  0.00  0.00    -0.218 N 
ATOM     29  C   UNL     1      30.135 -23.613 -15.674  0.00  0.00    +0.250 C 
ATOM     30  C   UNL     1      28.978 -24.418 -15.152  0.00  0.00    +0.271 C 
ATOM     31  C   UNL     1      28.144 -22.782 -16.450  0.00  0.00    +0.408 C 
ATOM     32  H   UNL     1      26.938 -24.186 -15.506  0.00  0.00    +0.161 HD
ENDBRANCH  24  29
ENDBRANCH   1  24
TORSDOF 7
ENDMDL
MODEL 4
REMARK VINA RESULT:     -11.5     10.342     14.673
REMARK  Name = 56842109
REMARK  7 active torsions:
REMARK  status: ('A' for Active; 'I' for Inactive)
REMARK    1  A    between atoms: C_1  and  C_24
REMARK    2  A    between atoms: C_3  and  C_9
REMARK    3  A    between atoms: C_5  and  O_22
REMARK    4  A    between atoms: N_8  and  C_11
REMARK    5  A    between atoms: C_11  and  C_12
REMARK    6  A    between atoms: C_15  and  C_21
REMARK    7  A    between atoms: C_24  and  C_29
REMARK                            x       y       z     vdW  Elec       q    Type
REMARK                         _______ _______ _______ _____ _____    ______ ____
ROOT
ATOM      1  C   UNL     1      31.607  -9.555 -22.462  0.00  0.00    -0.018 C 
ATOM      2  C   UNL     1      32.389 -10.385 -23.266  0.00  0.00    +0.003 C 
ATOM      3  C   UNL     1      32.540 -11.733 -22.938  0.00  0.00    +0.087 C 
ATOM      4  C   UNL     1      30.976 -10.073 -21.332  0.00  0.00    -0.001 C 
ATOM      5  C   UNL     1      31.908 -12.251 -21.808  0.00  0.00    +0.143 C 
ATOM      6  C   UNL     1      31.126 -11.421 -21.004  0.00  0.00    +0.037 C 
ENDROOT
BRANCH   3   9
ATOM      7  O   UNL     1      34.519 -12.247 -24.085  0.00  0.00    -0.270 OA
ATOM      8  N   UNL     1      32.785 -13.780 -24.234  0.00  0.00    -0.297 N 
ATOM      9  C   UNL     1      33.359 -12.582 -23.792  0.00  0.00    +0.249 C 
ATOM     10  H   UNL     1      31.860 -13.980 -23.963  0.00  0.00    +0.150 HD
BRANCH   8  11
ATOM     11  C   UNL     1      33.478 -14.736 -25.066  0.00  0.00    +0.117 C 
BRANCH  11  12
ATOM     12  C   UNL     1      34.042 -15.873 -24.265  0.00  0.00    -0.003 C 
ATOM     13  C   UNL     1      34.652 -15.625 -23.035  0.00  0.00    -0.003 C 
ATOM     14  C   UNL     1      33.957 -17.179 -24.749  0.00  0.00    -0.003 C 
ATOM     15  C   UNL     1      35.090 -17.985 -22.774  0.00  0.00    +0.071 C 
ATOM     16  C   UNL     1      35.176 -16.680 -22.289  0.00  0.00    +0.004 C 
ATOM     17  C   UNL     1      34.482 -18.234 -24.005  0.00  0.00    +0.004 C 
BRANCH  15  21
ATOM     18  F   UNL     1      37.013 -19.098 -21.925  0.00  0.00    -0.166 F 
ATOM     19  F   UNL     1      35.233 -19.123 -20.675  0.00  0.00    -0.166 F 
ATOM     20  F   UNL     1      35.316 -20.346 -22.464  0.00  0.00    -0.166 F 
ATOM     21  C   UNL     1      35.649 -19.115 -21.977  0.00  0.00    +0.419 C 
ENDBRANCH  15  21
ENDBRANCH  11  12
ENDBRANCH   8  11
ENDBRANCH   3   9
BRANCH   5  22
ATOM     22  O   UNL     1      32.041 -13.565 -21.473  0.00  0.00    -0.471 OA
ATOM     23  C   UNL     1      32.297 -13.861 -20.102  0.00  0.00    +0.252 C 
ENDBRANCH   5  22
BRANCH   1  24
ATOM     24  C   UNL     1      31.444  -8.098 -22.818  0.00  0.00    +0.080 C 
BRANCH  24  29
ATOM     25  O   UNL     1      30.489  -6.067 -21.926  0.00  0.00    -0.428 OA
ATOM     26  O   UNL     1      33.535  -7.292 -20.738  0.00  0.00    -0.271 OA
ATOM     27  O   UNL     1      30.809  -3.804 -21.865  0.00  0.00    -0.226 OA
ATOM     28  N   UNL     1      32.437  -5.297 -21.188  0.00  0.00    -0.218 N 
ATOM     29  C   UNL     1      31.263  -7.230 -21.590  0.00  0.00    +0.250 C 
ATOM     30  C   UNL     1      32.565  -6.652 -21.110  0.00  0.00    +0.271 C 
ATOM     31  C   UNL     1      31.220  -4.939 -21.673  0.00  0.00    +0.408 C 
ATOM     32  H   UNL     1      33.139  -4.657 -20.926  0.00  0.00    +0.161 HD
ENDBRANCH  24  29
ENDBRANCH   1  24
TORSDOF 7
ENDMDL
MODEL 5
REMARK VINA RESULT:     -11.3      9.998     14.315
REMARK  Name = 56842109
REMARK  7 active torsions:
REMARK  status: ('A' for Active; 'I' for Inactive)
REMARK    1  A    between atoms: C_1  and  C_24
REMARK    2  A    between atoms: C_3  and  C_9
REMARK    3  A    between atoms: C_5  and  O_22
REMARK    4  A    between atoms: N_8  and  C_11
REMARK    5  A    between atoms: C_11  and  C_12
REMARK    6  A    between atoms: C_15  and  C_21
REMARK    7  A    between atoms: C_24  and  C_29
REMARK                            x       y       z     vdW  Elec       q    Type
REMARK                         _______ _______ _______ _____ _____    ______ ____
ROOT
ATOM      1  C   UNL     1      31.409  -9.741 -22.593  0.00  0.00    -0.018 C 
ATOM      2  C   UNL     1      32.241 -10.557 -23.360  0.00  0.00    +0.003 C 
ATOM      3  C   UNL     1      32.503 -11.865 -22.952  0.00  0.00    +0.087 C 
ATOM      4  C   UNL     1      30.838 -10.233 -21.420  0.00  0.00    -0.001 C 
ATOM      5  C   UNL     1      31.932 -12.358 -21.779  0.00  0.00    +0.143 C 
ATOM      6  C   UNL     1      31.100 -11.542 -21.013  0.00  0.00    +0.037 C 
ENDROOT
BRANCH   3   9
ATOM      7  O   UNL     1      34.531 -12.333 -24.032  0.00  0.00    -0.270 OA
ATOM      8  N   UNL     1      32.851 -13.922 -24.208  0.00  0.00    -0.297 N 
ATOM      9  C   UNL     1      33.373 -12.701 -23.768  0.00  0.00    +0.249 C 
ATOM     10  H   UNL     1      31.924 -14.148 -23.961  0.00  0.00    +0.150 HD
BRANCH   8  11
ATOM     11  C   UNL     1      33.597 -14.868 -25.004  0.00  0.00    +0.117 C 
BRANCH  11  12
ATOM     12  C   UNL     1      34.121 -16.007 -24.179  0.00  0.00    -0.003 C 
ATOM     13  C   UNL     1      34.724 -15.756 -22.946  0.00  0.00    -0.003 C 
ATOM     14  C   UNL     1      34.005 -17.318 -24.644  0.00  0.00    -0.003 C 
ATOM     15  C   UNL     1      35.095 -18.123 -22.644  0.00  0.00    +0.071 C 
ATOM     16  C   UNL     1      35.211 -16.813 -22.178  0.00  0.00    +0.004 C 
ATOM     17  C   UNL     1      34.492 -18.375 -23.876  0.00  0.00    +0.004 C 
BRANCH  15  21
ATOM     18  F   UNL     1      36.960 -19.179 -21.614  0.00  0.00    -0.166 F 
ATOM     19  F   UNL     1      35.054 -19.327 -20.576  0.00  0.00    -0.166 F 
ATOM     20  F   UNL     1      35.396 -20.482 -22.381  0.00  0.00    -0.166 F 
ATOM     21  C   UNL     1      35.613 -19.254 -21.822  0.00  0.00    +0.419 C 
ENDBRANCH  15  21
ENDBRANCH  11  12
ENDBRANCH   8  11
ENDBRANCH   3   9
BRANCH   5  22
ATOM     22  O   UNL     1      32.173 -13.634 -21.366  0.00  0.00    -0.471 OA
ATOM     23  C   UNL     1      32.325 -13.842 -19.963  0.00  0.00    +0.252 C 
ENDBRANCH   5  22
BRANCH   1  24
ATOM     24  C   UNL     1      31.126  -8.326 -23.035  0.00  0.00    +0.080 C 
BRANCH  24  29
ATOM     25  O   UNL     1      32.867  -7.858 -21.429  0.00  0.00    -0.428 OA
ATOM     26  O   UNL     1      31.029  -5.274 -22.890  0.00  0.00    -0.271 OA
ATOM     27  O   UNL     1      33.193  -7.091 -19.300  0.00  0.00    -0.226 OA
ATOM     28  N   UNL     1      32.041  -5.869 -20.887  0.00  0.00    -0.218 N 
ATOM     29  C   UNL     1      32.223  -7.370 -22.617  0.00  0.00    +0.250 C 
ATOM     30  C   UNL     1      31.677  -6.036 -22.190  0.00  0.00    +0.271 C 
ATOM     31  C   UNL     1      32.738  -6.939 -20.425  0.00  0.00    +0.408 C 
ATOM     32  H   UNL     1      31.826  -5.074 -20.348  0.00  0.00    +0.161 HD
ENDBRANCH  24  29
ENDBRANCH   1  24
TORSDOF 7
ENDMDL
MODEL 6
REMARK VINA RESULT:     -11.3      7.704     11.096
REMARK  Name = 56842109
REMARK  7 active torsions:
REMARK  status: ('A' for Active; 'I' for Inactive)
REMARK    1  A    between atoms: C_1  and  C_24
REMARK    2  A    between atoms: C_3  and  C_9
REMARK    3  A    between atoms: C_5  and  O_22
REMARK    4  A    between atoms: N_8  and  C_11
REMARK    5  A    between atoms: C_11  and  C_12
REMARK    6  A    between atoms: C_15  and  C_21
REMARK    7  A    between atoms: C_24  and  C_29
REMARK                            x       y       z     vdW  Elec       q    Type
REMARK                         _______ _______ _______ _____ _____    ______ ____
ROOT
ATOM      1  C   UNL     1      35.089 -17.792 -22.655  0.00  0.00    -0.018 C 
ATOM      2  C   UNL     1      34.798 -16.779 -21.740  0.00  0.00    +0.003 C 
ATOM      3  C   UNL     1      34.330 -15.545 -22.192  0.00  0.00    +0.087 C 
ATOM      4  C   UNL     1      34.912 -17.570 -24.020  0.00  0.00    -0.001 C 
ATOM      5  C   UNL     1      34.152 -15.323 -23.557  0.00  0.00    +0.143 C 
ATOM      6  C   UNL     1      34.444 -16.336 -24.472  0.00  0.00    +0.037 C 
ENDROOT
BRANCH   3   9
ATOM      7  O   UNL     1      34.929 -14.036 -20.501  0.00  0.00    -0.270 OA
ATOM      8  N   UNL     1      32.706 -14.051 -21.163  0.00  0.00    -0.297 N 
ATOM      9  C   UNL     1      34.029 -14.502 -21.220  0.00  0.00    +0.249 C 
ATOM     10  H   UNL     1      32.046 -14.467 -21.763  0.00  0.00    +0.150 HD
BRANCH   8  11
ATOM     11  C   UNL     1      32.258 -13.008 -20.269  0.00  0.00    +0.117 C 
BRANCH  11  12
ATOM     12  C   UNL     1      32.063 -11.702 -20.982  0.00  0.00    -0.003 C 
ATOM     13  C   UNL     1      32.262 -11.624 -22.360  0.00  0.00    -0.003 C 
ATOM     14  C   UNL     1      31.684 -10.566 -20.267  0.00  0.00    -0.003 C 
ATOM     15  C   UNL     1      31.702  -9.276 -22.310  0.00  0.00    +0.071 C 
ATOM     16  C   UNL     1      32.082 -10.411 -23.025  0.00  0.00    +0.004 C 
ATOM     17  C   UNL     1      31.503  -9.353 -20.931  0.00  0.00    +0.004 C 
BRANCH  15  21
ATOM     18  F   UNL     1      32.680  -7.320 -23.243  0.00  0.00    -0.166 F 
ATOM     19  F   UNL     1      30.920  -8.110 -24.247  0.00  0.00    -0.166 F 
ATOM     20  F   UNL     1      30.714  -7.097 -22.340  0.00  0.00    -0.166 F 
ATOM     21  C   UNL     1      31.505  -7.979 -23.019  0.00  0.00    +0.419 C 
ENDBRANCH  15  21
ENDBRANCH  11  12
ENDBRANCH   8  11
ENDBRANCH   3   9
BRANCH   5  22
ATOM     22  O   UNL     1      33.693 -14.126 -24.018  0.00  0.00    -0.471 OA
ATOM     23  C   UNL     1      33.300 -14.067 -25.388  0.00  0.00    +0.252 C 
ENDBRANCH   5  22
BRANCH   1  24
ATOM     24  C   UNL     1      35.595 -19.126 -22.165  0.00  0.00    +0.080 C 
BRANCH  24  29
ATOM     25  O   UNL     1      36.415 -19.941 -20.045  0.00  0.00    -0.428 OA
ATOM     26  O   UNL     1      33.055 -20.294 -20.927  0.00  0.00    -0.271 OA
ATOM     27  O   UNL     1      36.832 -21.875 -18.900  0.00  0.00    -0.226 OA
ATOM     28  N   UNL     1      34.755 -21.394 -19.790  0.00  0.00    -0.218 N 
ATOM     29  C   UNL     1      35.280 -19.351 -20.702  0.00  0.00    +0.250 C 
ATOM     30  C   UNL     1      34.199 -20.376 -20.507  0.00  0.00    +0.271 C 
ATOM     31  C   UNL     1      36.063 -21.151 -19.517  0.00  0.00    +0.408 C 
ATOM     32  H   UNL     1      34.270 -22.202 -19.507  0.00  0.00    +0.161 HD
ENDBRANCH  24  29
ENDBRANCH   1  24
TORSDOF 7
ENDMDL
MODEL 7
REMARK VINA RESULT:     -11.3     11.384     14.917
REMARK  Name = 56842109
REMARK  7 active torsions:
REMARK  status: ('A' for Active; 'I' for Inactive)
REMARK    1  A    between atoms: C_1  and  C_24
REMARK    2  A    between atoms: C_3  and  C_9
REMARK    3  A    between atoms: C_5  and  O_22
REMARK    4  A    between atoms: N_8  and  C_11
REMARK    5  A    between atoms: C_11  and  C_12
REMARK    6  A    between atoms: C_15  and  C_21
REMARK    7  A    between atoms: C_24  and  C_29
REMARK                            x       y       z     vdW  Elec       q    Type
REMARK                         _______ _______ _______ _____ _____    ______ ____
ROOT
ATOM      1  C   UNL     1      33.056 -12.719 -22.641  0.00  0.00    -0.018 C 
ATOM      2  C   UNL     1      32.867 -11.356 -22.871  0.00  0.00    +0.003 C 
ATOM      3  C   UNL     1      32.113 -10.596 -21.976  0.00  0.00    +0.087 C 
ATOM      4  C   UNL     1      32.493 -13.320 -21.516  0.00  0.00    -0.001 C 
ATOM      5  C   UNL     1      31.550 -11.197 -20.851  0.00  0.00    +0.143 C 
ATOM      6  C   UNL     1      31.740 -12.560 -20.621  0.00  0.00    +0.037 C 
ENDROOT
BRANCH   3   9
ATOM      7  O   UNL     1      31.040  -8.786 -23.011  0.00  0.00    -0.270 OA
ATOM      8  N   UNL     1      32.778  -8.291 -21.557  0.00  0.00    -0.297 N 
ATOM      9  C   UNL     1      31.930  -9.174 -22.235  0.00  0.00    +0.249 C 
ATOM     10  H   UNL     1      33.461  -8.670 -20.958  0.00  0.00    +0.150 HD
BRANCH   8  11
ATOM     11  C   UNL     1      32.704  -6.855 -21.691  0.00  0.00    +0.117 C 
BRANCH  11  12
ATOM     12  C   UNL     1      33.428  -6.366 -22.910  0.00  0.00    -0.003 C 
ATOM     13  C   UNL     1      32.862  -5.369 -23.705  0.00  0.00    -0.003 C 
ATOM     14  C   UNL     1      34.668  -6.907 -23.251  0.00  0.00    -0.003 C 
ATOM     15  C   UNL     1      34.774  -5.455 -25.178  0.00  0.00    +0.071 C 
ATOM     16  C   UNL     1      33.534  -4.913 -24.839  0.00  0.00    +0.004 C 
ATOM     17  C   UNL     1      35.340  -6.452 -24.384  0.00  0.00    +0.004 C 
BRANCH  15  21
ATOM     18  F   UNL     1      35.323  -5.785 -27.468  0.00  0.00    -0.166 F 
ATOM     19  F   UNL     1      35.092  -3.727 -26.803  0.00  0.00    -0.166 F 
ATOM     20  F   UNL     1      36.845  -4.863 -26.218  0.00  0.00    -0.166 F 
ATOM     21  C   UNL     1      35.494  -4.966 -26.389  0.00  0.00    +0.419 C 
ENDBRANCH  15  21
ENDBRANCH  11  12
ENDBRANCH   8  11
ENDBRANCH   3   9
BRANCH   5  22
ATOM     22  O   UNL     1      30.814 -10.470 -19.964  0.00  0.00    -0.471 OA
ATOM     23  C   UNL     1      31.391 -10.241 -18.680  0.00  0.00    +0.252 C 
ENDBRANCH   5  22
BRANCH   1  24
ATOM     24  C   UNL     1      33.872 -13.541 -23.608  0.00  0.00    +0.080 C 
BRANCH  24  29
ATOM     25  O   UNL     1      34.269 -15.667 -22.535  0.00  0.00    -0.428 OA
ATOM     26  O   UNL     1      33.507 -15.487 -25.938  0.00  0.00    -0.271 OA
ATOM     27  O   UNL     1      35.769 -17.390 -22.455  0.00  0.00    -0.226 OA
ATOM     28  N   UNL     1      34.795 -16.697 -24.431  0.00  0.00    -0.218 N 
ATOM     29  C   UNL     1      33.504 -15.009 -23.558  0.00  0.00    +0.250 C 
ATOM     30  C   UNL     1      33.906 -15.735 -24.811  0.00  0.00    +0.271 C 
ATOM     31  C   UNL     1      35.021 -16.663 -23.093  0.00  0.00    +0.408 C 
ATOM     32  H   UNL     1      35.219 -17.335 -25.049  0.00  0.00    +0.161 HD
ENDBRANCH  24  29
ENDBRANCH   1  24
TORSDOF 7
ENDMDL
MODEL 8
REMARK VINA RESULT:     -11.2      8.923     12.475
REMARK  Name = 56842109
REMARK  7 active torsions:
REMARK  status: ('A' for Active; 'I' for Inactive)
REMARK    1  A    between atoms: C_1  and  C_24
REMARK    2  A    between atoms: C_3  and  C_9
REMARK    3  A    between atoms: C_5  and  O_22
REMARK    4  A    between atoms: N_8  and  C_11
REMARK    5  A    between atoms: C_11  and  C_12
REMARK    6  A    between atoms: C_15  and  C_21
REMARK    7  A    between atoms: C_24  and  C_29
REMARK                            x       y       z     vdW  Elec       q    Type
REMARK                         _______ _______ _______ _____ _____    ______ ____
ROOT
ATOM      1  C   UNL     1      34.816 -16.173 -22.250  0.00  0.00    -0.018 C 
ATOM      2  C   UNL     1      34.084 -15.059 -21.839  0.00  0.00    +0.003 C 
ATOM      3  C   UNL     1      33.422 -14.273 -22.783  0.00  0.00    +0.087 C 
ATOM      4  C   UNL     1      34.884 -16.502 -23.603  0.00  0.00    -0.001 C 
ATOM      5  C   UNL     1      33.490 -14.601 -24.136  0.00  0.00    +0.143 C 
ATOM      6  C   UNL     1      34.222 -15.716 -24.547  0.00  0.00    +0.037 C 
ENDROOT
BRANCH   3   9
ATOM      7  O   UNL     1      31.873 -13.213 -21.377  0.00  0.00    -0.270 OA
ATOM      8  N   UNL     1      32.884 -11.909 -23.006  0.00  0.00    -0.297 N 
ATOM      9  C   UNL     1      32.662 -13.115 -22.332  0.00  0.00    +0.249 C 
ATOM     10  H   UNL     1      33.523 -11.905 -23.755  0.00  0.00    +0.150 HD
BRANCH   8  11
ATOM     11  C   UNL     1      32.225 -10.670 -22.662  0.00  0.00    +0.117 C 
BRANCH  11  12
ATOM     12  C   UNL     1      32.883  -9.485 -23.306  0.00  0.00    -0.003 C 
ATOM     13  C   UNL     1      32.109  -8.535 -23.972  0.00  0.00    -0.003 C 
ATOM     14  C   UNL     1      34.268  -9.333 -23.239  0.00  0.00    -0.003 C 
ATOM     15  C   UNL     1      34.104  -7.282 -24.504  0.00  0.00    +0.071 C 
ATOM     16  C   UNL     1      32.719  -7.433 -24.572  0.00  0.00    +0.004 C 
ATOM     17  C   UNL     1      34.879  -8.232 -23.838  0.00  0.00    +0.004 C 
BRANCH  15  21
ATOM     18  F   UNL     1      34.117  -4.931 -24.859  0.00  0.00    -0.166 F 
ATOM     19  F   UNL     1      36.053  -5.915 -24.749  0.00  0.00    -0.166 F 
ATOM     20  F   UNL     1      34.806  -6.174 -26.505  0.00  0.00    -0.166 F 
ATOM     21  C   UNL     1      34.757  -6.102 -25.142  0.00  0.00    +0.419 C 
ENDBRANCH  15  21
ENDBRANCH  11  12
ENDBRANCH   8  11
ENDBRANCH   3   9
BRANCH   5  22
ATOM     22  O   UNL     1      32.848 -13.847 -25.072  0.00  0.00    -0.471 OA
ATOM     23  C   UNL     1      33.406 -13.832 -26.385  0.00  0.00    +0.252 C 
ENDBRANCH   5  22
BRANCH   1  24
ATOM     24  C   UNL     1      35.531 -17.023 -21.229  0.00  0.00    +0.080 C 
BRANCH  24  29
ATOM     25  O   UNL     1      34.384 -19.138 -21.445  0.00  0.00    -0.428 OA
ATOM     26  O   UNL     1      37.790 -19.011 -20.687  0.00  0.00    -0.271 OA
ATOM     27  O   UNL     1      33.671 -20.931 -20.219  0.00  0.00    -0.226 OA
ATOM     28  N   UNL     1      35.876 -20.243 -20.227  0.00  0.00    -0.218 N 
ATOM     29  C   UNL     1      35.637 -18.469 -21.667  0.00  0.00    +0.250 C 
ATOM     30  C   UNL     1      36.599 -19.248 -20.816  0.00  0.00    +0.271 C 
ATOM     31  C   UNL     1      34.568 -20.185 -20.585  0.00  0.00    +0.408 C 
ATOM     32  H   UNL     1      36.255 -20.918 -19.619  0.00  0.00    +0.161 HD
ENDBRANCH  24  29
ENDBRANCH   1  24
TORSDOF 7
ENDMDL
MODEL 9
REMARK VINA RESULT:     -11.2      2.160      5.576
REMARK  Name = 56842109
REMARK  7 active torsions:
REMARK  status: ('A' for Active; 'I' for Inactive)
REMARK    1  A    between atoms: C_1  and  C_24
REMARK    2  A    between atoms: C_3  and  C_9
REMARK    3  A    between atoms: C_5  and  O_22
REMARK    4  A    between atoms: N_8  and  C_11
REMARK    5  A    between atoms: C_11  and  C_12
REMARK    6  A    between atoms: C_15  and  C_21
REMARK    7  A    between atoms: C_24  and  C_29
REMARK                            x       y       z     vdW  Elec       q    Type
REMARK                         _______ _______ _______ _____ _____    ______ ____
ROOT
ATOM      1  C   UNL     1      33.250 -24.261 -14.161  0.00  0.00    -0.018 C 
ATOM      2  C   UNL     1      34.285 -23.839 -14.996  0.00  0.00    +0.003 C 
ATOM      3  C   UNL     1      35.560 -23.622 -14.471  0.00  0.00    +0.087 C 
ATOM      4  C   UNL     1      33.490 -24.467 -12.803  0.00  0.00    -0.001 C 
ATOM      5  C   UNL     1      35.800 -23.828 -13.113  0.00  0.00    +0.143 C 
ATOM      6  C   UNL     1      34.765 -24.250 -12.279  0.00  0.00    +0.037 C 
ENDROOT
BRANCH   3   9
ATOM      7  O   UNL     1      37.808 -23.485 -15.121  0.00  0.00    -0.270 OA
ATOM      8  N   UNL     1      36.250 -22.442 -16.486  0.00  0.00    -0.297 N 
ATOM      9  C   UNL     1      36.627 -23.184 -15.361  0.00  0.00    +0.249 C 
ATOM     10  H   UNL     1      35.295 -22.240 -16.612  0.00  0.00    +0.150 HD
BRANCH   8  11
ATOM     11  C   UNL     1      37.188 -21.956 -17.471  0.00  0.00    +0.117 C 
BRANCH  11  12
ATOM     12  C   UNL     1      36.495 -21.360 -18.661  0.00  0.00    -0.003 C 
ATOM     13  C   UNL     1      37.143 -20.397 -19.436  0.00  0.00    -0.003 C 
ATOM     14  C   UNL     1      35.203 -21.768 -18.994  0.00  0.00    -0.003 C 
ATOM     15  C   UNL     1      35.209 -20.251 -20.874  0.00  0.00    +0.071 C 
ATOM     16  C   UNL     1      36.500 -19.842 -20.542  0.00  0.00    +0.004 C 
ATOM     17  C   UNL     1      34.560 -21.213 -20.100  0.00  0.00    +0.004 C 
BRANCH  15  21
ATOM     18  F   UNL     1      34.738 -18.317 -22.175  0.00  0.00    -0.166 F 
ATOM     19  F   UNL     1      34.922 -20.199 -23.249  0.00  0.00    -0.166 F 
ATOM     20  F   UNL     1      33.165 -19.812 -22.037  0.00  0.00    -0.166 F 
ATOM     21  C   UNL     1      34.522 -19.660 -22.059  0.00  0.00    +0.419 C 
ENDBRANCH  15  21
ENDBRANCH  11  12
ENDBRANCH   8  11
ENDBRANCH   3   9
BRANCH   5  22
ATOM     22  O   UNL     1      37.039 -23.625 -12.583  0.00  0.00    -0.471 OA
ATOM     23  C   UNL     1      37.097 -23.123 -11.249  0.00  0.00    +0.252 C 
ENDBRANCH   5  22
BRANCH   1  24
ATOM     24  C   UNL     1      31.872 -24.496 -14.729  0.00  0.00    +0.080 C 
BRANCH  24  29
ATOM     25  O   UNL     1      29.799 -23.294 -14.428  0.00  0.00    -0.428 OA
ATOM     26  O   UNL     1      31.753 -22.818 -17.282  0.00  0.00    -0.271 OA
ATOM     27  O   UNL     1      27.673 -23.140 -15.254  0.00  0.00    -0.226 OA
ATOM     28  N   UNL     1      29.536 -22.903 -16.599  0.00  0.00    -0.218 N 
ATOM     29  C   UNL     1      31.128 -23.199 -14.968  0.00  0.00    +0.250 C 
ATOM     30  C   UNL     1      30.888 -22.947 -16.430  0.00  0.00    +0.271 C 
ATOM     31  C   UNL     1      28.883 -23.112 -15.427  0.00  0.00    +0.408 C 
ATOM     32  H   UNL     1      29.089 -22.741 -17.461  0.00  0.00    +0.161 HD
ENDBRANCH  24  29
ENDBRANCH   1  24
TORSDOF 7
ENDMDL
