MODEL 1
REMARK VINA RESULT:     -12.5      0.000      0.000
REMARK  Name = 3822
REMARK  5 active torsions:
REMARK  status: ('A' for Active; 'I' for Inactive)
REMARK    1  A    between atoms: N_1  and  C_17
REMARK    2  A    between atoms: C_2  and  C_9
REMARK    3  A    between atoms: C_9  and  C_11
REMARK    4  A    between atoms: C_17  and  C_18
REMARK    5  A    between atoms: C_18  and  N_21
REMARK                            x       y       z     vdW  Elec       q    Type
REMARK                         _______ _______ _______ _____ _____    ______ ____
ROOT
ATOM      1  N   UNL     1      36.028 -20.560 -20.258  0.00  0.00    +0.388 N 
ATOM      2  C   UNL     1      35.838 -18.501 -22.343  0.00  0.00    +0.058 C 
ATOM      3  C   UNL     1      37.153 -18.843 -21.644  0.00  0.00    -0.015 C 
ATOM      4  C   UNL     1      34.821 -19.633 -22.208  0.00  0.00    -0.015 C 
ATOM      5  C   UNL     1      36.952 -19.419 -20.240  0.00  0.00    -0.077 C 
ATOM      6  C   UNL     1      34.713 -20.162 -20.775  0.00  0.00    -0.077 C 
ATOM      7  H   UNL     1      36.413 -21.271 -20.881  0.00  0.00    -0.080 HD
ENDROOT
BRANCH   2   9
ATOM      8  O   UNL     1      35.244 -16.982 -20.611  0.00  0.00    -0.291 OA
ATOM      9  C   UNL     1      35.260 -17.219 -21.816  0.00  0.00    +0.172 C 
BRANCH   9  11
ATOM     10  F   UNL     1      33.167 -13.504 -25.421  0.00  0.00    -0.204 F 
ATOM     11  C   UNL     1      34.702 -16.227 -22.779  0.00  0.00    +0.035 C 
ATOM     12  C   UNL     1      34.429 -16.635 -24.065  0.00  0.00    +0.005 C 
ATOM     13  C   UNL     1      34.478 -14.939 -22.345  0.00  0.00    +0.005 C 
ATOM     14  C   UNL     1      33.906 -15.707 -24.966  0.00  0.00    +0.030 C 
ATOM     15  C   UNL     1      33.955 -14.011 -23.245  0.00  0.00    +0.030 C 
ATOM     16  C   UNL     1      33.669 -14.394 -24.556  0.00  0.00    +0.140 C 
ENDBRANCH   9  11
ENDBRANCH   2   9
BRANCH   1  17
ATOM     17  C   UNL     1      35.898 -21.133 -18.917  0.00  0.00    -0.052 C 
BRANCH  17  18
ATOM     18  C   UNL     1      35.341 -22.547 -18.999  0.00  0.00    +0.091 C 
BRANCH  18  21
ATOM     19  O   UNL     1      35.823 -23.357 -16.391  0.00  0.00    -0.267 OA
ATOM     20  O   UNL     1      32.623 -22.142 -19.576  0.00  0.00    -0.246 OA
ATOM     21  N   UNL     1      34.285 -22.747 -18.044  0.00  0.00    -0.251 N 
ATOM     22  N   UNL     1      31.972 -22.726 -17.475  0.00  0.00    -0.306 N 
ATOM     23  C   UNL     1      34.661 -23.164 -16.743  0.00  0.00    +0.265 A 
ATOM     24  C   UNL     1      32.940 -22.513 -18.443  0.00  0.00    +0.330 A 
ATOM     25  C   UNL     1      33.567 -23.368 -15.773  0.00  0.00    +0.072 A 
ATOM     26  C   UNL     1      32.253 -23.141 -16.171  0.00  0.00    +0.065 A 
ATOM     27  C   UNL     1      33.841 -23.783 -14.466  0.00  0.00    +0.006 C 
ATOM     28  C   UNL     1      31.203 -23.329 -15.267  0.00  0.00    +0.017 C 
ATOM     29  C   UNL     1      32.793 -23.971 -13.564  0.00  0.00    +0.000 C 
ATOM     30  C   UNL     1      31.476 -23.744 -13.964  0.00  0.00    +0.001 C 
ATOM     31  H   UNL     1      31.030 -22.574 -17.721  0.00  0.00    +0.170 HD
ENDBRANCH  18  21
ENDBRANCH  17  18
ENDBRANCH   1  17
TORSDOF 5
ENDMDL
MODEL 2
REMARK VINA RESULT:     -12.4      0.703      2.029
REMARK  Name = 3822
REMARK  5 active torsions:
REMARK  status: ('A' for Active; 'I' for Inactive)
REMARK    1  A    between atoms: N_1  and  C_17
REMARK    2  A    between atoms: C_2  and  C_9
REMARK    3  A    between atoms: C_9  and  C_11
REMARK    4  A    between atoms: C_17  and  C_18
REMARK    5  A    between atoms: C_18  and  N_21
REMARK                            x       y       z     vdW  Elec       q    Type
REMARK                         _______ _______ _______ _____ _____    ______ ____
ROOT
ATOM      1  N   UNL     1      36.083 -20.632 -20.164  0.00  0.00    +0.388 N 
ATOM      2  C   UNL     1      35.851 -18.588 -22.260  0.00  0.00    +0.058 C 
ATOM      3  C   UNL     1      37.178 -18.916 -21.576  0.00  0.00    -0.015 C 
ATOM      4  C   UNL     1      34.845 -19.727 -22.105  0.00  0.00    -0.015 C 
ATOM      5  C   UNL     1      36.999 -19.484 -20.166  0.00  0.00    -0.077 C 
ATOM      6  C   UNL     1      34.760 -20.247 -20.667  0.00  0.00    -0.077 C 
ATOM      7  H   UNL     1      36.465 -21.344 -20.788  0.00  0.00    -0.080 HD
ENDROOT
BRANCH   2   9
ATOM      8  O   UNL     1      35.253 -17.071 -20.529  0.00  0.00    -0.291 OA
ATOM      9  C   UNL     1      35.271 -17.307 -21.734  0.00  0.00    +0.172 C 
BRANCH   9  11
ATOM     10  F   UNL     1      33.186 -13.594 -25.346  0.00  0.00    -0.204 F 
ATOM     11  C   UNL     1      34.714 -16.315 -22.698  0.00  0.00    +0.035 C 
ATOM     12  C   UNL     1      34.433 -15.044 -22.251  0.00  0.00    +0.005 C 
ATOM     13  C   UNL     1      34.503 -16.708 -24.001  0.00  0.00    +0.005 C 
ATOM     14  C   UNL     1      33.912 -14.116 -23.153  0.00  0.00    +0.030 C 
ATOM     15  C   UNL     1      33.982 -15.780 -24.904  0.00  0.00    +0.030 C 
ATOM     16  C   UNL     1      33.686 -14.485 -24.480  0.00  0.00    +0.140 C 
ENDBRANCH   9  11
ENDBRANCH   2   9
BRANCH   1  17
ATOM     17  C   UNL     1      35.975 -21.198 -18.819  0.00  0.00    -0.052 C 
BRANCH  17  18
ATOM     18  C   UNL     1      35.259 -22.539 -18.866  0.00  0.00    +0.091 C 
BRANCH  18  21
ATOM     19  O   UNL     1      32.493 -22.615 -18.696  0.00  0.00    -0.267 OA
ATOM     20  O   UNL     1      36.558 -23.042 -16.427  0.00  0.00    -0.246 OA
ATOM     21  N   UNL     1      34.567 -22.804 -17.634  0.00  0.00    -0.251 N 
ATOM     22  N   UNL     1      34.596 -23.292 -15.301  0.00  0.00    -0.306 N 
ATOM     23  C   UNL     1      33.151 -22.814 -17.677  0.00  0.00    +0.265 A 
ATOM     24  C   UNL     1      35.324 -23.045 -16.454  0.00  0.00    +0.330 A 
ATOM     25  C   UNL     1      32.452 -23.085 -16.405  0.00  0.00    +0.072 A 
ATOM     26  C   UNL     1      33.200 -23.316 -15.254  0.00  0.00    +0.065 A 
ATOM     27  C   UNL     1      31.056 -23.110 -16.350  0.00  0.00    +0.006 C 
ATOM     28  C   UNL     1      32.557 -23.573 -14.040  0.00  0.00    +0.017 C 
ATOM     29  C   UNL     1      30.414 -23.367 -15.136  0.00  0.00    +0.000 C 
ATOM     30  C   UNL     1      31.164 -23.599 -13.984  0.00  0.00    +0.001 C 
ATOM     31  H   UNL     1      35.092 -23.462 -14.468  0.00  0.00    +0.170 HD
ENDBRANCH  18  21
ENDBRANCH  17  18
ENDBRANCH   1  17
TORSDOF 5
ENDMDL
MODEL 3
REMARK VINA RESULT:     -11.5      6.048      9.527
REMARK  Name = 3822
REMARK  5 active torsions:
REMARK  status: ('A' for Active; 'I' for Inactive)
REMARK    1  A    between atoms: N_1  and  C_17
REMARK    2  A    between atoms: C_2  and  C_9
REMARK    3  A    between atoms: C_9  and  C_11
REMARK    4  A    between atoms: C_17  and  C_18
REMARK    5  A    between atoms: C_18  and  N_21
REMARK                            x       y       z     vdW  Elec       q    Type
REMARK                         _______ _______ _______ _____ _____    ______ ____
ROOT
ATOM      1  N   UNL     1      32.110 -11.992 -21.916  0.00  0.00    +0.388 N 
ATOM      2  C   UNL     1      31.530  -9.113 -21.940  0.00  0.00    +0.058 C 
ATOM      3  C   UNL     1      31.871  -9.892 -23.210  0.00  0.00    -0.015 C 
ATOM      4  C   UNL     1      31.050 -10.041 -20.825  0.00  0.00    -0.015 C 
ATOM      5  C   UNL     1      32.724 -11.134 -22.937  0.00  0.00    -0.077 C 
ATOM      6  C   UNL     1      31.950 -11.267 -20.649  0.00  0.00    -0.077 C 
ATOM      7  H   UNL     1      31.183 -12.263 -22.245  0.00  0.00    -0.080 HD
ENDROOT
BRANCH   2   9
ATOM      8  O   UNL     1      33.019  -8.277 -20.285  0.00  0.00    -0.291 OA
ATOM      9  C   UNL     1      32.701  -8.299 -21.471  0.00  0.00    +0.172 C 
BRANCH   9  11
ATOM     10  F   UNL     1      35.627  -5.352 -25.203  0.00  0.00    -0.204 F 
ATOM     11  C   UNL     1      33.482  -7.512 -22.468  0.00  0.00    +0.035 C 
ATOM     12  C   UNL     1      32.880  -6.435 -23.079  0.00  0.00    +0.005 C 
ATOM     13  C   UNL     1      34.778  -7.891 -22.739  0.00  0.00    +0.005 C 
ATOM     14  C   UNL     1      33.610  -5.699 -24.011  0.00  0.00    +0.030 C 
ATOM     15  C   UNL     1      35.509  -7.155 -23.672  0.00  0.00    +0.030 C 
ATOM     16  C   UNL     1      34.925  -6.059 -24.308  0.00  0.00    +0.140 C 
ENDBRANCH   9  11
ENDBRANCH   2   9
BRANCH   1  17
ATOM     17  C   UNL     1      32.909 -13.201 -21.715  0.00  0.00    -0.052 C 
BRANCH  17  18
ATOM     18  C   UNL     1      33.912 -13.365 -22.847  0.00  0.00    +0.091 C 
BRANCH  18  21
ATOM     19  O   UNL     1      34.977 -15.268 -21.136  0.00  0.00    -0.267 OA
ATOM     20  O   UNL     1      33.134 -14.393 -25.342  0.00  0.00    -0.246 OA
ATOM     21  N   UNL     1      34.055 -14.746 -23.220  0.00  0.00    -0.251 N 
ATOM     22  N   UNL     1      33.796 -16.504 -24.807  0.00  0.00    -0.306 N 
ATOM     23  C   UNL     1      34.616 -15.621 -22.256  0.00  0.00    +0.265 A 
ATOM     24  C   UNL     1      33.629 -15.161 -24.512  0.00  0.00    +0.330 A 
ATOM     25  C   UNL     1      34.760 -17.035 -22.652  0.00  0.00    +0.072 A 
ATOM     26  C   UNL     1      34.344 -17.433 -23.919  0.00  0.00    +0.065 A 
ATOM     27  C   UNL     1      35.307 -17.971 -21.769  0.00  0.00    +0.006 C 
ATOM     28  C   UNL     1      34.473 -18.768 -24.313  0.00  0.00    +0.017 C 
ATOM     29  C   UNL     1      35.435 -19.304 -22.162  0.00  0.00    +0.000 C 
ATOM     30  C   UNL     1      35.018 -19.702 -23.432  0.00  0.00    +0.001 C 
ATOM     31  H   UNL     1      33.512 -16.822 -25.694  0.00  0.00    +0.170 HD
ENDBRANCH  18  21
ENDBRANCH  17  18
ENDBRANCH   1  17
TORSDOF 5
ENDMDL
MODEL 4
REMARK VINA RESULT:     -11.3      4.219      9.481
REMARK  Name = 3822
REMARK  5 active torsions:
REMARK  status: ('A' for Active; 'I' for Inactive)
REMARK    1  A    between atoms: N_1  and  C_17
REMARK    2  A    between atoms: C_2  and  C_9
REMARK    3  A    between atoms: C_9  and  C_11
REMARK    4  A    between atoms: C_17  and  C_18
REMARK    5  A    between atoms: C_18  and  N_21
REMARK                            x       y       z     vdW  Elec       q    Type
REMARK                         _______ _______ _______ _____ _____    ______ ____
ROOT
ATOM      1  N   UNL     1      34.967 -17.611 -23.299  0.00  0.00    +0.388 N 
ATOM      2  C   UNL     1      35.489 -20.087 -21.809  0.00  0.00    +0.058 C 
ATOM      3  C   UNL     1      34.984 -20.088 -23.251  0.00  0.00    -0.015 C 
ATOM      4  C   UNL     1      36.138 -18.753 -21.443  0.00  0.00    -0.015 C 
ATOM      5  C   UNL     1      34.198 -18.823 -23.609  0.00  0.00    -0.077 C 
ATOM      6  C   UNL     1      35.293 -17.549 -21.869  0.00  0.00    -0.077 C 
ATOM      7  H   UNL     1      35.842 -17.646 -23.823  0.00  0.00    -0.080 HD
ENDROOT
BRANCH   2   9
ATOM      8  O   UNL     1      33.239 -20.005 -21.041  0.00  0.00    -0.291 OA
ATOM      9  C   UNL     1      34.383 -20.408 -20.845  0.00  0.00    +0.172 C 
BRANCH   9  11
ATOM     10  F   UNL     1      35.529 -23.475 -16.322  0.00  0.00    -0.204 F 
ATOM     11  C   UNL     1      34.690 -21.227 -19.638  0.00  0.00    +0.035 C 
ATOM     12  C   UNL     1      35.981 -21.245 -19.161  0.00  0.00    +0.005 C 
ATOM     13  C   UNL     1      33.668 -21.934 -19.043  0.00  0.00    +0.005 C 
ATOM     14  C   UNL     1      36.267 -22.011 -18.031  0.00  0.00    +0.030 C 
ATOM     15  C   UNL     1      33.954 -22.701 -17.913  0.00  0.00    +0.030 C 
ATOM     16  C   UNL     1      35.253 -22.740 -17.407  0.00  0.00    +0.140 C 
ENDBRANCH   9  11
ENDBRANCH   2   9
BRANCH   1  17
ATOM     17  C   UNL     1      34.225 -16.417 -23.705  0.00  0.00    -0.052 C 
BRANCH  17  18
ATOM     18  C   UNL     1      34.962 -15.161 -23.265  0.00  0.00    +0.091 C 
BRANCH  18  21
ATOM     19  O   UNL     1      34.185 -14.577 -20.669  0.00  0.00    -0.267 OA
ATOM     20  O   UNL     1      33.805 -13.484 -25.198  0.00  0.00    -0.246 OA
ATOM     21  N   UNL     1      34.043 -14.100 -22.953  0.00  0.00    -0.251 N 
ATOM     22  N   UNL     1      32.634 -12.306 -23.642  0.00  0.00    -0.306 N 
ATOM     23  C   UNL     1      33.723 -13.903 -21.587  0.00  0.00    +0.265 A 
ATOM     24  C   UNL     1      33.515 -13.310 -24.012  0.00  0.00    +0.330 A 
ATOM     25  C   UNL     1      32.777 -12.812 -21.280  0.00  0.00    +0.072 A 
ATOM     26  C   UNL     1      32.261 -12.046 -22.321  0.00  0.00    +0.065 A 
ATOM     27  C   UNL     1      32.399 -12.546 -19.961  0.00  0.00    +0.006 C 
ATOM     28  C   UNL     1      31.363 -11.009 -22.051  0.00  0.00    +0.017 C 
ATOM     29  C   UNL     1      31.502 -11.510 -19.692  0.00  0.00    +0.000 C 
ATOM     30  C   UNL     1      30.986 -10.743 -20.736  0.00  0.00    +0.001 C 
ATOM     31  H   UNL     1      32.251 -11.742 -24.352  0.00  0.00    +0.170 HD
ENDBRANCH  18  21
ENDBRANCH  17  18
ENDBRANCH   1  17
TORSDOF 5
ENDMDL
MODEL 5
REMARK VINA RESULT:     -11.1      6.159     10.084
REMARK  Name = 3822
REMARK  5 active torsions:
REMARK  status: ('A' for Active; 'I' for Inactive)
REMARK    1  A    between atoms: N_1  and  C_17
REMARK    2  A    between atoms: C_2  and  C_9
REMARK    3  A    between atoms: C_9  and  C_11
REMARK    4  A    between atoms: C_17  and  C_18
REMARK    5  A    between atoms: C_18  and  N_21
REMARK                            x       y       z     vdW  Elec       q    Type
REMARK                         _______ _______ _______ _____ _____    ______ ____
ROOT
ATOM      1  N   UNL     1      32.667 -11.713 -22.408  0.00  0.00    +0.388 N 
ATOM      2  C   UNL     1      32.220  -8.908 -21.661  0.00  0.00    +0.058 C 
ATOM      3  C   UNL     1      31.562 -10.071 -20.918  0.00  0.00    -0.015 C 
ATOM      4  C   UNL     1      33.451  -9.367 -22.441  0.00  0.00    -0.015 C 
ATOM      5  C   UNL     1      31.395 -11.319 -21.789  0.00  0.00    -0.077 C 
ATOM      6  C   UNL     1      33.193 -10.638 -23.256  0.00  0.00    -0.077 C 
ATOM      7  H   UNL     1      33.342 -11.888 -21.662  0.00  0.00    -0.080 HD
ENDROOT
BRANCH   2   9
ATOM      8  O   UNL     1      30.388  -8.876 -23.178  0.00  0.00    -0.291 OA
ATOM      9  C   UNL     1      31.245  -8.231 -22.580  0.00  0.00    +0.172 C 
BRANCH   9  11
ATOM     10  F   UNL     1      31.560  -2.697 -23.261  0.00  0.00    -0.204 F 
ATOM     11  C   UNL     1      31.328  -6.753 -22.762  0.00  0.00    +0.035 C 
ATOM     12  C   UNL     1      31.276  -5.946 -21.648  0.00  0.00    +0.005 C 
ATOM     13  C   UNL     1      31.457  -6.251 -24.038  0.00  0.00    +0.005 C 
ATOM     14  C   UNL     1      31.355  -4.564 -21.818  0.00  0.00    +0.030 C 
ATOM     15  C   UNL     1      31.536  -4.869 -24.208  0.00  0.00    +0.030 C 
ATOM     16  C   UNL     1      31.484  -4.025 -23.099  0.00  0.00    +0.140 C 
ENDBRANCH   9  11
ENDBRANCH   2   9
BRANCH   1  17
ATOM     17  C   UNL     1      32.498 -12.942 -23.185  0.00  0.00    -0.052 C 
BRANCH  17  18
ATOM     18  C   UNL     1      33.801 -13.312 -23.878  0.00  0.00    +0.091 C 
BRANCH  18  21
ATOM     19  O   UNL     1      34.745 -14.474 -21.544  0.00  0.00    -0.267 OA
ATOM     20  O   UNL     1      33.404 -15.140 -25.973  0.00  0.00    -0.246 OA
ATOM     21  N   UNL     1      34.067 -14.720 -23.768  0.00  0.00    -0.251 N 
ATOM     22  N   UNL     1      34.109 -16.904 -24.720  0.00  0.00    -0.306 N 
ATOM     23  C   UNL     1      34.549 -15.192 -22.522  0.00  0.00    +0.265 A 
ATOM     24  C   UNL     1      33.831 -15.558 -24.893  0.00  0.00    +0.330 A 
ATOM     25  C   UNL     1      34.820 -16.640 -22.423  0.00  0.00    +0.072 A 
ATOM     26  C   UNL     1      34.591 -17.452 -23.529  0.00  0.00    +0.065 A 
ATOM     27  C   UNL     1      35.302 -17.195 -21.234  0.00  0.00    +0.006 C 
ATOM     28  C   UNL     1      34.842 -18.825 -23.455  0.00  0.00    +0.017 C 
ATOM     29  C   UNL     1      35.553 -18.567 -21.160  0.00  0.00    +0.000 C 
ATOM     30  C   UNL     1      35.322 -19.380 -22.269  0.00  0.00    +0.001 C 
ATOM     31  H   UNL     1      33.957 -17.510 -25.482  0.00  0.00    +0.170 HD
ENDBRANCH  18  21
ENDBRANCH  17  18
ENDBRANCH   1  17
TORSDOF 5
ENDMDL
MODEL 6
REMARK VINA RESULT:     -11.0      3.974      9.081
REMARK  Name = 3822
REMARK  5 active torsions:
REMARK  status: ('A' for Active; 'I' for Inactive)
REMARK    1  A    between atoms: N_1  and  C_17
REMARK    2  A    between atoms: C_2  and  C_9
REMARK    3  A    between atoms: C_9  and  C_11
REMARK    4  A    between atoms: C_17  and  C_18
REMARK    5  A    between atoms: C_18  and  N_21
REMARK                            x       y       z     vdW  Elec       q    Type
REMARK                         _______ _______ _______ _____ _____    ______ ____
ROOT
ATOM      1  N   UNL     1      33.227 -23.471 -13.981  0.00  0.00    +0.388 N 
ATOM      2  C   UNL     1      30.625 -24.638 -13.282  0.00  0.00    +0.058 C 
ATOM      3  C   UNL     1      31.944 -25.369 -13.037  0.00  0.00    -0.015 C 
ATOM      4  C   UNL     1      30.838 -23.133 -13.437  0.00  0.00    -0.015 C 
ATOM      5  C   UNL     1      33.057 -24.930 -13.993  0.00  0.00    -0.077 C 
ATOM      6  C   UNL     1      31.990 -22.795 -14.388  0.00  0.00    -0.077 C 
ATOM      7  H   UNL     1      33.446 -23.185 -13.027  0.00  0.00    -0.080 HD
ENDROOT
BRANCH   2   9
ATOM      8  O   UNL     1      30.095 -26.349 -14.847  0.00  0.00    -0.291 OA
ATOM      9  C   UNL     1      29.914 -25.189 -14.484  0.00  0.00    +0.172 C 
BRANCH   9  11
ATOM     10  F   UNL     1      26.411 -21.887 -17.314  0.00  0.00    -0.204 F 
ATOM     11  C   UNL     1      28.978 -24.308 -15.239  0.00  0.00    +0.035 C 
ATOM     12  C   UNL     1      28.473 -23.190 -14.614  0.00  0.00    +0.005 C 
ATOM     13  C   UNL     1      28.656 -24.643 -16.536  0.00  0.00    +0.005 C 
ATOM     14  C   UNL     1      27.598 -22.365 -15.321  0.00  0.00    +0.030 C 
ATOM     15  C   UNL     1      27.781 -23.818 -17.243  0.00  0.00    +0.030 C 
ATOM     16  C   UNL     1      27.251 -22.679 -16.635  0.00  0.00    +0.140 C 
ENDBRANCH   9  11
ENDBRANCH   2   9
BRANCH   1  17
ATOM     17  C   UNL     1      34.335 -23.079 -14.854  0.00  0.00    -0.052 C 
BRANCH  17  18
ATOM     18  C   UNL     1      34.292 -23.873 -16.151  0.00  0.00    +0.091 C 
BRANCH  18  21
ATOM     19  O   UNL     1      36.462 -22.654 -17.372  0.00  0.00    -0.267 OA
ATOM     20  O   UNL     1      31.827 -23.268 -17.354  0.00  0.00    -0.246 OA
ATOM     21  N   UNL     1      34.152 -23.006 -17.288  0.00  0.00    -0.251 N 
ATOM     22  N   UNL     1      32.790 -21.919 -18.914  0.00  0.00    -0.306 N 
ATOM     23  C   UNL     1      35.338 -22.441 -17.821  0.00  0.00    +0.265 A 
ATOM     24  C   UNL     1      32.854 -22.766 -17.819  0.00  0.00    +0.330 A 
ATOM     25  C   UNL     1      35.180 -21.551 -18.988  0.00  0.00    +0.072 A 
ATOM     26  C   UNL     1      33.907 -21.317 -19.499  0.00  0.00    +0.065 A 
ATOM     27  C   UNL     1      36.293 -20.946 -19.578  0.00  0.00    +0.006 C 
ATOM     28  C   UNL     1      33.737 -20.477 -20.603  0.00  0.00    +0.017 C 
ATOM     29  C   UNL     1      36.124 -20.106 -20.680  0.00  0.00    +0.000 C 
ATOM     30  C   UNL     1      34.847 -19.873 -21.192  0.00  0.00    +0.001 C 
ATOM     31  H   UNL     1      31.905 -21.733 -19.304  0.00  0.00    +0.170 HD
ENDBRANCH  18  21
ENDBRANCH  17  18
ENDBRANCH   1  17
TORSDOF 5
ENDMDL
MODEL 7
REMARK VINA RESULT:     -10.9      6.307     10.245
REMARK  Name = 3822
REMARK  5 active torsions:
REMARK  status: ('A' for Active; 'I' for Inactive)
REMARK    1  A    between atoms: N_1  and  C_17
REMARK    2  A    between atoms: C_2  and  C_9
REMARK    3  A    between atoms: C_9  and  C_11
REMARK    4  A    between atoms: C_17  and  C_18
REMARK    5  A    between atoms: C_18  and  N_21
REMARK                            x       y       z     vdW  Elec       q    Type
REMARK                         _______ _______ _______ _____ _____    ______ ____
ROOT
ATOM      1  N   UNL     1      32.643 -11.713 -22.578  0.00  0.00    +0.388 N 
ATOM      2  C   UNL     1      32.344  -8.906 -21.768  0.00  0.00    +0.058 C 
ATOM      3  C   UNL     1      31.719 -10.058 -20.982  0.00  0.00    -0.015 C 
ATOM      4  C   UNL     1      33.489  -9.390 -22.657  0.00  0.00    -0.015 C 
ATOM      5  C   UNL     1      31.441 -11.290 -21.847  0.00  0.00    -0.077 C 
ATOM      6  C   UNL     1      33.125 -10.643 -23.458  0.00  0.00    -0.077 C 
ATOM      7  H   UNL     1      33.374 -11.916 -21.895  0.00  0.00    -0.080 HD
ENDROOT
BRANCH   2   9
ATOM      8  O   UNL     1      30.403  -8.806 -23.139  0.00  0.00    -0.291 OA
ATOM      9  C   UNL     1      31.314  -8.189 -22.593  0.00  0.00    +0.172 C 
BRANCH   9  11
ATOM     10  F   UNL     1      31.672  -2.645 -23.157  0.00  0.00    -0.204 F 
ATOM     11  C   UNL     1      31.409  -6.709 -22.743  0.00  0.00    +0.035 C 
ATOM     12  C   UNL     1      31.435  -5.929 -21.609  0.00  0.00    +0.005 C 
ATOM     13  C   UNL     1      31.470  -6.177 -24.012  0.00  0.00    +0.005 C 
ATOM     14  C   UNL     1      31.524  -4.544 -21.750  0.00  0.00    +0.030 C 
ATOM     15  C   UNL     1      31.559  -4.792 -24.153  0.00  0.00    +0.030 C 
ATOM     16  C   UNL     1      31.586  -3.975 -23.022  0.00  0.00    +0.140 C 
ENDBRANCH   9  11
ENDBRANCH   2   9
BRANCH   1  17
ATOM     17  C   UNL     1      32.371 -12.926 -23.349  0.00  0.00    -0.052 C 
BRANCH  17  18
ATOM     18  C   UNL     1      33.640 -13.412 -24.034  0.00  0.00    +0.091 C 
BRANCH  18  21
ATOM     19  O   UNL     1      33.441 -15.738 -25.529  0.00  0.00    -0.267 OA
ATOM     20  O   UNL     1      34.719 -13.802 -21.470  0.00  0.00    -0.246 OA
ATOM     21  N   UNL     1      34.047 -14.694 -23.526  0.00  0.00    -0.251 N 
ATOM     22  N   UNL     1      34.952 -16.044 -21.784  0.00  0.00    -0.306 N 
ATOM     23  C   UNL     1      33.893 -15.809 -24.388  0.00  0.00    +0.265 A 
ATOM     24  C   UNL     1      34.581 -14.779 -22.211  0.00  0.00    +0.330 A 
ATOM     25  C   UNL     1      34.313 -17.120 -23.855  0.00  0.00    +0.072 A 
ATOM     26  C   UNL     1      34.830 -17.196 -22.565  0.00  0.00    +0.065 A 
ATOM     27  C   UNL     1      34.194 -18.276 -24.631  0.00  0.00    +0.006 C 
ATOM     28  C   UNL     1      35.233 -18.428 -22.042  0.00  0.00    +0.017 C 
ATOM     29  C   UNL     1      34.596 -19.507 -24.108  0.00  0.00    +0.000 C 
ATOM     30  C   UNL     1      35.115 -19.582 -22.816  0.00  0.00    +0.001 C 
ATOM     31  H   UNL     1      35.324 -16.136 -20.877  0.00  0.00    +0.170 HD
ENDBRANCH  18  21
ENDBRANCH  17  18
ENDBRANCH   1  17
TORSDOF 5
ENDMDL
MODEL 8
REMARK VINA RESULT:     -10.7      3.974      9.177
REMARK  Name = 3822
REMARK  5 active torsions:
REMARK  status: ('A' for Active; 'I' for Inactive)
REMARK    1  A    between atoms: N_1  and  C_17
REMARK    2  A    between atoms: C_2  and  C_9
REMARK    3  A    between atoms: C_9  and  C_11
REMARK    4  A    between atoms: C_17  and  C_18
REMARK    5  A    between atoms: C_18  and  N_21
REMARK                            x       y       z     vdW  Elec       q    Type
REMARK                         _______ _______ _______ _____ _____    ______ ____
ROOT
ATOM      1  N   UNL     1      33.253 -23.522 -13.935  0.00  0.00    +0.388 N 
ATOM      2  C   UNL     1      30.573 -24.537 -13.293  0.00  0.00    +0.058 C 
ATOM      3  C   UNL     1      31.847 -25.307 -12.946  0.00  0.00    -0.015 C 
ATOM      4  C   UNL     1      30.860 -23.054 -13.521  0.00  0.00    -0.015 C 
ATOM      5  C   UNL     1      33.019 -24.971 -13.873  0.00  0.00    -0.077 C 
ATOM      6  C   UNL     1      32.066 -22.820 -14.435  0.00  0.00    -0.077 C 
ATOM      7  H   UNL     1      33.443 -23.191 -12.988  0.00  0.00    -0.080 HD
ENDROOT
BRANCH   2   9
ATOM      8  O   UNL     1      30.106 -26.286 -14.835  0.00  0.00    -0.291 OA
ATOM      9  C   UNL     1      29.892 -25.126 -14.494  0.00  0.00    +0.172 C 
BRANCH   9  11
ATOM     10  F   UNL     1      26.340 -21.961 -17.417  0.00  0.00    -0.204 F 
ATOM     11  C   UNL     1      28.944 -24.281 -15.275  0.00  0.00    +0.035 C 
ATOM     12  C   UNL     1      28.611 -24.669 -16.553  0.00  0.00    +0.005 C 
ATOM     13  C   UNL     1      28.435 -23.144 -14.687  0.00  0.00    +0.005 C 
ATOM     14  C   UNL     1      27.723 -23.878 -17.283  0.00  0.00    +0.030 C 
ATOM     15  C   UNL     1      27.548 -22.353 -15.418  0.00  0.00    +0.030 C 
ATOM     16  C   UNL     1      27.192 -22.720 -16.716  0.00  0.00    +0.140 C 
ENDBRANCH   9  11
ENDBRANCH   2   9
BRANCH   1  17
ATOM     17  C   UNL     1      34.414 -23.228 -14.776  0.00  0.00    -0.052 C 
BRANCH  17  18
ATOM     18  C   UNL     1      34.249 -23.868 -16.146  0.00  0.00    +0.091 C 
BRANCH  18  21
ATOM     19  O   UNL     1      32.474 -22.804 -17.991  0.00  0.00    -0.267 OA
ATOM     20  O   UNL     1      36.902 -23.020 -16.507  0.00  0.00    -0.246 OA
ATOM     21  N   UNL     1      34.665 -22.973 -17.192  0.00  0.00    -0.251 N 
ATOM     22  N   UNL     1      36.369 -21.745 -18.316  0.00  0.00    -0.306 N 
ATOM     23  C   UNL     1      33.662 -22.499 -18.074  0.00  0.00    +0.265 A 
ATOM     24  C   UNL     1      36.036 -22.609 -17.285  0.00  0.00    +0.330 A 
ATOM     25  C   UNL     1      34.102 -21.583 -19.144  0.00  0.00    +0.072 A 
ATOM     26  C   UNL     1      35.446 -21.234 -19.232  0.00  0.00    +0.065 A 
ATOM     27  C   UNL     1      33.183 -21.068 -20.064  0.00  0.00    +0.006 C 
ATOM     28  C   UNL     1      35.882 -20.369 -20.239  0.00  0.00    +0.017 C 
ATOM     29  C   UNL     1      33.620 -20.204 -21.070  0.00  0.00    +0.000 C 
ATOM     30  C   UNL     1      34.967 -19.854 -21.156  0.00  0.00    +0.001 C 
ATOM     31  H   UNL     1      37.312 -21.475 -18.407  0.00  0.00    +0.170 HD
ENDBRANCH  18  21
ENDBRANCH  17  18
ENDBRANCH   1  17
TORSDOF 5
ENDMDL
MODEL 9
REMARK VINA RESULT:     -10.6      4.759     10.152
REMARK  Name = 3822
REMARK  5 active torsions:
REMARK  status: ('A' for Active; 'I' for Inactive)
REMARK    1  A    between atoms: N_1  and  C_17
REMARK    2  A    between atoms: C_2  and  C_9
REMARK    3  A    between atoms: C_9  and  C_11
REMARK    4  A    between atoms: C_17  and  C_18
REMARK    5  A    between atoms: C_18  and  N_21
REMARK                            x       y       z     vdW  Elec       q    Type
REMARK                         _______ _______ _______ _____ _____    ______ ____
ROOT
ATOM      1  N   UNL     1      34.411 -23.328 -13.825  0.00  0.00    +0.388 N 
ATOM      2  C   UNL     1      36.330 -23.976 -11.697  0.00  0.00    +0.058 C 
ATOM      3  C   UNL     1      36.710 -23.141 -12.920  0.00  0.00    -0.015 C 
ATOM      4  C   UNL     1      34.818 -23.987 -11.475  0.00  0.00    -0.015 C 
ATOM      5  C   UNL     1      35.840 -23.443 -14.143  0.00  0.00    -0.077 C 
ATOM      6  C   UNL     1      34.034 -24.266 -12.761  0.00  0.00    -0.077 C 
ATOM      7  H   UNL     1      34.236 -22.380 -13.489  0.00  0.00    -0.080 HD
ENDROOT
BRANCH   2   9
ATOM      8  O   UNL     1      36.407 -26.277 -11.101  0.00  0.00    -0.291 OA
ATOM      9  C   UNL     1      36.848 -25.380 -11.816  0.00  0.00    +0.172 C 
BRANCH   9  11
ATOM     10  F   UNL     1      40.827 -26.498 -15.570  0.00  0.00    -0.204 F 
ATOM     11  C   UNL     1      37.910 -25.678 -12.818  0.00  0.00    +0.035 C 
ATOM     12  C   UNL     1      39.141 -25.077 -12.676  0.00  0.00    +0.005 C 
ATOM     13  C   UNL     1      37.621 -26.545 -13.849  0.00  0.00    +0.005 C 
ATOM     14  C   UNL     1      40.135 -25.356 -13.614  0.00  0.00    +0.030 C 
ATOM     15  C   UNL     1      38.615 -26.824 -14.787  0.00  0.00    +0.030 C 
ATOM     16  C   UNL     1      39.872 -26.230 -14.670  0.00  0.00    +0.140 C 
ENDBRANCH   9  11
ENDBRANCH   2   9
BRANCH   1  17
ATOM     17  C   UNL     1      33.600 -23.559 -15.021  0.00  0.00    -0.052 C 
BRANCH  17  18
ATOM     18  C   UNL     1      34.493 -23.889 -16.208  0.00  0.00    +0.091 C 
BRANCH  18  21
ATOM     19  O   UNL     1      36.492 -22.555 -17.590  0.00  0.00    -0.267 OA
ATOM     20  O   UNL     1      31.911 -23.402 -17.201  0.00  0.00    -0.246 OA
ATOM     21  N   UNL     1      34.217 -23.023 -17.322  0.00  0.00    -0.251 N 
ATOM     22  N   UNL     1      32.675 -21.999 -18.822  0.00  0.00    -0.306 N 
ATOM     23  C   UNL     1      35.326 -22.397 -17.944  0.00  0.00    +0.265 A 
ATOM     24  C   UNL     1      32.870 -22.847 -17.744  0.00  0.00    +0.330 A 
ATOM     25  C   UNL     1      35.030 -21.510 -19.086  0.00  0.00    +0.072 A 
ATOM     26  C   UNL     1      33.709 -21.338 -19.490  0.00  0.00    +0.065 A 
ATOM     27  C   UNL     1      36.060 -20.846 -19.759  0.00  0.00    +0.006 C 
ATOM     28  C   UNL     1      33.408 -20.502 -20.568  0.00  0.00    +0.017 C 
ATOM     29  C   UNL     1      35.759 -20.010 -20.836  0.00  0.00    +0.000 C 
ATOM     30  C   UNL     1      34.435 -19.839 -21.240  0.00  0.00    +0.001 C 
ATOM     31  H   UNL     1      31.753 -21.855 -19.137  0.00  0.00    +0.170 HD
ENDBRANCH  18  21
ENDBRANCH  17  18
ENDBRANCH   1  17
TORSDOF 5
ENDMDL
