MODEL 1
REMARK VINA RESULT:     -12.5      0.000      0.000
REMARK  Name = 6419766
REMARK  1 active torsions:
REMARK  status: ('A' for Active; 'I' for Inactive)
REMARK    1  A    between atoms: C_9  and  C_20
REMARK                            x       y       z     vdW  Elec       q    Type
REMARK                         _______ _______ _______ _____ _____    ______ ____
ROOT
ATOM      1  N   UNL     1      34.224 -24.303 -14.252  0.00  0.00    -0.274 N 
ATOM      2  N   UNL     1      33.952 -23.195 -16.311  0.00  0.00    -0.328 NA
ATOM      3  N   UNL     1      31.760 -22.882 -17.258  0.00  0.00    -0.343 NA
ATOM      4  N   UNL     1      37.444 -25.315 -14.841  0.00  0.00    -0.239 N 
ATOM      5  N   UNL     1      36.296 -24.829 -15.342  0.00  0.00    -0.166 NA
ATOM      6  C   UNL     1      31.993 -24.015 -15.158  0.00  0.00    +0.143 C 
ATOM      7  C   UNL     1      33.366 -23.822 -15.274  0.00  0.00    +0.185 C 
ATOM      8  C   UNL     1      31.206 -23.513 -16.208  0.00  0.00    +0.133 C 
ATOM      9  C   UNL     1      33.102 -22.758 -17.254  0.00  0.00    +0.138 C 
ATOM     10  C   UNL     1      35.551 -24.761 -14.267  0.00  0.00    +0.152 C 
ATOM     11  C   UNL     1      31.404 -24.673 -14.064  0.00  0.00    -0.011 C 
ATOM     12  C   UNL     1      29.828 -23.688 -16.127  0.00  0.00    +0.029 C 
ATOM     13  C   UNL     1      36.147 -25.177 -13.089  0.00  0.00    +0.048 C 
ATOM     14  C   UNL     1      37.407 -25.542 -13.496  0.00  0.00    +0.046 C 
ATOM     15  C   UNL     1      30.024 -24.834 -14.010  0.00  0.00    -0.004 C 
ATOM     16  C   UNL     1      29.234 -24.341 -15.043  0.00  0.00    +0.002 C 
ATOM     17  C   UNL     1      38.564 -26.074 -12.758  0.00  0.00    +0.049 C 
ATOM     18  H   UNL     1      33.809 -24.317 -13.360  0.00  0.00    +0.156 HD
ATOM     19  H   UNL     1      38.239 -25.493 -15.394  0.00  0.00    +0.174 HD
ENDROOT
BRANCH   9  20
ATOM     20  C   UNL     1      33.686 -22.081 -18.382  0.00  0.00    +0.086 C 
ATOM     21  C   UNL     1      32.888 -21.311 -19.233  0.00  0.00    +0.012 C 
ATOM     22  C   UNL     1      35.058 -22.188 -18.634  0.00  0.00    +0.012 C 
ATOM     23  C   UNL     1      33.454 -20.654 -20.325  0.00  0.00    +0.001 C 
ATOM     24  C   UNL     1      35.624 -21.531 -19.726  0.00  0.00    +0.001 C 
ATOM     25  C   UNL     1      34.823 -20.763 -20.572  0.00  0.00    +0.000 C 
ENDBRANCH   9  20
TORSDOF 1
ENDMDL
MODEL 2
REMARK VINA RESULT:     -11.9      1.543      5.781
REMARK  Name = 6419766
REMARK  1 active torsions:
REMARK  status: ('A' for Active; 'I' for Inactive)
REMARK    1  A    between atoms: C_9  and  C_20
REMARK                            x       y       z     vdW  Elec       q    Type
REMARK                         _______ _______ _______ _____ _____    ______ ____
ROOT
ATOM      1  N   UNL     1      33.404 -22.844 -17.676  0.00  0.00    -0.274 N 
ATOM      2  N   UNL     1      34.839 -24.012 -16.222  0.00  0.00    -0.328 NA
ATOM      3  N   UNL     1      34.035 -24.848 -14.111  0.00  0.00    -0.343 NA
ATOM      4  N   UNL     1      35.888 -21.105 -19.271  0.00  0.00    -0.239 N 
ATOM      5  N   UNL     1      35.522 -21.856 -18.219  0.00  0.00    -0.166 NA
ATOM      6  C   UNL     1      32.540 -23.664 -15.564  0.00  0.00    +0.143 C 
ATOM      7  C   UNL     1      33.604 -23.528 -16.451  0.00  0.00    +0.185 C 
ATOM      8  C   UNL     1      32.813 -24.353 -14.370  0.00  0.00    +0.133 C 
ATOM      9  C   UNL     1      34.982 -24.651 -15.050  0.00  0.00    +0.138 C 
ATOM     10  C   UNL     1      34.261 -22.084 -18.488  0.00  0.00    +0.152 C 
ATOM     11  C   UNL     1      31.257 -23.149 -15.826  0.00  0.00    -0.011 C 
ATOM     12  C   UNL     1      31.772 -24.508 -13.458  0.00  0.00    +0.029 C 
ATOM     13  C   UNL     1      33.779 -21.523 -19.658  0.00  0.00    +0.048 C 
ATOM     14  C   UNL     1      34.881 -20.875 -20.162  0.00  0.00    +0.046 C 
ATOM     15  C   UNL     1      30.237 -23.320 -14.895  0.00  0.00    -0.004 C 
ATOM     16  C   UNL     1      30.494 -24.000 -13.710  0.00  0.00    +0.002 C 
ATOM     17  C   UNL     1      35.078 -20.074 -21.381  0.00  0.00    +0.049 C 
ATOM     18  H   UNL     1      32.486 -22.916 -18.025  0.00  0.00    +0.156 HD
ATOM     19  H   UNL     1      36.799 -20.751 -19.388  0.00  0.00    +0.174 HD
ENDROOT
BRANCH   9  20
ATOM     20  C   UNL     1      36.288 -25.185 -14.765  0.00  0.00    +0.086 C 
ATOM     21  C   UNL     1      37.390 -24.332 -14.659  0.00  0.00    +0.012 C 
ATOM     22  C   UNL     1      36.462 -26.561 -14.589  0.00  0.00    +0.012 C 
ATOM     23  C   UNL     1      38.655 -24.850 -14.380  0.00  0.00    +0.001 C 
ATOM     24  C   UNL     1      37.726 -27.079 -14.311  0.00  0.00    +0.001 C 
ATOM     25  C   UNL     1      38.824 -26.224 -14.206  0.00  0.00    +0.000 C 
ENDBRANCH   9  20
TORSDOF 1
ENDMDL
MODEL 3
REMARK VINA RESULT:     -11.8      1.288      4.953
REMARK  Name = 6419766
REMARK  1 active torsions:
REMARK  status: ('A' for Active; 'I' for Inactive)
REMARK    1  A    between atoms: C_9  and  C_20
REMARK                            x       y       z     vdW  Elec       q    Type
REMARK                         _______ _______ _______ _____ _____    ______ ____
ROOT
ATOM      1  N   UNL     1      35.744 -23.433 -15.766  0.00  0.00    -0.274 N 
ATOM      2  N   UNL     1      33.398 -23.552 -15.903  0.00  0.00    -0.328 NA
ATOM      3  N   UNL     1      32.227 -22.616 -17.788  0.00  0.00    -0.343 NA
ATOM      4  N   UNL     1      35.892 -23.653 -12.350  0.00  0.00    -0.239 N 
ATOM      5  N   UNL     1      35.142 -23.435 -13.444  0.00  0.00    -0.166 NA
ATOM      6  C   UNL     1      34.618 -22.474 -17.688  0.00  0.00    +0.143 C 
ATOM      7  C   UNL     1      34.549 -23.145 -16.471  0.00  0.00    +0.185 C 
ATOM      8  C   UNL     1      33.394 -22.223 -18.328  0.00  0.00    +0.133 C 
ATOM      9  C   UNL     1      32.292 -23.258 -16.604  0.00  0.00    +0.138 C 
ATOM     10  C   UNL     1      36.029 -23.568 -14.398  0.00  0.00    +0.152 C 
ATOM     11  C   UNL     1      35.833 -22.059 -18.262  0.00  0.00    -0.011 C 
ATOM     12  C   UNL     1      33.424 -21.553 -19.548  0.00  0.00    +0.029 C 
ATOM     13  C   UNL     1      37.319 -23.860 -13.991  0.00  0.00    +0.048 C 
ATOM     14  C   UNL     1      37.204 -23.911 -12.623  0.00  0.00    +0.046 C 
ATOM     15  C   UNL     1      35.833 -21.390 -19.482  0.00  0.00    -0.004 C 
ATOM     16  C   UNL     1      34.627 -21.136 -20.126  0.00  0.00    +0.002 C 
ATOM     17  C   UNL     1      38.189 -24.176 -11.562  0.00  0.00    +0.049 C 
ATOM     18  H   UNL     1      36.527 -23.564 -16.349  0.00  0.00    +0.156 HD
ATOM     19  H   UNL     1      35.529 -23.628 -11.436  0.00  0.00    +0.174 HD
ENDROOT
BRANCH   9  20
ATOM     20  C   UNL     1      31.039 -23.675 -16.033  0.00  0.00    +0.086 C 
ATOM     21  C   UNL     1      29.854 -23.017 -16.375  0.00  0.00    +0.012 C 
ATOM     22  C   UNL     1      30.997 -24.743 -15.131  0.00  0.00    +0.012 C 
ATOM     23  C   UNL     1      28.639 -23.423 -15.823  0.00  0.00    +0.001 C 
ATOM     24  C   UNL     1      29.783 -25.149 -14.578  0.00  0.00    +0.001 C 
ATOM     25  C   UNL     1      28.603 -24.489 -14.924  0.00  0.00    +0.000 C 
ENDBRANCH   9  20
TORSDOF 1
ENDMDL
MODEL 4
REMARK VINA RESULT:     -11.2      1.974      6.103
REMARK  Name = 6419766
REMARK  1 active torsions:
REMARK  status: ('A' for Active; 'I' for Inactive)
REMARK    1  A    between atoms: C_9  and  C_20
REMARK                            x       y       z     vdW  Elec       q    Type
REMARK                         _______ _______ _______ _____ _____    ______ ____
ROOT
ATOM      1  N   UNL     1      35.827 -22.521 -15.616  0.00  0.00    -0.274 N 
ATOM      2  N   UNL     1      33.756 -23.421 -14.954  0.00  0.00    -0.328 NA
ATOM      3  N   UNL     1      33.557 -24.667 -12.902  0.00  0.00    -0.343 NA
ATOM      4  N   UNL     1      35.103 -22.446 -18.965  0.00  0.00    -0.239 N 
ATOM      5  N   UNL     1      34.785 -22.907 -17.743  0.00  0.00    -0.166 NA
ATOM      6  C   UNL     1      35.685 -23.766 -13.540  0.00  0.00    +0.143 C 
ATOM      7  C   UNL     1      35.063 -23.258 -14.677  0.00  0.00    +0.185 C 
ATOM      8  C   UNL     1      34.865 -24.486 -12.655  0.00  0.00    +0.133 C 
ATOM      9  C   UNL     1      33.073 -24.125 -14.038  0.00  0.00    +0.138 C 
ATOM     10  C   UNL     1      35.714 -22.352 -17.006  0.00  0.00    +0.152 C 
ATOM     11  C   UNL     1      37.053 -23.583 -13.272  0.00  0.00    -0.011 C 
ATOM     12  C   UNL     1      35.453 -25.009 -11.507  0.00  0.00    +0.029 C 
ATOM     13  C   UNL     1      36.624 -21.553 -17.676  0.00  0.00    +0.048 C 
ATOM     14  C   UNL     1      36.198 -21.632 -18.980  0.00  0.00    +0.046 C 
ATOM     15  C   UNL     1      37.613 -24.118 -12.117  0.00  0.00    -0.004 C 
ATOM     16  C   UNL     1      36.813 -24.832 -11.233  0.00  0.00    +0.002 C 
ATOM     17  C   UNL     1      36.708 -21.026 -20.220  0.00  0.00    +0.049 C 
ATOM     18  H   UNL     1      36.583 -22.033 -15.217  0.00  0.00    +0.156 HD
ATOM     19  H   UNL     1      34.594 -22.676 -19.775  0.00  0.00    +0.174 HD
ENDROOT
BRANCH   9  20
ATOM     20  C   UNL     1      31.670 -24.323 -14.295  0.00  0.00    +0.086 C 
ATOM     21  C   UNL     1      30.946 -23.375 -15.022  0.00  0.00    +0.012 C 
ATOM     22  C   UNL     1      31.022 -25.468 -13.819  0.00  0.00    +0.012 C 
ATOM     23  C   UNL     1      29.587 -23.567 -15.272  0.00  0.00    +0.001 C 
ATOM     24  C   UNL     1      29.664 -25.661 -14.069  0.00  0.00    +0.001 C 
ATOM     25  C   UNL     1      28.946 -24.711 -14.796  0.00  0.00    +0.000 C 
ENDBRANCH   9  20
TORSDOF 1
ENDMDL
MODEL 5
REMARK VINA RESULT:     -11.2      1.546      5.211
REMARK  Name = 6419766
REMARK  1 active torsions:
REMARK  status: ('A' for Active; 'I' for Inactive)
REMARK    1  A    between atoms: C_9  and  C_20
REMARK                            x       y       z     vdW  Elec       q    Type
REMARK                         _______ _______ _______ _____ _____    ______ ____
ROOT
ATOM      1  N   UNL     1      32.800 -24.198 -15.779  0.00  0.00    -0.274 N 
ATOM      2  N   UNL     1      33.991 -22.886 -17.327  0.00  0.00    -0.328 NA
ATOM      3  N   UNL     1      36.346 -22.473 -17.033  0.00  0.00    -0.343 NA
ATOM      4  N   UNL     1      29.742 -22.802 -16.443  0.00  0.00    -0.239 N 
ATOM      5  N   UNL     1      31.078 -22.723 -16.562  0.00  0.00    -0.166 NA
ATOM      6  C   UNL     1      35.169 -23.816 -15.433  0.00  0.00    +0.143 C 
ATOM      7  C   UNL     1      34.023 -23.614 -16.195  0.00  0.00    +0.185 C 
ATOM      8  C   UNL     1      36.343 -23.206 -15.906  0.00  0.00    +0.133 C 
ATOM      9  C   UNL     1      35.171 -22.352 -17.682  0.00  0.00    +0.138 C 
ATOM     10  C   UNL     1      31.461 -23.808 -15.938  0.00  0.00    +0.152 C 
ATOM     11  C   UNL     1      35.177 -24.581 -14.253  0.00  0.00    -0.011 C 
ATOM     12  C   UNL     1      37.511 -23.386 -15.170  0.00  0.00    +0.029 C 
ATOM     13  C   UNL     1      30.450 -24.595 -15.415  0.00  0.00    +0.048 C 
ATOM     14  C   UNL     1      29.314 -23.905 -15.763  0.00  0.00    +0.046 C 
ATOM     15  C   UNL     1      36.359 -24.743 -13.537  0.00  0.00    -0.004 C 
ATOM     16  C   UNL     1      37.527 -24.145 -13.995  0.00  0.00    +0.002 C 
ATOM     17  C   UNL     1      27.887 -24.175 -15.524  0.00  0.00    +0.049 C 
ATOM     18  H   UNL     1      32.912 -25.041 -15.284  0.00  0.00    +0.156 HD
ATOM     19  H   UNL     1      29.128 -22.127 -16.811  0.00  0.00    +0.174 HD
ENDROOT
BRANCH   9  20
ATOM     20  C   UNL     1      35.183 -21.565 -18.887  0.00  0.00    +0.086 C 
ATOM     21  C   UNL     1      33.988 -21.267 -19.547  0.00  0.00    +0.012 C 
ATOM     22  C   UNL     1      36.393 -21.092 -19.407  0.00  0.00    +0.012 C 
ATOM     23  C   UNL     1      34.000 -20.503 -20.714  0.00  0.00    +0.001 C 
ATOM     24  C   UNL     1      36.406 -20.329 -20.573  0.00  0.00    +0.001 C 
ATOM     25  C   UNL     1      35.209 -20.033 -21.228  0.00  0.00    +0.000 C 
ENDBRANCH   9  20
TORSDOF 1
ENDMDL
MODEL 6
REMARK VINA RESULT:     -10.0      1.635      6.508
REMARK  Name = 6419766
REMARK  1 active torsions:
REMARK  status: ('A' for Active; 'I' for Inactive)
REMARK    1  A    between atoms: C_9  and  C_20
REMARK                            x       y       z     vdW  Elec       q    Type
REMARK                         _______ _______ _______ _____ _____    ______ ____
ROOT
ATOM      1  N   UNL     1      32.637 -23.338 -15.904  0.00  0.00    -0.274 N 
ATOM      2  N   UNL     1      34.752 -23.552 -14.896  0.00  0.00    -0.328 NA
ATOM      3  N   UNL     1      36.749 -22.907 -16.079  0.00  0.00    -0.343 NA
ATOM      4  N   UNL     1      31.123 -25.768 -14.020  0.00  0.00    -0.239 N 
ATOM      5  N   UNL     1      32.268 -25.200 -14.436  0.00  0.00    -0.166 NA
ATOM      6  C   UNL     1      34.612 -22.672 -17.142  0.00  0.00    +0.143 C 
ATOM      7  C   UNL     1      34.044 -23.185 -15.980  0.00  0.00    +0.185 C 
ATOM      8  C   UNL     1      36.012 -22.548 -17.145  0.00  0.00    +0.133 C 
ATOM      9  C   UNL     1      36.080 -23.390 -15.013  0.00  0.00    +0.138 C 
ATOM     10  C   UNL     1      31.819 -24.245 -15.210  0.00  0.00    +0.152 C 
ATOM     11  C   UNL     1      33.850 -22.294 -18.262  0.00  0.00    -0.011 C 
ATOM     12  C   UNL     1      36.616 -22.040 -18.291  0.00  0.00    +0.029 C 
ATOM     13  C   UNL     1      30.443 -24.154 -15.325  0.00  0.00    +0.048 C 
ATOM     14  C   UNL     1      30.001 -25.179 -14.525  0.00  0.00    +0.046 C 
ATOM     15  C   UNL     1      34.482 -21.790 -19.394  0.00  0.00    -0.004 C 
ATOM     16  C   UNL     1      35.866 -21.662 -19.409  0.00  0.00    +0.002 C 
ATOM     17  C   UNL     1      28.648 -25.653 -14.190  0.00  0.00    +0.049 C 
ATOM     18  H   UNL     1      32.137 -22.683 -16.441  0.00  0.00    +0.156 HD
ATOM     19  H   UNL     1      31.097 -26.538 -13.408  0.00  0.00    +0.174 HD
ENDROOT
BRANCH   9  20
ATOM     20  C   UNL     1      36.877 -23.770 -13.876  0.00  0.00    +0.086 C 
ATOM     21  C   UNL     1      36.597 -23.247 -12.611  0.00  0.00    +0.012 C 
ATOM     22  C   UNL     1      37.938 -24.669 -14.030  0.00  0.00    +0.012 C 
ATOM     23  C   UNL     1      37.368 -23.617 -11.510  0.00  0.00    +0.001 C 
ATOM     24  C   UNL     1      38.709 -25.039 -12.929  0.00  0.00    +0.001 C 
ATOM     25  C   UNL     1      38.424 -24.514 -11.668  0.00  0.00    +0.000 C 
ENDBRANCH   9  20
TORSDOF 1
ENDMDL
