MODEL 1
REMARK VINA RESULT:     -12.1      0.000      0.000
REMARK  Name = 5243
REMARK  7 active torsions:
REMARK  status: ('A' for Active; 'I' for Inactive)
REMARK    1  A    between atoms: C_1  and  C_3
REMARK    2  A    between atoms: C_1  and  C_8
REMARK    3  A    between atoms: C_1  and  C_19
REMARK    4  A    between atoms: C_13  and  O_14
REMARK    5  A    between atoms: O_14  and  S_15
REMARK    6  A    between atoms: C_24  and  O_25
REMARK    7  A    between atoms: O_25  and  S_26
REMARK                            x       y       z     vdW  Elec       q    Type
REMARK                         _______ _______ _______ _____ _____    ______ ____
ROOT
ATOM      1  C   UNL     1      33.790 -23.538 -16.821  0.00  0.00    +0.085 C 
ENDROOT
BRANCH   1   3
ATOM      2  N   UNL     1      31.380 -23.395 -16.991  0.00  0.00    -0.248 NA
ATOM      3  C   UNL     1      32.413 -23.316 -16.158  0.00  0.00    +0.067 C 
ATOM      4  C   UNL     1      32.395 -23.066 -14.821  0.00  0.00    +0.015 C 
ATOM      5  C   UNL     1      31.139 -22.871 -14.255  0.00  0.00    +0.003 C 
ATOM      6  C   UNL     1      30.177 -23.198 -16.405  0.00  0.00    +0.098 C 
ATOM      7  C   UNL     1      30.004 -22.936 -15.055  0.00  0.00    +0.021 C 
ENDBRANCH   1   3
BRANCH   1   8
ATOM      8  C   UNL     1      34.939 -23.700 -15.884  0.00  0.00    -0.013 C 
ATOM      9  C   UNL     1      35.050 -24.854 -15.109  0.00  0.00    -0.000 C 
ATOM     10  C   UNL     1      35.901 -22.694 -15.781  0.00  0.00    -0.000 C 
ATOM     11  C   UNL     1      36.124 -25.003 -14.232  0.00  0.00    +0.040 C 
ATOM     12  C   UNL     1      36.975 -22.844 -14.904  0.00  0.00    +0.040 C 
ATOM     13  C   UNL     1      37.087 -23.999 -14.129  0.00  0.00    +0.176 C 
BRANCH  13  14
ATOM     14  O   UNL     1      38.134 -24.146 -13.272  0.00  0.00    -0.322 OA
BRANCH  14  15
ATOM     15  S   UNL     1      37.900 -23.855 -11.670  0.00  0.00    +0.282 S 
ATOM     16  O   UNL     1      39.305 -23.178 -11.187  0.00  0.00    -0.105 OA
ATOM     17  O   UNL     1      36.852 -22.863 -11.519  0.00  0.00    -0.012 OA
ATOM     18  O   UNL     1      37.785 -25.139 -11.003  0.00  0.00    -0.105 OA
ENDBRANCH  14  15
ENDBRANCH  13  14
ENDBRANCH   1   8
BRANCH   1  19
ATOM     19  C   UNL     1      34.032 -22.583 -18.013  0.00  0.00    -0.013 C 
ATOM     20  C   UNL     1      35.314 -22.440 -18.471  0.00  0.00    -0.000 C 
ATOM     21  C   UNL     1      32.953 -21.932 -18.544  0.00  0.00    -0.000 C 
ATOM     22  C   UNL     1      35.533 -21.578 -19.546  0.00  0.00    +0.040 C 
ATOM     23  C   UNL     1      33.171 -21.070 -19.619  0.00  0.00    +0.040 C 
ATOM     24  C   UNL     1      34.462 -20.893 -20.120  0.00  0.00    +0.176 C 
BRANCH  24  25
ATOM     25  O   UNL     1      34.676 -20.051 -21.168  0.00  0.00    -0.322 OA
BRANCH  25  26
ATOM     26  S   UNL     1      35.900 -18.956 -21.073  0.00  0.00    +0.282 S 
ATOM     27  O   UNL     1      35.150 -17.570 -20.648  0.00  0.00    -0.105 OA
ATOM     28  O   UNL     1      36.788 -19.334 -19.990  0.00  0.00    -0.012 OA
ATOM     29  O   UNL     1      36.429 -18.771 -22.412  0.00  0.00    -0.105 OA
ENDBRANCH  25  26
ENDBRANCH  24  25
ENDBRANCH   1  19
TORSDOF 7
ENDMDL
MODEL 2
REMARK VINA RESULT:     -12.1      0.161      1.698
REMARK  Name = 5243
REMARK  7 active torsions:
REMARK  status: ('A' for Active; 'I' for Inactive)
REMARK    1  A    between atoms: C_1  and  C_3
REMARK    2  A    between atoms: C_1  and  C_8
REMARK    3  A    between atoms: C_1  and  C_19
REMARK    4  A    between atoms: C_13  and  O_14
REMARK    5  A    between atoms: O_14  and  S_15
REMARK    6  A    between atoms: C_24  and  O_25
REMARK    7  A    between atoms: O_25  and  S_26
REMARK                            x       y       z     vdW  Elec       q    Type
REMARK                         _______ _______ _______ _____ _____    ______ ____
ROOT
ATOM      1  C   UNL     1      33.741 -23.568 -16.795  0.00  0.00    +0.085 C 
ENDROOT
BRANCH   1   3
ATOM      2  N   UNL     1      31.328 -23.417 -16.913  0.00  0.00    -0.248 NA
ATOM      3  C   UNL     1      32.379 -23.337 -16.104  0.00  0.00    +0.067 C 
ATOM      4  C   UNL     1      32.391 -23.080 -14.768  0.00  0.00    +0.015 C 
ATOM      5  C   UNL     1      31.149 -22.876 -14.176  0.00  0.00    +0.003 C 
ATOM      6  C   UNL     1      30.139 -23.213 -16.303  0.00  0.00    +0.098 C 
ATOM      7  C   UNL     1      29.997 -22.942 -14.951  0.00  0.00    +0.021 C 
ENDBRANCH   1   3
BRANCH   1   8
ATOM      8  C   UNL     1      34.908 -23.734 -15.882  0.00  0.00    -0.013 C 
ATOM      9  C   UNL     1      35.826 -22.695 -15.727  0.00  0.00    -0.000 C 
ATOM     10  C   UNL     1      35.081 -24.929 -15.182  0.00  0.00    -0.000 C 
ATOM     11  C   UNL     1      36.918 -22.851 -14.873  0.00  0.00    +0.040 C 
ATOM     12  C   UNL     1      36.173 -25.084 -14.327  0.00  0.00    +0.040 C 
ATOM     13  C   UNL     1      37.092 -24.045 -14.173  0.00  0.00    +0.176 C 
BRANCH  13  14
ATOM     14  O   UNL     1      38.157 -24.197 -13.340  0.00  0.00    -0.322 OA
BRANCH  14  15
ATOM     15  S   UNL     1      37.933 -24.024 -11.720  0.00  0.00    +0.282 S 
ATOM     16  O   UNL     1      36.614 -23.069 -11.608  0.00  0.00    -0.105 OA
ATOM     17  O   UNL     1      37.599 -25.315 -11.150  0.00  0.00    -0.012 OA
ATOM     18  O   UNL     1      39.059 -23.270 -11.199  0.00  0.00    -0.105 OA
ENDBRANCH  14  15
ENDBRANCH  13  14
ENDBRANCH   1   8
BRANCH   1  19
ATOM     19  C   UNL     1      33.963 -22.617 -17.994  0.00  0.00    -0.013 C 
ATOM     20  C   UNL     1      32.875 -21.960 -18.502  0.00  0.00    -0.000 C 
ATOM     21  C   UNL     1      35.234 -22.484 -18.482  0.00  0.00    -0.000 C 
ATOM     22  C   UNL     1      33.075 -21.102 -19.584  0.00  0.00    +0.040 C 
ATOM     23  C   UNL     1      35.434 -21.626 -19.564  0.00  0.00    +0.040 C 
ATOM     24  C   UNL     1      34.354 -20.935 -20.115  0.00  0.00    +0.176 C 
BRANCH  24  25
ATOM     25  O   UNL     1      34.549 -20.098 -21.171  0.00  0.00    -0.322 OA
BRANCH  25  26
ATOM     26  S   UNL     1      35.704 -18.933 -21.061  0.00  0.00    +0.282 S 
ATOM     27  O   UNL     1      36.207 -18.737 -22.601  0.00  0.00    -0.105 OA
ATOM     28  O   UNL     1      35.083 -17.692 -20.633  0.00  0.00    -0.012 OA
ATOM     29  O   UNL     1      36.815 -19.483 -20.308  0.00  0.00    -0.105 OA
ENDBRANCH  25  26
ENDBRANCH  24  25
ENDBRANCH   1  19
TORSDOF 7
ENDMDL
MODEL 3
REMARK VINA RESULT:     -12.1      2.094      7.500
REMARK  Name = 5243
REMARK  7 active torsions:
REMARK  status: ('A' for Active; 'I' for Inactive)
REMARK    1  A    between atoms: C_1  and  C_3
REMARK    2  A    between atoms: C_1  and  C_8
REMARK    3  A    between atoms: C_1  and  C_19
REMARK    4  A    between atoms: C_13  and  O_14
REMARK    5  A    between atoms: O_14  and  S_15
REMARK    6  A    between atoms: C_24  and  O_25
REMARK    7  A    between atoms: O_25  and  S_26
REMARK                            x       y       z     vdW  Elec       q    Type
REMARK                         _______ _______ _______ _____ _____    ______ ____
ROOT
ATOM      1  C   UNL     1      34.773 -23.339 -15.212  0.00  0.00    +0.085 C 
ENDROOT
BRANCH   1   3
ATOM      2  N   UNL     1      33.406 -24.724 -13.773  0.00  0.00    -0.248 NA
ATOM      3  C   UNL     1      33.390 -23.903 -14.817  0.00  0.00    +0.067 C 
ATOM      4  C   UNL     1      32.320 -23.513 -15.561  0.00  0.00    +0.015 C 
ATOM      5  C   UNL     1      31.090 -24.038 -15.180  0.00  0.00    +0.003 C 
ATOM      6  C   UNL     1      32.194 -25.216 -13.433  0.00  0.00    +0.098 C 
ATOM      7  C   UNL     1      31.017 -24.907 -14.097  0.00  0.00    +0.021 C 
ENDBRANCH   1   3
BRANCH   1   8
ATOM      8  C   UNL     1      34.899 -22.866 -16.621  0.00  0.00    -0.013 C 
ATOM      9  C   UNL     1      33.844 -23.047 -17.514  0.00  0.00    -0.000 C 
ATOM     10  C   UNL     1      36.073 -22.242 -17.044  0.00  0.00    -0.000 C 
ATOM     11  C   UNL     1      33.962 -22.606 -18.832  0.00  0.00    +0.040 C 
ATOM     12  C   UNL     1      36.191 -21.800 -18.363  0.00  0.00    +0.040 C 
ATOM     13  C   UNL     1      35.136 -21.982 -19.256  0.00  0.00    +0.176 C 
BRANCH  13  14
ATOM     14  O   UNL     1      35.251 -21.552 -20.542  0.00  0.00    -0.322 OA
BRANCH  14  15
ATOM     15  S   UNL     1      34.751 -20.031 -20.921  0.00  0.00    +0.282 S 
ATOM     16  O   UNL     1      34.778 -20.007 -22.553  0.00  0.00    -0.105 OA
ATOM     17  O   UNL     1      33.374 -19.867 -20.495  0.00  0.00    -0.012 OA
ATOM     18  O   UNL     1      35.769 -19.106 -20.457  0.00  0.00    -0.105 OA
ENDBRANCH  14  15
ENDBRANCH  13  14
ENDBRANCH   1   8
BRANCH   1  19
ATOM     19  C   UNL     1      35.937 -24.218 -14.698  0.00  0.00    -0.013 C 
ATOM     20  C   UNL     1      36.816 -23.664 -13.807  0.00  0.00    -0.000 C 
ATOM     21  C   UNL     1      36.026 -25.502 -15.162  0.00  0.00    -0.000 C 
ATOM     22  C   UNL     1      37.866 -24.456 -13.344  0.00  0.00    +0.040 C 
ATOM     23  C   UNL     1      37.077 -26.294 -14.699  0.00  0.00    +0.040 C 
ATOM     24  C   UNL     1      37.997 -25.772 -13.790  0.00  0.00    +0.176 C 
BRANCH  24  25
ATOM     25  O   UNL     1      39.022 -26.544 -13.338  0.00  0.00    -0.322 OA
BRANCH  25  26
ATOM     26  S   UNL     1      40.549 -26.228 -13.861  0.00  0.00    +0.282 S 
ATOM     27  O   UNL     1      40.443 -26.372 -15.483  0.00  0.00    -0.105 OA
ATOM     28  O   UNL     1      40.875 -24.847 -13.556  0.00  0.00    -0.012 OA
ATOM     29  O   UNL     1      41.407 -27.296 -13.385  0.00  0.00    -0.105 OA
ENDBRANCH  25  26
ENDBRANCH  24  25
ENDBRANCH   1  19
TORSDOF 7
ENDMDL
MODEL 4
REMARK VINA RESULT:     -11.8      4.137      5.970
REMARK  Name = 5243
REMARK  7 active torsions:
REMARK  status: ('A' for Active; 'I' for Inactive)
REMARK    1  A    between atoms: C_1  and  C_3
REMARK    2  A    between atoms: C_1  and  C_8
REMARK    3  A    between atoms: C_1  and  C_19
REMARK    4  A    between atoms: C_13  and  O_14
REMARK    5  A    between atoms: O_14  and  S_15
REMARK    6  A    between atoms: C_24  and  O_25
REMARK    7  A    between atoms: O_25  and  S_26
REMARK                            x       y       z     vdW  Elec       q    Type
REMARK                         _______ _______ _______ _____ _____    ______ ____
ROOT
ATOM      1  C   UNL     1      34.485 -23.212 -15.244  0.00  0.00    +0.085 C 
ENDROOT
BRANCH   1   3
ATOM      2  N   UNL     1      35.476 -25.412 -15.444  0.00  0.00    -0.248 NA
ATOM      3  C   UNL     1      35.368 -24.340 -14.666  0.00  0.00    +0.067 C 
ATOM      4  C   UNL     1      35.934 -24.129 -13.447  0.00  0.00    +0.015 C 
ATOM      5  C   UNL     1      36.723 -25.163 -12.955  0.00  0.00    +0.003 C 
ATOM      6  C   UNL     1      36.249 -26.396 -14.933  0.00  0.00    +0.098 C 
ATOM      7  C   UNL     1      36.889 -26.321 -13.706  0.00  0.00    +0.021 C 
ENDBRANCH   1   3
BRANCH   1   8
ATOM      8  C   UNL     1      33.013 -23.436 -15.154  0.00  0.00    -0.013 C 
ATOM      9  C   UNL     1      32.331 -24.031 -16.215  0.00  0.00    -0.000 C 
ATOM     10  C   UNL     1      32.319 -23.049 -14.007  0.00  0.00    -0.000 C 
ATOM     11  C   UNL     1      30.955 -24.239 -16.130  0.00  0.00    +0.040 C 
ATOM     12  C   UNL     1      30.941 -23.258 -13.922  0.00  0.00    +0.040 C 
ATOM     13  C   UNL     1      30.260 -23.853 -14.984  0.00  0.00    +0.176 C 
BRANCH  13  14
ATOM     14  O   UNL     1      28.917 -24.056 -14.902  0.00  0.00    -0.322 OA
BRANCH  14  15
ATOM     15  S   UNL     1      27.942 -23.417 -16.063  0.00  0.00    +0.282 S 
ATOM     16  O   UNL     1      26.610 -22.952 -15.242  0.00  0.00    -0.105 OA
ATOM     17  O   UNL     1      28.571 -22.227 -16.605  0.00  0.00    -0.012 OA
ATOM     18  O   UNL     1      27.549 -24.498 -16.950  0.00  0.00    -0.105 OA
ENDBRANCH  14  15
ENDBRANCH  13  14
ENDBRANCH   1   8
BRANCH   1  19
ATOM     19  C   UNL     1      34.998 -22.702 -16.611  0.00  0.00    -0.013 C 
ATOM     20  C   UNL     1      34.165 -22.810 -17.691  0.00  0.00    -0.000 C 
ATOM     21  C   UNL     1      36.258 -22.172 -16.667  0.00  0.00    -0.000 C 
ATOM     22  C   UNL     1      34.628 -22.351 -18.924  0.00  0.00    +0.040 C 
ATOM     23  C   UNL     1      36.722 -21.713 -17.900  0.00  0.00    +0.040 C 
ATOM     24  C   UNL     1      35.907 -21.802 -19.029  0.00  0.00    +0.176 C 
BRANCH  24  25
ATOM     25  O   UNL     1      36.358 -21.354 -20.232  0.00  0.00    -0.322 OA
BRANCH  25  26
ATOM     26  S   UNL     1      35.998 -19.818 -20.697  0.00  0.00    +0.282 S 
ATOM     27  O   UNL     1      36.109 -19.867 -22.324  0.00  0.00    -0.105 OA
ATOM     28  O   UNL     1      34.618 -19.532 -20.351  0.00  0.00    -0.012 OA
ATOM     29  O   UNL     1      37.059 -18.953 -20.215  0.00  0.00    -0.105 OA
ENDBRANCH  25  26
ENDBRANCH  24  25
ENDBRANCH   1  19
TORSDOF 7
ENDMDL
MODEL 5
REMARK VINA RESULT:     -11.1      4.203      7.466
REMARK  Name = 5243
REMARK  7 active torsions:
REMARK  status: ('A' for Active; 'I' for Inactive)
REMARK    1  A    between atoms: C_1  and  C_3
REMARK    2  A    between atoms: C_1  and  C_8
REMARK    3  A    between atoms: C_1  and  C_19
REMARK    4  A    between atoms: C_13  and  O_14
REMARK    5  A    between atoms: O_14  and  S_15
REMARK    6  A    between atoms: C_24  and  O_25
REMARK    7  A    between atoms: O_25  and  S_26
REMARK                            x       y       z     vdW  Elec       q    Type
REMARK                         _______ _______ _______ _____ _____    ______ ____
ROOT
ATOM      1  C   UNL     1      34.170 -23.924 -16.341  0.00  0.00    +0.085 C 
ENDROOT
BRANCH   1   3
ATOM      2  N   UNL     1      35.623 -25.453 -15.153  0.00  0.00    -0.248 NA
ATOM      3  C   UNL     1      35.096 -24.233 -15.144  0.00  0.00    +0.067 C 
ATOM      4  C   UNL     1      35.274 -23.250 -14.220  0.00  0.00    +0.015 C 
ATOM      5  C   UNL     1      36.113 -23.560 -13.155  0.00  0.00    +0.003 C 
ATOM      6  C   UNL     1      36.431 -25.719 -14.102  0.00  0.00    +0.098 C 
ATOM      7  C   UNL     1      36.706 -24.816 -13.087  0.00  0.00    +0.021 C 
ENDBRANCH   1   3
BRANCH   1   8
ATOM      8  C   UNL     1      34.736 -23.007 -17.373  0.00  0.00    -0.013 C 
ATOM      9  C   UNL     1      35.963 -22.383 -17.155  0.00  0.00    -0.000 C 
ATOM     10  C   UNL     1      34.034 -22.774 -18.556  0.00  0.00    -0.000 C 
ATOM     11  C   UNL     1      36.491 -21.525 -18.119  0.00  0.00    +0.040 C 
ATOM     12  C   UNL     1      34.562 -21.915 -19.522  0.00  0.00    +0.040 C 
ATOM     13  C   UNL     1      35.791 -21.291 -19.303  0.00  0.00    +0.176 C 
BRANCH  13  14
ATOM     14  O   UNL     1      36.306 -20.454 -20.243  0.00  0.00    -0.322 OA
BRANCH  14  15
ATOM     15  S   UNL     1      35.308 -19.375 -20.982  0.00  0.00    +0.282 S 
ATOM     16  O   UNL     1      35.625 -19.574 -22.571  0.00  0.00    -0.105 OA
ATOM     17  O   UNL     1      33.931 -19.770 -20.749  0.00  0.00    -0.012 OA
ATOM     18  O   UNL     1      35.752 -18.042 -20.616  0.00  0.00    -0.105 OA
ENDBRANCH  14  15
ENDBRANCH  13  14
ENDBRANCH   1   8
BRANCH   1  19
ATOM     19  C   UNL     1      32.719 -23.620 -15.903  0.00  0.00    -0.013 C 
ATOM     20  C   UNL     1      31.899 -22.984 -16.795  0.00  0.00    -0.000 C 
ATOM     21  C   UNL     1      32.334 -24.002 -14.647  0.00  0.00    -0.000 C 
ATOM     22  C   UNL     1      30.590 -22.708 -16.399  0.00  0.00    +0.040 C 
ATOM     23  C   UNL     1      31.025 -23.726 -14.251  0.00  0.00    +0.040 C 
ATOM     24  C   UNL     1      30.153 -23.079 -15.127  0.00  0.00    +0.176 C 
BRANCH  24  25
ATOM     25  O   UNL     1      28.876 -22.810 -14.741  0.00  0.00    -0.322 OA
BRANCH  25  26
ATOM     26  S   UNL     1      27.661 -22.972 -15.839  0.00  0.00    +0.282 S 
ATOM     27  O   UNL     1      26.305 -22.802 -14.947  0.00  0.00    -0.105 OA
ATOM     28  O   UNL     1      27.721 -21.865 -16.775  0.00  0.00    -0.012 OA
ATOM     29  O   UNL     1      27.691 -24.337 -16.329  0.00  0.00    -0.105 OA
ENDBRANCH  25  26
ENDBRANCH  24  25
ENDBRANCH   1  19
TORSDOF 7
ENDMDL
MODEL 6
REMARK VINA RESULT:      -9.6     11.542     14.851
REMARK  Name = 5243
REMARK  7 active torsions:
REMARK  status: ('A' for Active; 'I' for Inactive)
REMARK    1  A    between atoms: C_1  and  C_3
REMARK    2  A    between atoms: C_1  and  C_8
REMARK    3  A    between atoms: C_1  and  C_19
REMARK    4  A    between atoms: C_13  and  O_14
REMARK    5  A    between atoms: O_14  and  S_15
REMARK    6  A    between atoms: C_24  and  O_25
REMARK    7  A    between atoms: O_25  and  S_26
REMARK                            x       y       z     vdW  Elec       q    Type
REMARK                         _______ _______ _______ _____ _____    ______ ____
ROOT
ATOM      1  C   UNL     1      32.144 -10.009 -22.610  0.00  0.00    +0.085 C 
ENDROOT
BRANCH   1   3
ATOM      2  N   UNL     1      32.245  -8.336 -20.863  0.00  0.00    -0.248 NA
ATOM      3  C   UNL     1      31.928  -9.598 -21.137  0.00  0.00    +0.067 C 
ATOM      4  C   UNL     1      31.447 -10.544 -20.287  0.00  0.00    +0.015 C 
ATOM      5  C   UNL     1      31.264 -10.142 -18.968  0.00  0.00    +0.003 C 
ATOM      6  C   UNL     1      32.056  -7.982 -19.573  0.00  0.00    +0.098 C 
ATOM      7  C   UNL     1      31.572  -8.838 -18.596  0.00  0.00    +0.021 C 
ENDBRANCH   1   3
BRANCH   1   8
ATOM      8  C   UNL     1      32.588 -11.416 -22.828  0.00  0.00    -0.013 C 
ATOM      9  C   UNL     1      33.693 -11.682 -23.636  0.00  0.00    -0.000 C 
ATOM     10  C   UNL     1      31.898 -12.466 -22.223  0.00  0.00    -0.000 C 
ATOM     11  C   UNL     1      34.107 -12.997 -23.840  0.00  0.00    +0.040 C 
ATOM     12  C   UNL     1      32.313 -13.783 -22.426  0.00  0.00    +0.040 C 
ATOM     13  C   UNL     1      33.418 -14.048 -23.236  0.00  0.00    +0.176 C 
BRANCH  13  14
ATOM     14  O   UNL     1      33.823 -15.332 -23.435  0.00  0.00    -0.322 OA
BRANCH  14  15
ATOM     15  S   UNL     1      33.873 -15.922 -24.970  0.00  0.00    +0.282 S 
ATOM     16  O   UNL     1      32.884 -17.220 -24.922  0.00  0.00    -0.105 OA
ATOM     17  O   UNL     1      33.287 -14.947 -25.870  0.00  0.00    -0.012 OA
ATOM     18  O   UNL     1      35.219 -16.412 -25.208  0.00  0.00    -0.105 OA
ENDBRANCH  14  15
ENDBRANCH  13  14
ENDBRANCH   1   8
BRANCH   1  19
ATOM     19  C   UNL     1      32.911  -8.936 -23.416  0.00  0.00    -0.013 C 
ATOM     20  C   UNL     1      32.191  -8.116 -24.242  0.00  0.00    -0.000 C 
ATOM     21  C   UNL     1      34.269  -8.864 -23.261  0.00  0.00    -0.000 C 
ATOM     22  C   UNL     1      32.883  -7.147 -24.969  0.00  0.00    +0.040 C 
ATOM     23  C   UNL     1      34.961  -7.896 -23.989  0.00  0.00    +0.040 C 
ATOM     24  C   UNL     1      34.268  -7.037 -24.843  0.00  0.00    +0.176 C 
BRANCH  24  25
ATOM     25  O   UNL     1      34.943  -6.093 -25.553  0.00  0.00    -0.322 OA
BRANCH  25  26
ATOM     26  S   UNL     1      34.484  -5.781 -27.102  0.00  0.00    +0.282 S 
ATOM     27  O   UNL     1      35.829  -5.165 -27.791  0.00  0.00    -0.105 OA
ATOM     28  O   UNL     1      34.177  -7.036 -27.764  0.00  0.00    -0.012 OA
ATOM     29  O   UNL     1      33.492  -4.722 -27.062  0.00  0.00    -0.105 OA
ENDBRANCH  25  26
ENDBRANCH  24  25
ENDBRANCH   1  19
TORSDOF 7
ENDMDL
MODEL 7
REMARK VINA RESULT:      -9.5     11.542     14.809
REMARK  Name = 5243
REMARK  7 active torsions:
REMARK  status: ('A' for Active; 'I' for Inactive)
REMARK    1  A    between atoms: C_1  and  C_3
REMARK    2  A    between atoms: C_1  and  C_8
REMARK    3  A    between atoms: C_1  and  C_19
REMARK    4  A    between atoms: C_13  and  O_14
REMARK    5  A    between atoms: O_14  and  S_15
REMARK    6  A    between atoms: C_24  and  O_25
REMARK    7  A    between atoms: O_25  and  S_26
REMARK                            x       y       z     vdW  Elec       q    Type
REMARK                         _______ _______ _______ _____ _____    ______ ____
ROOT
ATOM      1  C   UNL     1      32.113 -10.023 -22.603  0.00  0.00    +0.085 C 
ENDROOT
BRANCH   1   3
ATOM      2  N   UNL     1      32.270  -8.382 -20.830  0.00  0.00    -0.248 NA
ATOM      3  C   UNL     1      31.895  -9.622 -21.127  0.00  0.00    +0.067 C 
ATOM      4  C   UNL     1      31.356 -10.556 -20.297  0.00  0.00    +0.015 C 
ATOM      5  C   UNL     1      31.173 -10.163 -18.975  0.00  0.00    +0.003 C 
ATOM      6  C   UNL     1      32.079  -8.037 -19.537  0.00  0.00    +0.098 C 
ATOM      7  C   UNL     1      31.539  -8.882 -18.580  0.00  0.00    +0.021 C 
ENDBRANCH   1   3
BRANCH   1   8
ATOM      8  C   UNL     1      32.573 -11.424 -22.829  0.00  0.00    -0.013 C 
ATOM      9  C   UNL     1      31.906 -12.485 -22.219  0.00  0.00    -0.000 C 
ATOM     10  C   UNL     1      33.673 -11.671 -23.651  0.00  0.00    -0.000 C 
ATOM     11  C   UNL     1      32.337 -13.794 -22.430  0.00  0.00    +0.040 C 
ATOM     12  C   UNL     1      34.105 -12.981 -23.863  0.00  0.00    +0.040 C 
ATOM     13  C   UNL     1      33.436 -14.043 -23.252  0.00  0.00    +0.176 C 
BRANCH  13  14
ATOM     14  O   UNL     1      33.857 -15.320 -23.458  0.00  0.00    -0.322 OA
BRANCH  14  15
ATOM     15  S   UNL     1      33.925 -15.899 -24.996  0.00  0.00    +0.282 S 
ATOM     16  O   UNL     1      32.981 -17.230 -24.954  0.00  0.00    -0.105 OA
ATOM     17  O   UNL     1      33.305 -14.939 -25.889  0.00  0.00    -0.012 OA
ATOM     18  O   UNL     1      35.287 -16.341 -25.239  0.00  0.00    -0.105 OA
ENDBRANCH  14  15
ENDBRANCH  13  14
ENDBRANCH   1   8
BRANCH   1  19
ATOM     19  C   UNL     1      32.867  -8.937 -23.404  0.00  0.00    -0.013 C 
ATOM     20  C   UNL     1      34.222  -8.840 -23.238  0.00  0.00    -0.000 C 
ATOM     21  C   UNL     1      32.138  -8.130 -24.235  0.00  0.00    -0.000 C 
ATOM     22  C   UNL     1      34.902  -7.859 -23.960  0.00  0.00    +0.040 C 
ATOM     23  C   UNL     1      32.818  -7.149 -24.958  0.00  0.00    +0.040 C 
ATOM     24  C   UNL     1      34.200  -7.014 -24.820  0.00  0.00    +0.176 C 
BRANCH  24  25
ATOM     25  O   UNL     1      34.864  -6.057 -25.525  0.00  0.00    -0.322 OA
BRANCH  25  26
ATOM     26  S   UNL     1      34.407  -5.747 -27.074  0.00  0.00    +0.282 S 
ATOM     27  O   UNL     1      35.715  -5.024 -27.729  0.00  0.00    -0.105 OA
ATOM     28  O   UNL     1      34.200  -7.006 -27.766  0.00  0.00    -0.012 OA
ATOM     29  O   UNL     1      33.343  -4.762 -27.030  0.00  0.00    -0.105 OA
ENDBRANCH  25  26
ENDBRANCH  24  25
ENDBRANCH   1  19
TORSDOF 7
ENDMDL
