MODEL 1
REMARK VINA RESULT:     -12.7      0.000      0.000
REMARK  Name = 9998128
REMARK  2 active torsions:
REMARK  status: ('A' for Active; 'I' for Inactive)
REMARK    1  A    between atoms: N_1  and  C_15
REMARK    2  A    between atoms: C_7  and  C_24
REMARK                            x       y       z     vdW  Elec       q    Type
REMARK                         _______ _______ _______ _____ _____    ______ ____
ROOT
ATOM      1  N   UNL     1      35.805 -23.141 -15.960  0.00  0.00    -0.290 N 
ATOM      2  N   UNL     1      33.461 -23.315 -16.061  0.00  0.00    -0.327 NA
ATOM      3  N   UNL     1      32.247 -22.476 -17.966  0.00  0.00    -0.342 NA
ATOM      4  C   UNL     1      34.636 -22.279 -17.902  0.00  0.00    +0.143 C 
ATOM      5  C   UNL     1      34.595 -22.906 -16.659  0.00  0.00    +0.184 C 
ATOM      6  C   UNL     1      33.399 -22.080 -18.536  0.00  0.00    +0.133 C 
ATOM      7  C   UNL     1      32.340 -23.072 -16.760  0.00  0.00    +0.165 C 
ATOM      8  C   UNL     1      35.834 -21.860 -18.506  0.00  0.00    -0.011 C 
ATOM      9  C   UNL     1      33.399 -21.455 -19.780  0.00  0.00    +0.029 C 
ATOM     10  C   UNL     1      35.805 -21.239 -19.750  0.00  0.00    -0.004 C 
ATOM     11  C   UNL     1      34.586 -21.036 -20.389  0.00  0.00    +0.002 C 
ATOM     12  H   UNL     1      36.507 -22.475 -16.144  0.00  0.00    +0.154 HD
ENDROOT
BRANCH   1  15
ATOM     13  N   UNL     1      37.451 -26.855 -12.240  0.00  0.00    -0.236 N 
ATOM     14  N   UNL     1      38.012 -26.115 -11.268  0.00  0.00    -0.180 NA
ATOM     15  C   UNL     1      36.197 -24.140 -15.055  0.00  0.00    +0.050 C 
ATOM     16  C   UNL     1      37.230 -24.798 -12.969  0.00  0.00    +0.037 C 
ATOM     17  C   UNL     1      36.963 -26.125 -13.289  0.00  0.00    +0.067 C 
ATOM     18  C   UNL     1      36.845 -23.784 -13.861  0.00  0.00    +0.018 C 
ATOM     19  C   UNL     1      35.943 -25.487 -15.347  0.00  0.00    +0.016 C 
ATOM     20  C   UNL     1      36.320 -26.508 -14.469  0.00  0.00    +0.017 C 
ATOM     21  C   UNL     1      37.875 -24.865 -11.715  0.00  0.00    +0.119 C 
ATOM     22  H   UNL     1      37.396 -27.837 -12.199  0.00  0.00    +0.174 HD
ENDBRANCH   1  15
BRANCH   7  24
ATOM     23  N   UNL     1      29.988 -22.937 -16.683  0.00  0.00    -0.398 NA
ATOM     24  C   UNL     1      31.103 -23.494 -16.157  0.00  0.00    +0.197 C 
ATOM     25  C   UNL     1      31.089 -24.406 -15.111  0.00  0.00    +0.098 C 
ATOM     26  C   UNL     1      28.810 -23.313 -16.137  0.00  0.00    +0.110 C 
ATOM     27  C   UNL     1      29.859 -24.768 -14.576  0.00  0.00    -0.016 C 
ATOM     28  C   UNL     1      28.691 -24.216 -15.093  0.00  0.00    +0.023 C 
ATOM     29  C   UNL     1      27.579 -22.701 -16.717  0.00  0.00    +0.066 C 
ENDBRANCH   7  24
TORSDOF 2
ENDMDL
MODEL 2
REMARK VINA RESULT:     -12.5      1.333      4.796
REMARK  Name = 9998128
REMARK  2 active torsions:
REMARK  status: ('A' for Active; 'I' for Inactive)
REMARK    1  A    between atoms: N_1  and  C_15
REMARK    2  A    between atoms: C_7  and  C_24
REMARK                            x       y       z     vdW  Elec       q    Type
REMARK                         _______ _______ _______ _____ _____    ______ ____
ROOT
ATOM      1  N   UNL     1      33.841 -25.068 -14.411  0.00  0.00    -0.290 N 
ATOM      2  N   UNL     1      33.855 -23.674 -16.307  0.00  0.00    -0.327 NA
ATOM      3  N   UNL     1      31.797 -22.799 -17.205  0.00  0.00    -0.342 NA
ATOM      4  C   UNL     1      31.739 -24.216 -15.271  0.00  0.00    +0.143 C 
ATOM      5  C   UNL     1      33.127 -24.296 -15.361  0.00  0.00    +0.184 C 
ATOM      6  C   UNL     1      31.100 -23.433 -16.245  0.00  0.00    +0.133 C 
ATOM      7  C   UNL     1      33.136 -22.954 -17.184  0.00  0.00    +0.165 C 
ATOM      8  C   UNL     1      31.000 -24.875 -14.273  0.00  0.00    -0.011 C 
ATOM      9  C   UNL     1      29.712 -23.330 -16.189  0.00  0.00    +0.029 C 
ATOM     10  C   UNL     1      29.615 -24.755 -14.240  0.00  0.00    -0.004 C 
ATOM     11  C   UNL     1      28.970 -23.981 -15.199  0.00  0.00    +0.002 C 
ATOM     12  H   UNL     1      33.333 -25.836 -14.061  0.00  0.00    +0.154 HD
ENDROOT
BRANCH   1  15
ATOM     13  N   UNL     1      38.811 -24.399 -12.135  0.00  0.00    -0.236 N 
ATOM     14  N   UNL     1      38.627 -23.418 -11.234  0.00  0.00    -0.180 NA
ATOM     15  C   UNL     1      35.132 -24.951 -13.875  0.00  0.00    +0.050 C 
ATOM     16  C   UNL     1      36.685 -23.903 -12.343  0.00  0.00    +0.037 C 
ATOM     17  C   UNL     1      37.685 -24.737 -12.833  0.00  0.00    +0.067 C 
ATOM     18  C   UNL     1      35.386 -24.006 -12.867  0.00  0.00    +0.018 C 
ATOM     19  C   UNL     1      36.163 -25.775 -14.346  0.00  0.00    +0.016 C 
ATOM     20  C   UNL     1      37.462 -25.685 -13.835  0.00  0.00    +0.017 C 
ATOM     21  C   UNL     1      37.333 -23.120 -11.364  0.00  0.00    +0.119 C 
ATOM     22  H   UNL     1      39.682 -24.836 -12.278  0.00  0.00    +0.174 HD
ENDBRANCH   1  15
BRANCH   7  24
ATOM     23  N   UNL     1      33.125 -21.560 -19.085  0.00  0.00    -0.398 NA
ATOM     24  C   UNL     1      33.876 -22.273 -18.214  0.00  0.00    +0.197 C 
ATOM     25  C   UNL     1      35.259 -22.361 -18.281  0.00  0.00    +0.098 C 
ATOM     26  C   UNL     1      33.791 -20.909 -20.064  0.00  0.00    +0.110 C 
ATOM     27  C   UNL     1      35.909 -21.678 -19.303  0.00  0.00    -0.016 C 
ATOM     28  C   UNL     1      35.168 -20.935 -20.216  0.00  0.00    +0.023 C 
ATOM     29  C   UNL     1      32.965 -20.123 -21.026  0.00  0.00    +0.066 C 
ENDBRANCH   7  24
TORSDOF 2
ENDMDL
MODEL 3
REMARK VINA RESULT:     -12.5      1.897      6.905
REMARK  Name = 9998128
REMARK  2 active torsions:
REMARK  status: ('A' for Active; 'I' for Inactive)
REMARK    1  A    between atoms: N_1  and  C_15
REMARK    2  A    between atoms: C_7  and  C_24
REMARK                            x       y       z     vdW  Elec       q    Type
REMARK                         _______ _______ _______ _____ _____    ______ ____
ROOT
ATOM      1  N   UNL     1      33.305 -24.030 -13.614  0.00  0.00    -0.290 N 
ATOM      2  N   UNL     1      34.431 -23.215 -15.513  0.00  0.00    -0.327 NA
ATOM      3  N   UNL     1      36.822 -23.436 -15.712  0.00  0.00    -0.342 NA
ATOM      4  C   UNL     1      35.713 -24.279 -13.761  0.00  0.00    +0.143 C 
ATOM      5  C   UNL     1      34.518 -23.833 -14.320  0.00  0.00    +0.184 C 
ATOM      6  C   UNL     1      36.873 -24.051 -14.517  0.00  0.00    +0.133 C 
ATOM      7  C   UNL     1      35.604 -23.051 -16.145  0.00  0.00    +0.165 C 
ATOM      8  C   UNL     1      35.778 -24.922 -12.512  0.00  0.00    -0.011 C 
ATOM      9  C   UNL     1      38.089 -24.482 -13.990  0.00  0.00    +0.029 C 
ATOM     10  C   UNL     1      37.004 -25.343 -12.010  0.00  0.00    -0.004 C 
ATOM     11  C   UNL     1      38.162 -25.122 -12.750  0.00  0.00    +0.002 C 
ATOM     12  H   UNL     1      33.410 -24.032 -12.635  0.00  0.00    +0.154 HD
ENDROOT
BRANCH   1  15
ATOM     13  N   UNL     1      28.128 -24.529 -15.426  0.00  0.00    -0.236 N 
ATOM     14  N   UNL     1      27.931 -23.420 -16.160  0.00  0.00    -0.180 NA
ATOM     15  C   UNL     1      31.981 -24.221 -14.041  0.00  0.00    +0.050 C 
ATOM     16  C   UNL     1      30.041 -23.468 -15.274  0.00  0.00    +0.037 C 
ATOM     17  C   UNL     1      29.373 -24.618 -14.867  0.00  0.00    +0.067 C 
ATOM     18  C   UNL     1      31.366 -23.258 -14.858  0.00  0.00    +0.018 C 
ATOM     19  C   UNL     1      31.279 -25.368 -13.649  0.00  0.00    +0.016 C 
ATOM     20  C   UNL     1      29.959 -25.591 -14.054  0.00  0.00    +0.017 C 
ATOM     21  C   UNL     1      29.098 -22.778 -16.065  0.00  0.00    +0.119 C 
ATOM     22  H   UNL     1      27.435 -25.217 -15.303  0.00  0.00    +0.174 HD
ENDBRANCH   1  15
BRANCH   7  24
ATOM     23  N   UNL     1      34.323 -22.273 -17.963  0.00  0.00    -0.398 NA
ATOM     24  C   UNL     1      35.558 -22.395 -17.425  0.00  0.00    +0.197 C 
ATOM     25  C   UNL     1      36.715 -21.932 -18.036  0.00  0.00    +0.098 C 
ATOM     26  C   UNL     1      34.246 -21.660 -19.166  0.00  0.00    +0.110 C 
ATOM     27  C   UNL     1      36.596 -21.308 -19.272  0.00  0.00    -0.016 C 
ATOM     28  C   UNL     1      35.341 -21.165 -19.855  0.00  0.00    +0.023 C 
ATOM     29  C   UNL     1      32.885 -21.525 -19.762  0.00  0.00    +0.066 C 
ENDBRANCH   7  24
TORSDOF 2
ENDMDL
MODEL 4
REMARK VINA RESULT:     -12.1      2.058      6.351
REMARK  Name = 9998128
REMARK  2 active torsions:
REMARK  status: ('A' for Active; 'I' for Inactive)
REMARK    1  A    between atoms: N_1  and  C_15
REMARK    2  A    between atoms: C_7  and  C_24
REMARK                            x       y       z     vdW  Elec       q    Type
REMARK                         _______ _______ _______ _____ _____    ______ ____
ROOT
ATOM      1  N   UNL     1      35.339 -22.708 -17.710  0.00  0.00    -0.290 N 
ATOM      2  N   UNL     1      33.326 -23.238 -16.611  0.00  0.00    -0.327 NA
ATOM      3  N   UNL     1      33.335 -23.964 -14.314  0.00  0.00    -0.342 NA
ATOM      4  C   UNL     1      35.407 -23.435 -15.398  0.00  0.00    +0.143 C 
ATOM      5  C   UNL     1      34.667 -23.140 -16.540  0.00  0.00    +0.184 C 
ATOM      6  C   UNL     1      34.675 -23.856 -14.276  0.00  0.00    +0.133 C 
ATOM      7  C   UNL     1      32.733 -23.650 -15.479  0.00  0.00    +0.165 C 
ATOM      8  C   UNL     1      36.808 -23.326 -15.347  0.00  0.00    -0.011 C 
ATOM      9  C   UNL     1      35.381 -24.161 -13.115  0.00  0.00    +0.029 C 
ATOM     10  C   UNL     1      37.488 -23.636 -14.174  0.00  0.00    -0.004 C 
ATOM     11  C   UNL     1      36.773 -24.054 -13.056  0.00  0.00    +0.002 C 
ATOM     12  H   UNL     1      36.249 -23.072 -17.804  0.00  0.00    +0.154 HD
ENDROOT
BRANCH   1  15
ATOM     13  N   UNL     1      34.118 -19.320 -21.878  0.00  0.00    -0.236 N 
ATOM     14  N   UNL     1      35.311 -18.839 -22.266  0.00  0.00    -0.180 NA
ATOM     15  C   UNL     1      34.957 -21.862 -18.763  0.00  0.00    +0.050 C 
ATOM     16  C   UNL     1      35.533 -20.298 -20.517  0.00  0.00    +0.037 C 
ATOM     17  C   UNL     1      34.182 -20.201 -20.833  0.00  0.00    +0.067 C 
ATOM     18  C   UNL     1      35.935 -21.140 -19.467  0.00  0.00    +0.018 C 
ATOM     19  C   UNL     1      33.604 -21.740 -19.107  0.00  0.00    +0.016 C 
ATOM     20  C   UNL     1      33.188 -20.907 -20.150  0.00  0.00    +0.017 C 
ATOM     21  C   UNL     1      36.169 -19.436 -21.436  0.00  0.00    +0.119 C 
ATOM     22  H   UNL     1      33.272 -19.062 -22.309  0.00  0.00    +0.174 HD
ENDBRANCH   1  15
BRANCH   7  24
ATOM     23  N   UNL     1      30.791 -24.797 -14.796  0.00  0.00    -0.398 NA
ATOM     24  C   UNL     1      31.299 -23.768 -15.512  0.00  0.00    +0.197 C 
ATOM     25  C   UNL     1      30.522 -22.875 -16.237  0.00  0.00    +0.098 C 
ATOM     26  C   UNL     1      29.446 -24.934 -14.807  0.00  0.00    +0.110 C 
ATOM     27  C   UNL     1      29.144 -23.049 -16.225  0.00  0.00    -0.016 C 
ATOM     28  C   UNL     1      28.586 -24.096 -15.498  0.00  0.00    +0.023 C 
ATOM     29  C   UNL     1      28.884 -26.069 -14.017  0.00  0.00    +0.066 C 
ENDBRANCH   7  24
TORSDOF 2
ENDMDL
MODEL 5
REMARK VINA RESULT:     -11.9      1.972      6.072
REMARK  Name = 9998128
REMARK  2 active torsions:
REMARK  status: ('A' for Active; 'I' for Inactive)
REMARK    1  A    between atoms: N_1  and  C_15
REMARK    2  A    between atoms: C_7  and  C_24
REMARK                            x       y       z     vdW  Elec       q    Type
REMARK                         _______ _______ _______ _____ _____    ______ ____
ROOT
ATOM      1  N   UNL     1      35.290 -23.082 -16.860  0.00  0.00    -0.290 N 
ATOM      2  N   UNL     1      33.285 -23.744 -15.822  0.00  0.00    -0.327 NA
ATOM      3  N   UNL     1      33.246 -24.334 -13.486  0.00  0.00    -0.342 NA
ATOM      4  C   UNL     1      35.311 -23.666 -14.506  0.00  0.00    +0.143 C 
ATOM      5  C   UNL     1      34.605 -23.511 -15.696  0.00  0.00    +0.184 C 
ATOM      6  C   UNL     1      34.566 -24.092 -13.395  0.00  0.00    +0.133 C 
ATOM      7  C   UNL     1      32.677 -24.147 -14.695  0.00  0.00    +0.165 C 
ATOM      8  C   UNL     1      36.690 -23.416 -14.399  0.00  0.00    -0.011 C 
ATOM      9  C   UNL     1      35.237 -24.259 -12.186  0.00  0.00    +0.029 C 
ATOM     10  C   UNL     1      37.336 -23.591 -13.180  0.00  0.00    -0.004 C 
ATOM     11  C   UNL     1      36.609 -24.013 -12.071  0.00  0.00    +0.002 C 
ATOM     12  H   UNL     1      36.235 -23.360 -16.889  0.00  0.00    +0.154 HD
ENDROOT
BRANCH   1  15
ATOM     13  N   UNL     1      33.967 -20.083 -21.286  0.00  0.00    -0.236 N 
ATOM     14  N   UNL     1      35.136 -19.546 -21.676  0.00  0.00    -0.180 NA
ATOM     15  C   UNL     1      34.884 -22.340 -17.979  0.00  0.00    +0.050 C 
ATOM     16  C   UNL     1      35.404 -20.862 -19.823  0.00  0.00    +0.037 C 
ATOM     17  C   UNL     1      34.060 -20.883 -20.180  0.00  0.00    +0.067 C 
ATOM     18  C   UNL     1      35.831 -21.600 -18.707  0.00  0.00    +0.018 C 
ATOM     19  C   UNL     1      33.537 -22.338 -18.365  0.00  0.00    +0.016 C 
ATOM     20  C   UNL     1      33.096 -21.609 -19.475  0.00  0.00    +0.017 C 
ATOM     21  C   UNL     1      36.007 -20.023 -20.784  0.00  0.00    +0.119 C 
ATOM     22  H   UNL     1      33.119 -19.915 -21.756  0.00  0.00    +0.174 HD
ENDBRANCH   1  15
BRANCH   7  24
ATOM     23  N   UNL     1      30.567 -23.537 -15.551  0.00  0.00    -0.398 NA
ATOM     24  C   UNL     1      31.264 -24.407 -14.785  0.00  0.00    +0.197 C 
ATOM     25  C   UNL     1      30.689 -25.481 -14.120  0.00  0.00    +0.098 C 
ATOM     26  C   UNL     1      29.237 -23.755 -15.655  0.00  0.00    +0.110 C 
ATOM     27  C   UNL     1      29.319 -25.673 -14.251  0.00  0.00    -0.016 C 
ATOM     28  C   UNL     1      28.571 -24.797 -15.031  0.00  0.00    +0.023 C 
ATOM     29  C   UNL     1      28.467 -22.796 -16.499  0.00  0.00    +0.066 C 
ENDBRANCH   7  24
TORSDOF 2
ENDMDL
MODEL 6
REMARK VINA RESULT:     -11.2      2.054      7.381
REMARK  Name = 9998128
REMARK  2 active torsions:
REMARK  status: ('A' for Active; 'I' for Inactive)
REMARK    1  A    between atoms: N_1  and  C_15
REMARK    2  A    between atoms: C_7  and  C_24
REMARK                            x       y       z     vdW  Elec       q    Type
REMARK                         _______ _______ _______ _____ _____    ______ ____
ROOT
ATOM      1  N   UNL     1      32.083 -22.567 -17.059  0.00  0.00    -0.290 N 
ATOM      2  N   UNL     1      33.378 -23.372 -15.267  0.00  0.00    -0.327 NA
ATOM      3  N   UNL     1      32.438 -24.905 -13.663  0.00  0.00    -0.342 NA
ATOM      4  C   UNL     1      31.084 -24.108 -15.474  0.00  0.00    +0.143 C 
ATOM      5  C   UNL     1      32.188 -23.372 -15.898  0.00  0.00    +0.184 C 
ATOM      6  C   UNL     1      31.263 -24.882 -14.317  0.00  0.00    +0.133 C 
ATOM      7  C   UNL     1      33.431 -24.149 -14.173  0.00  0.00    +0.165 C 
ATOM      8  C   UNL     1      29.852 -24.091 -16.150  0.00  0.00    -0.011 C 
ATOM      9  C   UNL     1      30.181 -25.632 -13.862  0.00  0.00    +0.029 C 
ATOM     10  C   UNL     1      28.787 -24.850 -15.674  0.00  0.00    -0.004 C 
ATOM     11  C   UNL     1      28.952 -25.621 -14.528  0.00  0.00    +0.002 C 
ATOM     12  H   UNL     1      31.176 -22.216 -17.219  0.00  0.00    +0.154 HD
ENDROOT
BRANCH   1  15
ATOM     13  N   UNL     1      35.557 -20.857 -20.976  0.00  0.00    -0.236 N 
ATOM     14  N   UNL     1      34.817 -20.023 -21.726  0.00  0.00    -0.180 NA
ATOM     15  C   UNL     1      33.020 -22.173 -18.027  0.00  0.00    +0.050 C 
ATOM     16  C   UNL     1      33.595 -20.891 -19.996  0.00  0.00    +0.037 C 
ATOM     17  C   UNL     1      34.883 -21.411 -19.923  0.00  0.00    +0.067 C 
ATOM     18  C   UNL     1      32.643 -21.273 -19.037  0.00  0.00    +0.018 C 
ATOM     19  C   UNL     1      34.326 -22.678 -17.982  0.00  0.00    +0.016 C 
ATOM     20  C   UNL     1      35.286 -22.308 -18.930  0.00  0.00    +0.017 C 
ATOM     21  C   UNL     1      33.624 -20.046 -21.126  0.00  0.00    +0.119 C 
ATOM     22  H   UNL     1      36.502 -21.052 -21.169  0.00  0.00    +0.174 HD
ENDBRANCH   1  15
BRANCH   7  24
ATOM     23  N   UNL     1      34.592 -24.409 -12.138  0.00  0.00    -0.398 NA
ATOM     24  C   UNL     1      34.686 -24.179 -13.468  0.00  0.00    +0.197 C 
ATOM     25  C   UNL     1      35.888 -23.981 -14.133  0.00  0.00    +0.098 C 
ATOM     26  C   UNL     1      35.754 -24.442 -11.447  0.00  0.00    +0.110 C 
ATOM     27  C   UNL     1      37.061 -24.022 -13.389  0.00  0.00    -0.016 C 
ATOM     28  C   UNL     1      37.002 -24.257 -12.019  0.00  0.00    +0.023 C 
ATOM     29  C   UNL     1      35.652 -24.696  -9.980  0.00  0.00    +0.066 C 
ENDBRANCH   7  24
TORSDOF 2
ENDMDL
MODEL 7
REMARK VINA RESULT:     -11.1      2.038      6.162
REMARK  Name = 9998128
REMARK  2 active torsions:
REMARK  status: ('A' for Active; 'I' for Inactive)
REMARK    1  A    between atoms: N_1  and  C_15
REMARK    2  A    between atoms: C_7  and  C_24
REMARK                            x       y       z     vdW  Elec       q    Type
REMARK                         _______ _______ _______ _____ _____    ______ ____
ROOT
ATOM      1  N   UNL     1      35.799 -23.207 -16.574  0.00  0.00    -0.290 N 
ATOM      2  N   UNL     1      33.636 -23.595 -15.735  0.00  0.00    -0.327 NA
ATOM      3  N   UNL     1      33.303 -24.191 -13.424  0.00  0.00    -0.342 NA
ATOM      4  C   UNL     1      35.524 -23.805 -14.240  0.00  0.00    +0.143 C 
ATOM      5  C   UNL     1      34.958 -23.546 -15.486  0.00  0.00    +0.184 C 
ATOM      6  C   UNL     1      34.629 -24.133 -13.210  0.00  0.00    +0.133 C 
ATOM      7  C   UNL     1      32.878 -23.919 -14.675  0.00  0.00    +0.165 C 
ATOM      8  C   UNL     1      36.909 -23.748 -14.005  0.00  0.00    -0.011 C 
ATOM      9  C   UNL     1      35.158 -24.400 -11.949  0.00  0.00    +0.029 C 
ATOM     10  C   UNL     1      37.410 -24.018 -12.736  0.00  0.00    -0.004 C 
ATOM     11  C   UNL     1      36.533 -24.345 -11.707  0.00  0.00    +0.002 C 
ATOM     12  H   UNL     1      36.696 -23.611 -16.524  0.00  0.00    +0.154 HD
ENDROOT
BRANCH   1  15
ATOM     13  N   UNL     1      34.741 -20.114 -21.007  0.00  0.00    -0.236 N 
ATOM     14  N   UNL     1      33.401 -20.141 -21.110  0.00  0.00    -0.180 NA
ATOM     15  C   UNL     1      35.602 -22.408 -17.711  0.00  0.00    +0.050 C 
ATOM     16  C   UNL     1      34.121 -21.369 -19.319  0.00  0.00    +0.037 C 
ATOM     17  C   UNL     1      35.236 -20.832 -19.953  0.00  0.00    +0.067 C 
ATOM     18  C   UNL     1      34.298 -22.171 -18.179  0.00  0.00    +0.018 C 
ATOM     19  C   UNL     1      36.703 -21.851 -18.375  0.00  0.00    +0.016 C 
ATOM     20  C   UNL     1      36.543 -21.051 -19.511  0.00  0.00    +0.017 C 
ATOM     21  C   UNL     1      33.028 -20.905 -20.081  0.00  0.00    +0.119 C 
ATOM     22  H   UNL     1      35.315 -19.621 -21.637  0.00  0.00    +0.174 HD
ENDBRANCH   1  15
BRANCH   7  24
ATOM     23  N   UNL     1      30.835 -25.044 -14.334  0.00  0.00    -0.398 NA
ATOM     24  C   UNL     1      31.457 -23.983 -14.897  0.00  0.00    +0.197 C 
ATOM     25  C   UNL     1      30.803 -23.011 -15.640  0.00  0.00    +0.098 C 
ATOM     26  C   UNL     1      29.499 -25.132 -14.524  0.00  0.00    +0.110 C 
ATOM     27  C   UNL     1      29.430 -23.136 -15.815  0.00  0.00    -0.016 C 
ATOM     28  C   UNL     1      28.757 -24.214 -15.249  0.00  0.00    +0.023 C 
ATOM     29  C   UNL     1      28.811 -26.302 -13.905  0.00  0.00    +0.066 C 
ENDBRANCH   7  24
TORSDOF 2
ENDMDL
MODEL 8
REMARK VINA RESULT:      -9.9      1.885      6.316
REMARK  Name = 9998128
REMARK  2 active torsions:
REMARK  status: ('A' for Active; 'I' for Inactive)
REMARK    1  A    between atoms: N_1  and  C_15
REMARK    2  A    between atoms: C_7  and  C_24
REMARK                            x       y       z     vdW  Elec       q    Type
REMARK                         _______ _______ _______ _____ _____    ______ ____
ROOT
ATOM      1  N   UNL     1      33.206 -23.390 -17.194  0.00  0.00    -0.290 N 
ATOM      2  N   UNL     1      35.239 -23.528 -16.017  0.00  0.00    -0.327 NA
ATOM      3  N   UNL     1      37.199 -22.371 -16.809  0.00  0.00    -0.342 NA
ATOM      4  C   UNL     1      35.147 -22.205 -18.038  0.00  0.00    +0.143 C 
ATOM      5  C   UNL     1      34.573 -23.032 -17.076  0.00  0.00    +0.184 C 
ATOM      6  C   UNL     1      36.503 -21.893 -17.856  0.00  0.00    +0.133 C 
ATOM      7  C   UNL     1      36.530 -23.163 -15.947  0.00  0.00    +0.165 C 
ATOM      8  C   UNL     1      34.429 -21.700 -19.136  0.00  0.00    -0.011 C 
ATOM      9  C   UNL     1      37.113 -21.068 -18.798  0.00  0.00    +0.029 C 
ATOM     10  C   UNL     1      35.063 -20.877 -20.062  0.00  0.00    -0.004 C 
ATOM     11  C   UNL     1      36.407 -20.561 -19.893  0.00  0.00    +0.002 C 
ATOM     12  H   UNL     1      32.885 -23.432 -18.124  0.00  0.00    +0.154 HD
ENDROOT
BRANCH   1  15
ATOM     13  N   UNL     1      29.547 -24.725 -13.300  0.00  0.00    -0.236 N 
ATOM     14  N   UNL     1      30.273 -25.393 -12.386  0.00  0.00    -0.180 NA
ATOM     15  C   UNL     1      32.222 -23.696 -16.241  0.00  0.00    +0.050 C 
ATOM     16  C   UNL     1      31.571 -24.711 -14.143  0.00  0.00    +0.037 C 
ATOM     17  C   UNL     1      30.267 -24.290 -14.378  0.00  0.00    +0.067 C 
ATOM     18  C   UNL     1      32.571 -24.414 -15.085  0.00  0.00    +0.018 C 
ATOM     19  C   UNL     1      30.898 -23.287 -16.446  0.00  0.00    +0.016 C 
ATOM     20  C   UNL     1      29.892 -23.575 -15.519  0.00  0.00    +0.017 C 
ATOM     21  C   UNL     1      31.504 -25.382 -12.903  0.00  0.00    +0.119 C 
ATOM     22  H   UNL     1      28.581 -24.564 -13.200  0.00  0.00    +0.174 HD
ENDBRANCH   1  15
BRANCH   7  24
ATOM     23  N   UNL     1      38.385 -24.381 -15.153  0.00  0.00    -0.398 NA
ATOM     24  C   UNL     1      37.280 -23.670 -14.828  0.00  0.00    +0.197 C 
ATOM     25  C   UNL     1      36.874 -23.431 -13.523  0.00  0.00    +0.098 C 
ATOM     26  C   UNL     1      39.111 -24.872 -14.124  0.00  0.00    +0.110 C 
ATOM     27  C   UNL     1      37.646 -23.952 -12.492  0.00  0.00    -0.016 C 
ATOM     28  C   UNL     1      38.789 -24.688 -12.790  0.00  0.00    +0.023 C 
ATOM     29  C   UNL     1      40.329 -25.657 -14.481  0.00  0.00    +0.066 C 
ENDBRANCH   7  24
TORSDOF 2
ENDMDL
MODEL 9
REMARK VINA RESULT:      -9.8      1.577      6.738
REMARK  Name = 9998128
REMARK  2 active torsions:
REMARK  status: ('A' for Active; 'I' for Inactive)
REMARK    1  A    between atoms: N_1  and  C_15
REMARK    2  A    between atoms: C_7  and  C_24
REMARK                            x       y       z     vdW  Elec       q    Type
REMARK                         _______ _______ _______ _____ _____    ______ ____
ROOT
ATOM      1  N   UNL     1      32.915 -23.246 -17.542  0.00  0.00    -0.290 N 
ATOM      2  N   UNL     1      34.744 -23.472 -16.078  0.00  0.00    -0.327 NA
ATOM      3  N   UNL     1      36.864 -22.450 -16.592  0.00  0.00    -0.342 NA
ATOM      4  C   UNL     1      35.026 -22.196 -18.111  0.00  0.00    +0.143 C 
ATOM      5  C   UNL     1      34.269 -22.965 -17.231  0.00  0.00    +0.184 C 
ATOM      6  C   UNL     1      36.358 -21.958 -17.737  0.00  0.00    +0.133 C 
ATOM      7  C   UNL     1      36.029 -23.180 -15.825  0.00  0.00    +0.165 C 
ATOM      8  C   UNL     1      34.508 -21.678 -19.311  0.00  0.00    -0.011 C 
ATOM      9  C   UNL     1      37.147 -21.193 -18.593  0.00  0.00    +0.029 C 
ATOM     10  C   UNL     1      35.318 -20.917 -20.147  0.00  0.00    -0.004 C 
ATOM     11  C   UNL     1      36.640 -20.674 -19.787  0.00  0.00    +0.002 C 
ATOM     12  H   UNL     1      32.731 -23.293 -18.509  0.00  0.00    +0.154 HD
ENDROOT
BRANCH   1  15
ATOM     13  N   UNL     1      28.334 -23.963 -14.569  0.00  0.00    -0.236 N 
ATOM     14  N   UNL     1      27.404 -23.252 -15.228  0.00  0.00    -0.180 NA
ATOM     15  C   UNL     1      31.786 -23.472 -16.739  0.00  0.00    +0.050 C 
ATOM     16  C   UNL     1      29.439 -23.124 -16.268  0.00  0.00    +0.037 C 
ATOM     17  C   UNL     1      29.577 -23.927 -15.141  0.00  0.00    +0.067 C 
ATOM     18  C   UNL     1      30.557 -22.887 -17.085  0.00  0.00    +0.018 C 
ATOM     19  C   UNL     1      31.890 -24.275 -15.596  0.00  0.00    +0.016 C 
ATOM     20  C   UNL     1      30.787 -24.521 -14.773  0.00  0.00    +0.017 C 
ATOM     21  C   UNL     1      28.080 -22.743 -16.261  0.00  0.00    +0.119 C 
ATOM     22  H   UNL     1      28.138 -24.466 -13.746  0.00  0.00    +0.174 HD
ENDBRANCH   1  15
BRANCH   7  24
ATOM     23  N   UNL     1      37.735 -24.389 -14.737  0.00  0.00    -0.398 NA
ATOM     24  C   UNL     1      36.578 -23.702 -14.601  0.00  0.00    +0.197 C 
ATOM     25  C   UNL     1      35.940 -23.499 -13.385  0.00  0.00    +0.098 C 
ATOM     26  C   UNL     1      38.275 -24.893 -13.604  0.00  0.00    +0.110 C 
ATOM     27  C   UNL     1      36.525 -24.033 -12.243  0.00  0.00    -0.016 C 
ATOM     28  C   UNL     1      37.716 -24.745 -12.345  0.00  0.00    +0.023 C 
ATOM     29  C   UNL     1      39.552 -25.652 -13.752  0.00  0.00    +0.066 C 
ENDBRANCH   7  24
TORSDOF 2
ENDMDL
