MODEL 1
REMARK VINA RESULT:     -11.7      0.000      0.000
REMARK  Name = 449162
REMARK  12 active torsions:
REMARK  status: ('A' for Active; 'I' for Inactive)
REMARK    1  A    between atoms: C_1  and  C_9
REMARK    2  A    between atoms: C_3  and  C_19
REMARK    3  A    between atoms: C_10  and  C_16
REMARK    4  A    between atoms: C_11  and  C_13
REMARK    5  A    between atoms: C_13  and  O_14
REMARK    6  A    between atoms: C_16  and  O_17
REMARK    7  A    between atoms: C_20  and  C_21
REMARK    8  A    between atoms: C_21  and  O_22
REMARK    9  A    between atoms: O_22  and  C_23
REMARK   10  A    between atoms: C_24  and  C_32
REMARK   11  A    between atoms: C_25  and  O_29
REMARK   12  A    between atoms: C_32  and  O_33
REMARK                            x       y       z     vdW  Elec       q    Type
REMARK                         _______ _______ _______ _____ _____    ______ ____
ROOT
ATOM      1  C   UNL     1      35.264 -18.671 -22.083  0.00  0.00    +0.037 C 
ATOM      2  C   UNL     1      34.462 -19.584 -21.398  0.00  0.00    +0.003 C 
ATOM      3  C   UNL     1      35.019 -20.405 -20.418  0.00  0.00    -0.000 C 
ATOM      4  C   UNL     1      36.624 -18.578 -21.786  0.00  0.00    +0.003 C 
ATOM      5  C   UNL     1      36.379 -20.313 -20.120  0.00  0.00    -0.000 C 
ATOM      6  C   UNL     1      37.181 -19.400 -20.805  0.00  0.00    +0.000 C 
ENDROOT
BRANCH   1   9
ATOM      7  O   UNL     1      34.189 -18.472 -24.176  0.00  0.00    -0.353 OA
ATOM      8  N   UNL     1      33.673 -17.539 -25.066  0.00  0.00    -0.071 NA
ATOM      9  C   UNL     1      34.689 -17.822 -23.097  0.00  0.00    +0.175 A 
ATOM     10  C   UNL     1      34.522 -16.476 -23.240  0.00  0.00    +0.071 A 
ATOM     11  C   UNL     1      33.883 -16.353 -24.485  0.00  0.00    +0.196 A 
BRANCH  11  13
ATOM     12  O   UNL     1      33.746 -14.844 -26.315  0.00  0.00    -0.243 OA
ATOM     13  C   UNL     1      33.461 -15.153 -25.148  0.00  0.00    +0.359 C 
BRANCH  13  14
ATOM     14  O   UNL     1      32.683 -14.314 -24.389  0.00  0.00    -0.476 OA
ATOM     15  H   UNL     1      32.952 -14.084 -23.522  0.00  0.00    +0.295 HD
ENDBRANCH  13  14
ENDBRANCH  11  13
BRANCH  10  16
ATOM     16  C   UNL     1      34.919 -15.405 -22.309  0.00  0.00    +0.169 C 
BRANCH  16  17
ATOM     17  O   UNL     1      33.796 -14.697 -21.774  0.00  0.00    -0.377 OA
ATOM     18  H   UNL     1      33.126 -15.332 -21.474  0.00  0.00    +0.211 HD
ENDBRANCH  16  17
ENDBRANCH  10  16
ENDBRANCH   1   9
BRANCH   3  19
ATOM     19  C   UNL     1      34.181 -21.357 -19.705  0.00  0.00    -0.001 C 
ATOM     20  C   UNL     1      34.605 -22.250 -18.783  0.00  0.00    +0.021 C 
BRANCH  20  21
ATOM     21  C   UNL     1      33.701 -23.200 -18.064  0.00  0.00    +0.232 C 
BRANCH  21  22
ATOM     22  O   UNL     1      34.379 -23.697 -16.918  0.00  0.00    -0.470 OA
BRANCH  22  23
ATOM     23  C   UNL     1      33.649 -23.792 -15.762  0.00  0.00    +0.148 C 
ATOM     24  C   UNL     1      34.186 -24.401 -14.632  0.00  0.00    +0.143 C 
ATOM     25  C   UNL     1      33.425 -24.486 -13.465  0.00  0.00    +0.143 C 
ATOM     26  C   UNL     1      32.361 -23.267 -15.737  0.00  0.00    +0.037 C 
ATOM     27  C   UNL     1      32.133 -23.963 -13.435  0.00  0.00    +0.037 C 
ATOM     28  C   UNL     1      31.601 -23.354 -14.571  0.00  0.00    +0.006 C 
BRANCH  25  29
ATOM     29  O   UNL     1      33.927 -25.077 -12.344  0.00  0.00    -0.505 OA
ATOM     30  H   UNL     1      34.649 -25.671 -12.409  0.00  0.00    +0.292 HD
ENDBRANCH  25  29
BRANCH  24  32
ATOM     31  O   UNL     1      35.846 -26.011 -15.211  0.00  0.00    -0.245 OA
ATOM     32  C   UNL     1      35.538 -24.948 -14.664  0.00  0.00    +0.347 C 
BRANCH  32  33
ATOM     33  O   UNL     1      36.420 -24.134 -14.010  0.00  0.00    -0.441 OA
ATOM     34  C   UNL     1      37.218 -23.267 -14.823  0.00  0.00    +0.256 C 
ENDBRANCH  32  33
ENDBRANCH  24  32
ENDBRANCH  22  23
ENDBRANCH  21  22
ENDBRANCH  20  21
ENDBRANCH   3  19
TORSDOF 12
ENDMDL
MODEL 2
REMARK VINA RESULT:     -11.0      2.505      3.604
REMARK  Name = 449162
REMARK  12 active torsions:
REMARK  status: ('A' for Active; 'I' for Inactive)
REMARK    1  A    between atoms: C_1  and  C_9
REMARK    2  A    between atoms: C_3  and  C_19
REMARK    3  A    between atoms: C_10  and  C_16
REMARK    4  A    between atoms: C_11  and  C_13
REMARK    5  A    between atoms: C_13  and  O_14
REMARK    6  A    between atoms: C_16  and  O_17
REMARK    7  A    between atoms: C_20  and  C_21
REMARK    8  A    between atoms: C_21  and  O_22
REMARK    9  A    between atoms: O_22  and  C_23
REMARK   10  A    between atoms: C_24  and  C_32
REMARK   11  A    between atoms: C_25  and  O_29
REMARK   12  A    between atoms: C_32  and  O_33
REMARK                            x       y       z     vdW  Elec       q    Type
REMARK                         _______ _______ _______ _____ _____    ______ ____
ROOT
ATOM      1  C   UNL     1      34.522 -20.095 -20.458  0.00  0.00    +0.037 C 
ATOM      2  C   UNL     1      35.566 -20.586 -19.675  0.00  0.00    +0.003 C 
ATOM      3  C   UNL     1      35.355 -21.683 -18.840  0.00  0.00    -0.000 C 
ATOM      4  C   UNL     1      33.266 -20.701 -20.407  0.00  0.00    +0.003 C 
ATOM      5  C   UNL     1      34.100 -22.290 -18.788  0.00  0.00    -0.000 C 
ATOM      6  C   UNL     1      33.056 -21.799 -19.572  0.00  0.00    +0.000 C 
ENDROOT
BRANCH   1   9
ATOM      7  O   UNL     1      35.127 -17.824 -20.694  0.00  0.00    -0.353 OA
ATOM      8  N   UNL     1      35.296 -16.820 -21.639  0.00  0.00    -0.071 NA
ATOM      9  C   UNL     1      34.737 -18.960 -21.322  0.00  0.00    +0.175 A 
ATOM     10  C   UNL     1      34.641 -18.745 -22.665  0.00  0.00    +0.071 A 
ATOM     11  C   UNL     1      35.000 -17.394 -22.809  0.00  0.00    +0.196 A 
BRANCH  11  13
ATOM     12  O   UNL     1      34.666 -16.994 -25.127  0.00  0.00    -0.243 OA
ATOM     13  C   UNL     1      35.075 -16.622 -24.017  0.00  0.00    +0.359 C 
BRANCH  13  14
ATOM     14  O   UNL     1      35.653 -15.385 -23.880  0.00  0.00    -0.476 OA
ATOM     15  H   UNL     1      35.657 -14.960 -23.045  0.00  0.00    +0.295 HD
ENDBRANCH  13  14
ENDBRANCH  11  13
BRANCH  10  16
ATOM     16  C   UNL     1      34.251 -19.702 -23.715  0.00  0.00    +0.169 C 
BRANCH  16  17
ATOM     17  O   UNL     1      33.128 -19.250 -24.481  0.00  0.00    -0.377 OA
ATOM     18  H   UNL     1      32.387 -19.059 -23.886  0.00  0.00    +0.211 HD
ENDBRANCH  16  17
ENDBRANCH  10  16
ENDBRANCH   1   9
BRANCH   3  19
ATOM     19  C   UNL     1      36.445 -22.194 -18.023  0.00  0.00    -0.001 C 
ATOM     20  C   UNL     1      36.479 -22.217 -16.671  0.00  0.00    +0.021 C 
BRANCH  20  21
ATOM     21  C   UNL     1      37.617 -22.769 -15.875  0.00  0.00    +0.232 C 
BRANCH  21  22
ATOM     22  O   UNL     1      37.313 -24.107 -15.507  0.00  0.00    -0.470 OA
BRANCH  22  23
ATOM     23  C   UNL     1      37.039 -24.338 -14.185  0.00  0.00    +0.148 C 
ATOM     24  C   UNL     1      37.140 -25.619 -13.652  0.00  0.00    +0.143 C 
ATOM     25  C   UNL     1      36.856 -25.831 -12.302  0.00  0.00    +0.143 C 
ATOM     26  C   UNL     1      36.657 -23.267 -13.383  0.00  0.00    +0.037 C 
ATOM     27  C   UNL     1      36.472 -24.762 -11.494  0.00  0.00    +0.037 C 
ATOM     28  C   UNL     1      36.373 -23.480 -12.034  0.00  0.00    +0.006 C 
BRANCH  25  29
ATOM     29  O   UNL     1      36.949 -27.076 -11.754  0.00  0.00    -0.505 OA
ATOM     30  H   UNL     1      37.348 -27.773 -12.238  0.00  0.00    +0.292 HD
ENDBRANCH  25  29
BRANCH  24  32
ATOM     31  O   UNL     1      36.843 -27.216 -15.397  0.00  0.00    -0.245 OA
ATOM     32  C   UNL     1      37.542 -26.738 -14.498  0.00  0.00    +0.347 C 
BRANCH  32  33
ATOM     33  O   UNL     1      38.790 -27.188 -14.169  0.00  0.00    -0.441 OA
ATOM     34  C   UNL     1      39.883 -26.301 -14.427  0.00  0.00    +0.256 C 
ENDBRANCH  32  33
ENDBRANCH  24  32
ENDBRANCH  22  23
ENDBRANCH  21  22
ENDBRANCH  20  21
ENDBRANCH   3  19
TORSDOF 12
ENDMDL
MODEL 3
REMARK VINA RESULT:     -10.8      1.715      3.621
REMARK  Name = 449162
REMARK  12 active torsions:
REMARK  status: ('A' for Active; 'I' for Inactive)
REMARK    1  A    between atoms: C_1  and  C_9
REMARK    2  A    between atoms: C_3  and  C_19
REMARK    3  A    between atoms: C_10  and  C_16
REMARK    4  A    between atoms: C_11  and  C_13
REMARK    5  A    between atoms: C_13  and  O_14
REMARK    6  A    between atoms: C_16  and  O_17
REMARK    7  A    between atoms: C_20  and  C_21
REMARK    8  A    between atoms: C_21  and  O_22
REMARK    9  A    between atoms: O_22  and  C_23
REMARK   10  A    between atoms: C_24  and  C_32
REMARK   11  A    between atoms: C_25  and  O_29
REMARK   12  A    between atoms: C_32  and  O_33
REMARK                            x       y       z     vdW  Elec       q    Type
REMARK                         _______ _______ _______ _____ _____    ______ ____
ROOT
ATOM      1  C   UNL     1      34.305 -20.298 -20.739  0.00  0.00    +0.037 C 
ATOM      2  C   UNL     1      35.437 -20.710 -20.037  0.00  0.00    +0.003 C 
ATOM      3  C   UNL     1      35.310 -21.586 -18.960  0.00  0.00    -0.000 C 
ATOM      4  C   UNL     1      33.044 -20.763 -20.364  0.00  0.00    +0.003 C 
ATOM      5  C   UNL     1      34.049 -22.052 -18.584  0.00  0.00    -0.000 C 
ATOM      6  C   UNL     1      32.917 -21.640 -19.286  0.00  0.00    +0.000 C 
ENDROOT
BRANCH   1   9
ATOM      7  O   UNL     1      34.022 -19.883 -23.046  0.00  0.00    -0.353 OA
ATOM      8  N   UNL     1      34.204 -18.911 -24.023  0.00  0.00    -0.071 NA
ATOM      9  C   UNL     1      34.435 -19.391 -21.853  0.00  0.00    +0.175 A 
ATOM     10  C   UNL     1      34.890 -18.114 -22.003  0.00  0.00    +0.071 A 
ATOM     11  C   UNL     1      34.723 -17.863 -23.376  0.00  0.00    +0.196 A 
BRANCH  11  13
ATOM     12  O   UNL     1      34.719 -16.440 -25.277  0.00  0.00    -0.243 OA
ATOM     13  C   UNL     1      35.037 -16.666 -24.101  0.00  0.00    +0.359 C 
BRANCH  13  14
ATOM     14  O   UNL     1      35.747 -15.728 -23.391  0.00  0.00    -0.476 OA
ATOM     15  H   UNL     1      35.681 -15.700 -22.457  0.00  0.00    +0.295 HD
ENDBRANCH  13  14
ENDBRANCH  11  13
BRANCH  10  16
ATOM     16  C   UNL     1      35.429 -17.212 -20.970  0.00  0.00    +0.169 C 
BRANCH  16  17
ATOM     17  O   UNL     1      34.624 -16.043 -20.787  0.00  0.00    -0.377 OA
ATOM     18  H   UNL     1      34.350 -15.980 -19.858  0.00  0.00    +0.211 HD
ENDBRANCH  16  17
ENDBRANCH  10  16
ENDBRANCH   1   9
BRANCH   3  19
ATOM     19  C   UNL     1      36.492 -22.015 -18.228  0.00  0.00    -0.001 C 
ATOM     20  C   UNL     1      36.721 -21.822 -16.909  0.00  0.00    +0.021 C 
BRANCH  20  21
ATOM     21  C   UNL     1      37.946 -22.296 -16.197  0.00  0.00    +0.232 C 
BRANCH  21  22
ATOM     22  O   UNL     1      37.567 -22.819 -14.931  0.00  0.00    -0.470 OA
BRANCH  22  23
ATOM     23  C   UNL     1      37.711 -24.169 -14.752  0.00  0.00    +0.148 C 
ATOM     24  C   UNL     1      36.604 -25.011 -14.780  0.00  0.00    +0.143 C 
ATOM     25  C   UNL     1      36.774 -26.384 -14.594  0.00  0.00    +0.143 C 
ATOM     26  C   UNL     1      38.985 -24.685 -14.540  0.00  0.00    +0.037 C 
ATOM     27  C   UNL     1      38.049 -26.906 -14.381  0.00  0.00    +0.037 C 
ATOM     28  C   UNL     1      39.154 -26.057 -14.354  0.00  0.00    +0.006 C 
BRANCH  25  29
ATOM     29  O   UNL     1      35.706 -27.231 -14.618  0.00  0.00    -0.505 OA
ATOM     30  H   UNL     1      35.470 -27.710 -13.848  0.00  0.00    +0.292 HD
ENDBRANCH  25  29
BRANCH  24  32
ATOM     31  O   UNL     1      34.662 -24.527 -16.076  0.00  0.00    -0.245 OA
ATOM     32  C   UNL     1      35.270 -24.464 -15.002  0.00  0.00    +0.347 C 
BRANCH  32  33
ATOM     33  O   UNL     1      34.778 -23.874 -13.871  0.00  0.00    -0.441 OA
ATOM     34  C   UNL     1      33.720 -24.561 -13.196  0.00  0.00    +0.256 C 
ENDBRANCH  32  33
ENDBRANCH  24  32
ENDBRANCH  22  23
ENDBRANCH  21  22
ENDBRANCH  20  21
ENDBRANCH   3  19
TORSDOF 12
ENDMDL
MODEL 4
REMARK VINA RESULT:     -10.7      1.181      2.384
REMARK  Name = 449162
REMARK  12 active torsions:
REMARK  status: ('A' for Active; 'I' for Inactive)
REMARK    1  A    between atoms: C_1  and  C_9
REMARK    2  A    between atoms: C_3  and  C_19
REMARK    3  A    between atoms: C_10  and  C_16
REMARK    4  A    between atoms: C_11  and  C_13
REMARK    5  A    between atoms: C_13  and  O_14
REMARK    6  A    between atoms: C_16  and  O_17
REMARK    7  A    between atoms: C_20  and  C_21
REMARK    8  A    between atoms: C_21  and  O_22
REMARK    9  A    between atoms: O_22  and  C_23
REMARK   10  A    between atoms: C_24  and  C_32
REMARK   11  A    between atoms: C_25  and  O_29
REMARK   12  A    between atoms: C_32  and  O_33
REMARK                            x       y       z     vdW  Elec       q    Type
REMARK                         _______ _______ _______ _____ _____    ______ ____
ROOT
ATOM      1  C   UNL     1      35.304 -18.830 -21.920  0.00  0.00    +0.037 C 
ATOM      2  C   UNL     1      34.489 -19.751 -21.262  0.00  0.00    +0.003 C 
ATOM      3  C   UNL     1      35.024 -20.573 -20.271  0.00  0.00    -0.000 C 
ATOM      4  C   UNL     1      36.655 -18.731 -21.586  0.00  0.00    +0.003 C 
ATOM      5  C   UNL     1      36.375 -20.475 -19.937  0.00  0.00    -0.000 C 
ATOM      6  C   UNL     1      37.190 -19.554 -20.595  0.00  0.00    +0.000 C 
ENDROOT
BRANCH   1   9
ATOM      7  O   UNL     1      34.291 -18.625 -24.043  0.00  0.00    -0.353 OA
ATOM      8  N   UNL     1      33.792 -17.690 -24.941  0.00  0.00    -0.071 NA
ATOM      9  C   UNL     1      34.752 -17.979 -22.945  0.00  0.00    +0.175 A 
ATOM     10  C   UNL     1      34.577 -16.633 -23.083  0.00  0.00    +0.071 A 
ATOM     11  C   UNL     1      33.974 -16.507 -24.346  0.00  0.00    +0.196 A 
BRANCH  11  13
ATOM     12  O   UNL     1      33.850 -15.002 -26.179  0.00  0.00    -0.243 OA
ATOM     13  C   UNL     1      33.561 -15.306 -25.013  0.00  0.00    +0.359 C 
BRANCH  13  14
ATOM     14  O   UNL     1      32.787 -14.460 -24.257  0.00  0.00    -0.476 OA
ATOM     15  H   UNL     1      33.185 -13.920 -23.604  0.00  0.00    +0.295 HD
ENDBRANCH  13  14
ENDBRANCH  11  13
BRANCH  10  16
ATOM     16  C   UNL     1      34.936 -15.566 -22.133  0.00  0.00    +0.169 C 
BRANCH  16  17
ATOM     17  O   UNL     1      34.549 -15.872 -20.789  0.00  0.00    -0.377 OA
ATOM     18  H   UNL     1      35.213 -16.453 -20.385  0.00  0.00    +0.211 HD
ENDBRANCH  16  17
ENDBRANCH  10  16
ENDBRANCH   1   9
BRANCH   3  19
ATOM     19  C   UNL     1      34.173 -21.534 -19.586  0.00  0.00    -0.001 C 
ATOM     20  C   UNL     1      34.553 -22.355 -18.581  0.00  0.00    +0.021 C 
BRANCH  20  21
ATOM     21  C   UNL     1      33.636 -23.316 -17.896  0.00  0.00    +0.232 C 
BRANCH  21  22
ATOM     22  O   UNL     1      33.422 -22.873 -16.563  0.00  0.00    -0.470 OA
BRANCH  22  23
ATOM     23  C   UNL     1      34.092 -23.545 -15.574  0.00  0.00    +0.148 C 
ATOM     24  C   UNL     1      33.423 -23.982 -14.435  0.00  0.00    +0.143 C 
ATOM     25  C   UNL     1      34.124 -24.664 -13.440  0.00  0.00    +0.143 C 
ATOM     26  C   UNL     1      35.454 -23.782 -15.728  0.00  0.00    +0.037 C 
ATOM     27  C   UNL     1      35.490 -24.904 -13.589  0.00  0.00    +0.037 C 
ATOM     28  C   UNL     1      36.155 -24.463 -14.733  0.00  0.00    +0.006 C 
BRANCH  25  29
ATOM     29  O   UNL     1      33.494 -25.105 -12.315  0.00  0.00    -0.505 OA
ATOM     30  H   UNL     1      32.995 -24.508 -11.793  0.00  0.00    +0.292 HD
ENDBRANCH  25  29
BRANCH  24  32
ATOM     31  O   UNL     1      31.496 -22.610 -14.138  0.00  0.00    -0.245 OA
ATOM     32  C   UNL     1      31.994 -23.731 -14.279  0.00  0.00    +0.347 C 
BRANCH  32  33
ATOM     33  O   UNL     1      31.278 -24.895 -14.311  0.00  0.00    -0.441 OA
ATOM     34  C   UNL     1      30.247 -24.989 -15.300  0.00  0.00    +0.256 C 
ENDBRANCH  32  33
ENDBRANCH  24  32
ENDBRANCH  22  23
ENDBRANCH  21  22
ENDBRANCH  20  21
ENDBRANCH   3  19
TORSDOF 12
ENDMDL
MODEL 5
REMARK VINA RESULT:     -10.6      2.989     10.575
REMARK  Name = 449162
REMARK  12 active torsions:
REMARK  status: ('A' for Active; 'I' for Inactive)
REMARK    1  A    between atoms: C_1  and  C_9
REMARK    2  A    between atoms: C_3  and  C_19
REMARK    3  A    between atoms: C_10  and  C_16
REMARK    4  A    between atoms: C_11  and  C_13
REMARK    5  A    between atoms: C_13  and  O_14
REMARK    6  A    between atoms: C_16  and  O_17
REMARK    7  A    between atoms: C_20  and  C_21
REMARK    8  A    between atoms: C_21  and  O_22
REMARK    9  A    between atoms: O_22  and  C_23
REMARK   10  A    between atoms: C_24  and  C_32
REMARK   11  A    between atoms: C_25  and  O_29
REMARK   12  A    between atoms: C_32  and  O_33
REMARK                            x       y       z     vdW  Elec       q    Type
REMARK                         _______ _______ _______ _____ _____    ______ ____
ROOT
ATOM      1  C   UNL     1      34.520 -23.613 -15.805  0.00  0.00    +0.037 C 
ATOM      2  C   UNL     1      34.285 -22.985 -17.028  0.00  0.00    +0.003 C 
ATOM      3  C   UNL     1      32.978 -22.738 -17.446  0.00  0.00    -0.000 C 
ATOM      4  C   UNL     1      33.447 -23.993 -14.999  0.00  0.00    +0.003 C 
ATOM      5  C   UNL     1      31.904 -23.119 -16.641  0.00  0.00    -0.000 C 
ATOM      6  C   UNL     1      32.139 -23.747 -15.418  0.00  0.00    +0.000 C 
ENDROOT
BRANCH   1   9
ATOM      7  O   UNL     1      36.682 -22.783 -15.341  0.00  0.00    -0.353 OA
ATOM      8  N   UNL     1      37.943 -23.172 -14.909  0.00  0.00    -0.071 NA
ATOM      9  C   UNL     1      35.872 -23.868 -15.371  0.00  0.00    +0.175 A 
ATOM     10  C   UNL     1      36.557 -24.978 -14.970  0.00  0.00    +0.071 A 
ATOM     11  C   UNL     1      37.845 -24.487 -14.693  0.00  0.00    +0.196 A 
BRANCH  11  13
ATOM     12  O   UNL     1      39.503 -25.104 -13.108  0.00  0.00    -0.243 OA
ATOM     13  C   UNL     1      38.989 -25.219 -14.230  0.00  0.00    +0.359 C 
BRANCH  13  14
ATOM     14  O   UNL     1      39.519 -26.102 -15.138  0.00  0.00    -0.476 OA
ATOM     15  H   UNL     1      40.437 -26.091 -15.321  0.00  0.00    +0.295 HD
ENDBRANCH  13  14
ENDBRANCH  11  13
BRANCH  10  16
ATOM     16  C   UNL     1      36.064 -26.361 -14.856  0.00  0.00    +0.169 C 
BRANCH  16  17
ATOM     17  O   UNL     1      36.714 -27.253 -15.768  0.00  0.00    -0.377 OA
ATOM     18  H   UNL     1      37.558 -26.868 -16.052  0.00  0.00    +0.211 HD
ENDBRANCH  16  17
ENDBRANCH  10  16
ENDBRANCH   1   9
BRANCH   3  19
ATOM     19  C   UNL     1      32.735 -22.083 -18.722  0.00  0.00    -0.001 C 
ATOM     20  C   UNL     1      33.570 -21.219 -19.342  0.00  0.00    +0.021 C 
BRANCH  20  21
ATOM     21  C   UNL     1      33.282 -20.582 -20.663  0.00  0.00    +0.232 C 
BRANCH  21  22
ATOM     22  O   UNL     1      34.511 -20.358 -21.341  0.00  0.00    -0.470 OA
BRANCH  22  23
ATOM     23  C   UNL     1      34.499 -19.437 -22.355  0.00  0.00    +0.148 C 
ATOM     24  C   UNL     1      35.032 -18.167 -22.165  0.00  0.00    +0.143 C 
ATOM     25  C   UNL     1      35.009 -17.244 -23.212  0.00  0.00    +0.143 C 
ATOM     26  C   UNL     1      33.943 -19.795 -23.579  0.00  0.00    +0.037 C 
ATOM     27  C   UNL     1      34.452 -17.597 -24.441  0.00  0.00    +0.037 C 
ATOM     28  C   UNL     1      33.919 -18.873 -24.624  0.00  0.00    +0.006 C 
BRANCH  25  29
ATOM     29  O   UNL     1      35.525 -15.992 -23.055  0.00  0.00    -0.505 OA
ATOM     30  H   UNL     1      34.963 -15.244 -23.102  0.00  0.00    +0.292 HD
ENDBRANCH  25  29
BRANCH  24  32
ATOM     31  O   UNL     1      35.274 -16.809 -20.220  0.00  0.00    -0.245 OA
ATOM     32  C   UNL     1      35.614 -17.797 -20.880  0.00  0.00    +0.347 C 
BRANCH  32  33
ATOM     33  O   UNL     1      36.583 -18.683 -20.498  0.00  0.00    -0.441 OA
ATOM     34  C   UNL     1      37.697 -18.838 -21.383  0.00  0.00    +0.256 C 
ENDBRANCH  32  33
ENDBRANCH  24  32
ENDBRANCH  22  23
ENDBRANCH  21  22
ENDBRANCH  20  21
ENDBRANCH   3  19
TORSDOF 12
ENDMDL
MODEL 6
REMARK VINA RESULT:     -10.5      2.517     10.698
REMARK  Name = 449162
REMARK  12 active torsions:
REMARK  status: ('A' for Active; 'I' for Inactive)
REMARK    1  A    between atoms: C_1  and  C_9
REMARK    2  A    between atoms: C_3  and  C_19
REMARK    3  A    between atoms: C_10  and  C_16
REMARK    4  A    between atoms: C_11  and  C_13
REMARK    5  A    between atoms: C_13  and  O_14
REMARK    6  A    between atoms: C_16  and  O_17
REMARK    7  A    between atoms: C_20  and  C_21
REMARK    8  A    between atoms: C_21  and  O_22
REMARK    9  A    between atoms: O_22  and  C_23
REMARK   10  A    between atoms: C_24  and  C_32
REMARK   11  A    between atoms: C_25  and  O_29
REMARK   12  A    between atoms: C_32  and  O_33
REMARK                            x       y       z     vdW  Elec       q    Type
REMARK                         _______ _______ _______ _____ _____    ______ ____
ROOT
ATOM      1  C   UNL     1      33.909 -22.251 -18.103  0.00  0.00    +0.037 C 
ATOM      2  C   UNL     1      33.526 -21.468 -19.192  0.00  0.00    +0.003 C 
ATOM      3  C   UNL     1      34.494 -20.931 -20.040  0.00  0.00    -0.000 C 
ATOM      4  C   UNL     1      35.261 -22.498 -17.863  0.00  0.00    +0.003 C 
ATOM      5  C   UNL     1      35.846 -21.178 -19.801  0.00  0.00    -0.000 C 
ATOM      6  C   UNL     1      36.229 -21.961 -18.712  0.00  0.00    +0.000 C 
ENDROOT
BRANCH   1   9
ATOM      7  O   UNL     1      31.626 -22.571 -17.590  0.00  0.00    -0.353 OA
ATOM      8  N   UNL     1      30.776 -23.158 -16.662  0.00  0.00    -0.071 NA
ATOM      9  C   UNL     1      32.909 -22.806 -17.224  0.00  0.00    +0.175 A 
ATOM     10  C   UNL     1      32.943 -23.537 -16.073  0.00  0.00    +0.071 A 
ATOM     11  C   UNL     1      31.585 -23.729 -15.764  0.00  0.00    +0.196 A 
BRANCH  11  13
ATOM     12  O   UNL     1      31.179 -24.129 -13.458  0.00  0.00    -0.243 OA
ATOM     13  C   UNL     1      31.023 -24.436 -14.649  0.00  0.00    +0.359 C 
BRANCH  13  14
ATOM     14  O   UNL     1      30.262 -25.529 -14.980  0.00  0.00    -0.476 OA
ATOM     15  H   UNL     1      30.306 -25.886 -15.845  0.00  0.00    +0.295 HD
ENDBRANCH  13  14
ENDBRANCH  11  13
BRANCH  10  16
ATOM     16  C   UNL     1      34.123 -24.010 -15.328  0.00  0.00    +0.169 C 
BRANCH  16  17
ATOM     17  O   UNL     1      34.224 -23.422 -14.027  0.00  0.00    -0.377 OA
ATOM     18  H   UNL     1      33.339 -23.184 -13.709  0.00  0.00    +0.211 HD
ENDBRANCH  16  17
ENDBRANCH  10  16
ENDBRANCH   1   9
BRANCH   3  19
ATOM     19  C   UNL     1      34.093 -20.114 -21.175  0.00  0.00    -0.001 C 
ATOM     20  C   UNL     1      34.915 -19.633 -22.135  0.00  0.00    +0.021 C 
BRANCH  20  21
ATOM     21  C   UNL     1      34.453 -18.809 -23.293  0.00  0.00    +0.232 C 
BRANCH  21  22
ATOM     22  O   UNL     1      35.244 -17.630 -23.361  0.00  0.00    -0.470 OA
BRANCH  22  23
ATOM     23  C   UNL     1      34.788 -16.539 -22.668  0.00  0.00    +0.148 C 
ATOM     24  C   UNL     1      34.070 -15.538 -23.314  0.00  0.00    +0.143 C 
ATOM     25  C   UNL     1      33.616 -14.435 -22.589  0.00  0.00    +0.143 C 
ATOM     26  C   UNL     1      35.056 -16.451 -21.306  0.00  0.00    +0.037 C 
ATOM     27  C   UNL     1      33.882 -14.341 -21.223  0.00  0.00    +0.037 C 
ATOM     28  C   UNL     1      34.602 -15.348 -20.582  0.00  0.00    +0.006 C 
BRANCH  25  29
ATOM     29  O   UNL     1      32.910 -13.440 -23.196  0.00  0.00    -0.505 OA
ATOM     30  H   UNL     1      33.191 -12.550 -23.117  0.00  0.00    +0.292 HD
ENDBRANCH  25  29
BRANCH  24  32
ATOM     31  O   UNL     1      33.182 -16.572 -25.270  0.00  0.00    -0.245 OA
ATOM     32  C   UNL     1      33.792 -15.637 -24.743  0.00  0.00    +0.347 C 
BRANCH  32  33
ATOM     33  O   UNL     1      34.292 -14.562 -25.423  0.00  0.00    -0.441 OA
ATOM     34  C   UNL     1      33.389 -13.878 -26.298  0.00  0.00    +0.256 C 
ENDBRANCH  32  33
ENDBRANCH  24  32
ENDBRANCH  22  23
ENDBRANCH  21  22
ENDBRANCH  20  21
ENDBRANCH   3  19
TORSDOF 12
ENDMDL
MODEL 7
REMARK VINA RESULT:     -10.3      4.291     11.634
REMARK  Name = 449162
REMARK  12 active torsions:
REMARK  status: ('A' for Active; 'I' for Inactive)
REMARK    1  A    between atoms: C_1  and  C_9
REMARK    2  A    between atoms: C_3  and  C_19
REMARK    3  A    between atoms: C_10  and  C_16
REMARK    4  A    between atoms: C_11  and  C_13
REMARK    5  A    between atoms: C_13  and  O_14
REMARK    6  A    between atoms: C_16  and  O_17
REMARK    7  A    between atoms: C_20  and  C_21
REMARK    8  A    between atoms: C_21  and  O_22
REMARK    9  A    between atoms: O_22  and  C_23
REMARK   10  A    between atoms: C_24  and  C_32
REMARK   11  A    between atoms: C_25  and  O_29
REMARK   12  A    between atoms: C_32  and  O_33
REMARK                            x       y       z     vdW  Elec       q    Type
REMARK                         _______ _______ _______ _____ _____    ______ ____
ROOT
ATOM      1  C   UNL     1      35.009 -18.262 -22.391  0.00  0.00    +0.037 C 
ATOM      2  C   UNL     1      35.006 -16.890 -22.142  0.00  0.00    +0.003 C 
ATOM      3  C   UNL     1      34.587 -16.002 -23.132  0.00  0.00    -0.000 C 
ATOM      4  C   UNL     1      34.591 -18.746 -23.631  0.00  0.00    +0.003 C 
ATOM      5  C   UNL     1      34.169 -16.485 -24.372  0.00  0.00    -0.000 C 
ATOM      6  C   UNL     1      34.172 -17.858 -24.621  0.00  0.00    +0.000 C 
ENDROOT
BRANCH   1   9
ATOM      7  O   UNL     1      36.741 -19.062 -20.999  0.00  0.00    -0.353 OA
ATOM      8  N   UNL     1      37.020 -20.002 -20.016  0.00  0.00    -0.071 NA
ATOM      9  C   UNL     1      35.443 -19.182 -21.368  0.00  0.00    +0.175 A 
ATOM     10  C   UNL     1      34.842 -20.179 -20.657  0.00  0.00    +0.071 A 
ATOM     11  C   UNL     1      35.871 -20.657 -19.828  0.00  0.00    +0.196 A 
BRANCH  11  13
ATOM     12  O   UNL     1      35.095 -22.726 -18.954  0.00  0.00    -0.243 OA
ATOM     13  C   UNL     1      35.807 -21.715 -18.860  0.00  0.00    +0.359 C 
BRANCH  13  14
ATOM     14  O   UNL     1      36.615 -21.547 -17.763  0.00  0.00    -0.476 OA
ATOM     15  H   UNL     1      36.422 -20.877 -17.138  0.00  0.00    +0.295 HD
ENDBRANCH  13  14
ENDBRANCH  11  13
BRANCH  10  16
ATOM     16  C   UNL     1      33.447 -20.644 -20.741  0.00  0.00    +0.169 C 
BRANCH  16  17
ATOM     17  O   UNL     1      32.869 -20.882 -19.452  0.00  0.00    -0.377 OA
ATOM     18  H   UNL     1      32.553 -21.798 -19.404  0.00  0.00    +0.211 HD
ENDBRANCH  16  17
ENDBRANCH  10  16
ENDBRANCH   1   9
BRANCH   3  19
ATOM     19  C   UNL     1      34.584 -14.570 -22.871  0.00  0.00    -0.001 C 
ATOM     20  C   UNL     1      33.978 -13.628 -23.627  0.00  0.00    +0.021 C 
BRANCH  20  21
ATOM     21  C   UNL     1      33.990 -12.167 -23.309  0.00  0.00    +0.232 C 
BRANCH  21  22
ATOM     22  O   UNL     1      32.649 -11.704 -23.234  0.00  0.00    -0.470 OA
BRANCH  22  23
ATOM     23  C   UNL     1      32.272 -11.088 -22.070  0.00  0.00    +0.148 C 
ATOM     24  C   UNL     1      32.279  -9.702 -21.965  0.00  0.00    +0.143 C 
ATOM     25  C   UNL     1      31.890  -9.096 -20.769  0.00  0.00    +0.143 C 
ATOM     26  C   UNL     1      31.881 -11.877 -20.992  0.00  0.00    +0.037 C 
ATOM     27  C   UNL     1      31.498  -9.881 -19.686  0.00  0.00    +0.037 C 
ATOM     28  C   UNL     1      31.494 -11.271 -19.797  0.00  0.00    +0.006 C 
BRANCH  25  29
ATOM     29  O   UNL     1      31.887  -7.739 -20.640  0.00  0.00    -0.505 OA
ATOM     30  H   UNL     1      32.697  -7.272 -20.572  0.00  0.00    +0.292 HD
ENDBRANCH  25  29
BRANCH  24  32
ATOM     31  O   UNL     1      32.051  -8.778 -24.152  0.00  0.00    -0.245 OA
ATOM     32  C   UNL     1      32.689  -8.881 -23.099  0.00  0.00    +0.347 C 
BRANCH  32  33
ATOM     33  O   UNL     1      33.869  -8.238 -22.848  0.00  0.00    -0.441 OA
ATOM     34  C   UNL     1      34.995  -8.629 -23.642  0.00  0.00    +0.256 C 
ENDBRANCH  32  33
ENDBRANCH  24  32
ENDBRANCH  22  23
ENDBRANCH  21  22
ENDBRANCH  20  21
ENDBRANCH   3  19
TORSDOF 12
ENDMDL
MODEL 8
REMARK VINA RESULT:     -10.2      3.080     11.122
REMARK  Name = 449162
REMARK  12 active torsions:
REMARK  status: ('A' for Active; 'I' for Inactive)
REMARK    1  A    between atoms: C_1  and  C_9
REMARK    2  A    between atoms: C_3  and  C_19
REMARK    3  A    between atoms: C_10  and  C_16
REMARK    4  A    between atoms: C_11  and  C_13
REMARK    5  A    between atoms: C_13  and  O_14
REMARK    6  A    between atoms: C_16  and  O_17
REMARK    7  A    between atoms: C_20  and  C_21
REMARK    8  A    between atoms: C_21  and  O_22
REMARK    9  A    between atoms: O_22  and  C_23
REMARK   10  A    between atoms: C_24  and  C_32
REMARK   11  A    between atoms: C_25  and  O_29
REMARK   12  A    between atoms: C_32  and  O_33
REMARK                            x       y       z     vdW  Elec       q    Type
REMARK                         _______ _______ _______ _____ _____    ______ ____
ROOT
ATOM      1  C   UNL     1      35.411 -23.125 -16.045  0.00  0.00    +0.037 C 
ATOM      2  C   UNL     1      36.166 -22.396 -16.963  0.00  0.00    +0.003 C 
ATOM      3  C   UNL     1      35.642 -22.103 -18.222  0.00  0.00    -0.000 C 
ATOM      4  C   UNL     1      34.131 -23.562 -16.386  0.00  0.00    +0.003 C 
ATOM      5  C   UNL     1      34.362 -22.540 -18.564  0.00  0.00    -0.000 C 
ATOM      6  C   UNL     1      33.607 -23.269 -17.646  0.00  0.00    +0.000 C 
ENDROOT
BRANCH   1   9
ATOM      7  O   UNL     1      37.303 -23.377 -14.654  0.00  0.00    -0.353 OA
ATOM      8  N   UNL     1      37.683 -23.690 -13.355  0.00  0.00    -0.071 NA
ATOM      9  C   UNL     1      35.952 -23.429 -14.743  0.00  0.00    +0.175 A 
ATOM     10  C   UNL     1      35.414 -23.767 -13.536  0.00  0.00    +0.071 A 
ATOM     11  C   UNL     1      36.537 -23.918 -12.705  0.00  0.00    +0.196 A 
BRANCH  11  13
ATOM     12  O   UNL     1      36.114 -25.321 -10.836  0.00  0.00    -0.243 OA
ATOM     13  C   UNL     1      36.568 -24.272 -11.315  0.00  0.00    +0.359 C 
BRANCH  13  14
ATOM     14  O   UNL     1      37.157 -23.343 -10.494  0.00  0.00    -0.476 OA
ATOM     15  H   UNL     1      36.890 -22.446 -10.534  0.00  0.00    +0.295 HD
ENDBRANCH  13  14
ENDBRANCH  11  13
BRANCH  10  16
ATOM     16  C   UNL     1      33.993 -23.936 -13.187  0.00  0.00    +0.169 C 
BRANCH  16  17
ATOM     17  O   UNL     1      33.682 -25.272 -12.779  0.00  0.00    -0.377 OA
ATOM     18  H   UNL     1      33.674 -25.321 -11.810  0.00  0.00    +0.211 HD
ENDBRANCH  16  17
ENDBRANCH  10  16
ENDBRANCH   1   9
BRANCH   3  19
ATOM     19  C   UNL     1      36.431 -21.342 -19.179  0.00  0.00    -0.001 C 
ATOM     20  C   UNL     1      36.007 -20.264 -19.876  0.00  0.00    +0.021 C 
BRANCH  20  21
ATOM     21  C   UNL     1      36.862 -19.504 -20.838  0.00  0.00    +0.232 C 
BRANCH  21  22
ATOM     22  O   UNL     1      36.136 -18.372 -21.299  0.00  0.00    -0.470 OA
BRANCH  22  23
ATOM     23  C   UNL     1      35.387 -18.538 -22.434  0.00  0.00    +0.148 C 
ATOM     24  C   UNL     1      34.832 -17.441 -23.084  0.00  0.00    +0.143 C 
ATOM     25  C   UNL     1      34.071 -17.633 -24.238  0.00  0.00    +0.143 C 
ATOM     26  C   UNL     1      35.190 -19.824 -22.925  0.00  0.00    +0.037 C 
ATOM     27  C   UNL     1      33.871 -18.920 -24.735  0.00  0.00    +0.037 C 
ATOM     28  C   UNL     1      34.430 -20.016 -24.078  0.00  0.00    +0.006 C 
BRANCH  25  29
ATOM     29  O   UNL     1      33.517 -16.575 -24.896  0.00  0.00    -0.505 OA
ATOM     30  H   UNL     1      32.605 -16.584 -25.113  0.00  0.00    +0.292 HD
ENDBRANCH  25  29
BRANCH  24  32
ATOM     31  O   UNL     1      35.304 -15.111 -23.265  0.00  0.00    -0.245 OA
ATOM     32  C   UNL     1      35.042 -16.094 -22.565  0.00  0.00    +0.347 C 
BRANCH  32  33
ATOM     33  O   UNL     1      34.911 -16.058 -21.204  0.00  0.00    -0.441 OA
ATOM     34  C   UNL     1      34.337 -14.872 -20.645  0.00  0.00    +0.256 C 
ENDBRANCH  32  33
ENDBRANCH  24  32
ENDBRANCH  22  23
ENDBRANCH  21  22
ENDBRANCH  20  21
ENDBRANCH   3  19
TORSDOF 12
ENDMDL
MODEL 9
REMARK VINA RESULT:     -10.1      2.561     10.766
REMARK  Name = 449162
REMARK  12 active torsions:
REMARK  status: ('A' for Active; 'I' for Inactive)
REMARK    1  A    between atoms: C_1  and  C_9
REMARK    2  A    between atoms: C_3  and  C_19
REMARK    3  A    between atoms: C_10  and  C_16
REMARK    4  A    between atoms: C_11  and  C_13
REMARK    5  A    between atoms: C_13  and  O_14
REMARK    6  A    between atoms: C_16  and  O_17
REMARK    7  A    between atoms: C_20  and  C_21
REMARK    8  A    between atoms: C_21  and  O_22
REMARK    9  A    between atoms: O_22  and  C_23
REMARK   10  A    between atoms: C_24  and  C_32
REMARK   11  A    between atoms: C_25  and  O_29
REMARK   12  A    between atoms: C_32  and  O_33
REMARK                            x       y       z     vdW  Elec       q    Type
REMARK                         _______ _______ _______ _____ _____    ______ ____
ROOT
ATOM      1  C   UNL     1      34.110 -22.065 -18.383  0.00  0.00    +0.037 C 
ATOM      2  C   UNL     1      33.768 -21.175 -19.401  0.00  0.00    +0.003 C 
ATOM      3  C   UNL     1      34.758 -20.652 -20.233  0.00  0.00    -0.000 C 
ATOM      4  C   UNL     1      35.442 -22.434 -18.198  0.00  0.00    +0.003 C 
ATOM      5  C   UNL     1      36.091 -21.020 -20.047  0.00  0.00    -0.000 C 
ATOM      6  C   UNL     1      36.433 -21.910 -19.029  0.00  0.00    +0.000 C 
ENDROOT
BRANCH   1   9
ATOM      7  O   UNL     1      31.814 -22.365 -17.919  0.00  0.00    -0.353 OA
ATOM      8  N   UNL     1      30.940 -22.939 -17.004  0.00  0.00    -0.071 NA
ATOM      9  C   UNL     1      33.087 -22.607 -17.522  0.00  0.00    +0.175 A 
ATOM     10  C   UNL     1      33.090 -23.328 -16.365  0.00  0.00    +0.071 A 
ATOM     11  C   UNL     1      31.725 -23.508 -16.085  0.00  0.00    +0.196 A 
BRANCH  11  13
ATOM     12  O   UNL     1      30.541 -25.289 -15.050  0.00  0.00    -0.243 OA
ATOM     13  C   UNL     1      31.134 -24.202 -14.977  0.00  0.00    +0.359 C 
BRANCH  13  14
ATOM     14  O   UNL     1      31.261 -23.573 -13.764  0.00  0.00    -0.476 OA
ATOM     15  H   UNL     1      32.110 -23.333 -13.448  0.00  0.00    +0.295 HD
ENDBRANCH  13  14
ENDBRANCH  11  13
BRANCH  10  16
ATOM     16  C   UNL     1      34.250 -23.804 -15.592  0.00  0.00    +0.169 C 
BRANCH  16  17
ATOM     17  O   UNL     1      34.377 -23.143 -14.328  0.00  0.00    -0.377 OA
ATOM     18  H   UNL     1      35.272 -22.778 -14.242  0.00  0.00    +0.211 HD
ENDBRANCH  16  17
ENDBRANCH  10  16
ENDBRANCH   1   9
BRANCH   3  19
ATOM     19  C   UNL     1      34.400 -19.724 -21.294  0.00  0.00    -0.001 C 
ATOM     20  C   UNL     1      35.258 -18.934 -21.979  0.00  0.00    +0.021 C 
BRANCH  20  21
ATOM     21  C   UNL     1      34.844 -18.005 -23.074  0.00  0.00    +0.232 C 
BRANCH  21  22
ATOM     22  O   UNL     1      34.558 -16.732 -22.511  0.00  0.00    -0.470 OA
BRANCH  22  23
ATOM     23  C   UNL     1      34.135 -15.755 -23.374  0.00  0.00    +0.148 C 
ATOM     24  C   UNL     1      33.755 -14.505 -22.898  0.00  0.00    +0.143 C 
ATOM     25  C   UNL     1      33.327 -13.525 -23.795  0.00  0.00    +0.143 C 
ATOM     26  C   UNL     1      34.091 -16.037 -24.735  0.00  0.00    +0.037 C 
ATOM     27  C   UNL     1      33.281 -13.801 -25.161  0.00  0.00    +0.037 C 
ATOM     28  C   UNL     1      33.663 -15.058 -25.631  0.00  0.00    +0.006 C 
BRANCH  25  29
ATOM     29  O   UNL     1      32.950 -12.290 -23.356  0.00  0.00    -0.505 OA
ATOM     30  H   UNL     1      32.105 -11.951 -23.579  0.00  0.00    +0.292 HD
ENDBRANCH  25  29
BRANCH  24  32
ATOM     31  O   UNL     1      34.846 -14.087 -20.820  0.00  0.00    -0.245 OA
ATOM     32  C   UNL     1      33.803 -14.215 -21.469  0.00  0.00    +0.347 C 
BRANCH  32  33
ATOM     33  O   UNL     1      32.548 -14.102 -20.941  0.00  0.00    -0.441 OA
ATOM     34  C   UNL     1      32.280 -12.929 -20.165  0.00  0.00    +0.256 C 
ENDBRANCH  32  33
ENDBRANCH  24  32
ENDBRANCH  22  23
ENDBRANCH  21  22
ENDBRANCH  20  21
ENDBRANCH   3  19
TORSDOF 12
ENDMDL
