MODEL 1
REMARK VINA RESULT:     -11.8      0.000      0.000
REMARK  Name = 11574606
REMARK  6 active torsions:
REMARK  status: ('A' for Active; 'I' for Inactive)
REMARK    1  A    between atoms: C_5  and  O_24
REMARK    2  A    between atoms: C_7  and  N_10
REMARK    3  A    between atoms: N_10  and  C_12
REMARK    4  A    between atoms: C_15  and  S_18
REMARK    5  A    between atoms: S_18  and  N_21
REMARK    6  A    between atoms: O_24  and  C_25
REMARK                            x       y       z     vdW  Elec       q    Type
REMARK                         _______ _______ _______ _____ _____    ______ ____
ROOT
ATOM      1  N   UNL     1      32.867 -23.562 -14.154  0.00  0.00    -0.299 NA
ATOM      2  N   UNL     1      31.950 -23.249 -16.355  0.00  0.00    -0.106 N 
ATOM      3  N   UNL     1      30.725 -23.133 -16.932  0.00  0.00    -0.139 NA
ATOM      4  N   UNL     1      30.504 -23.410 -14.682  0.00  0.00    -0.145 NA
ATOM      5  C   UNL     1      34.022 -23.528 -14.740  0.00  0.00    +0.291 C 
ATOM      6  C   UNL     1      34.300 -23.356 -16.182  0.00  0.00    +0.105 C 
ATOM      7  C   UNL     1      33.214 -23.218 -16.962  0.00  0.00    +0.142 C 
ATOM      8  C   UNL     1      31.789 -23.419 -14.975  0.00  0.00    +0.178 C 
ATOM      9  C   UNL     1      29.907 -23.236 -15.888  0.00  0.00    +0.230 C 
ENDROOT
BRANCH   7  10
ATOM     10  N   UNL     1      33.262 -23.047 -18.317  0.00  0.00    -0.299 N 
ATOM     11  H   UNL     1      32.746 -23.695 -18.849  0.00  0.00    +0.153 HD
BRANCH  10  12
ATOM     12  C   UNL     1      33.950 -22.071 -19.045  0.00  0.00    +0.049 C 
ATOM     13  C   UNL     1      33.251 -21.152 -19.837  0.00  0.00    +0.016 C 
ATOM     14  C   UNL     1      35.349 -22.000 -18.990  0.00  0.00    +0.016 C 
ATOM     15  C   UNL     1      35.330 -20.116 -20.503  0.00  0.00    +0.122 C 
ATOM     16  C   UNL     1      33.937 -20.178 -20.563  0.00  0.00    +0.021 C 
ATOM     17  C   UNL     1      36.035 -21.028 -19.717  0.00  0.00    +0.021 C 
BRANCH  15  18
ATOM     18  S   UNL     1      36.190 -18.900 -21.412  0.00  0.00    +0.057 S 
ATOM     19  O   UNL     1      37.575 -18.883 -20.961  0.00  0.00    -0.153 OA
ATOM     20  O   UNL     1      35.892 -19.080 -22.826  0.00  0.00    -0.153 OA
BRANCH  18  21
ATOM     21  N   UNL     1      35.416 -17.478 -20.866  0.00  0.00    -0.203 NA
ATOM     22  H   UNL     1      35.924 -16.661 -21.207  0.00  0.00    +0.144 HD
ATOM     23  H   UNL     1      35.404 -17.467 -19.846  0.00  0.00    +0.144 HD
ENDBRANCH  18  21
ENDBRANCH  15  18
ENDBRANCH  10  12
ENDBRANCH   7  10
BRANCH   5  24
ATOM     24  O   UNL     1      35.155 -23.662 -14.010  0.00  0.00    -0.455 OA
BRANCH  24  25
ATOM     25  C   UNL     1      35.323 -24.997 -13.535  0.00  0.00    +0.169 C 
ATOM     26  C   UNL     1      36.480 -25.669 -14.277  0.00  0.00    +0.044 C 
ATOM     27  C   UNL     1      35.569 -24.954 -12.027  0.00  0.00    +0.044 C 
ATOM     28  C   UNL     1      37.829 -25.039 -13.928  0.00  0.00    +0.004 C 
ATOM     29  C   UNL     1      36.920 -24.329 -11.681  0.00  0.00    +0.004 C 
ATOM     30  C   UNL     1      38.065 -25.016 -12.420  0.00  0.00    +0.000 C 
ENDBRANCH  24  25
ENDBRANCH   5  24
TORSDOF 6
ENDMDL
MODEL 2
REMARK VINA RESULT:     -10.3      3.428      7.123
REMARK  Name = 11574606
REMARK  6 active torsions:
REMARK  status: ('A' for Active; 'I' for Inactive)
REMARK    1  A    between atoms: C_5  and  O_24
REMARK    2  A    between atoms: C_7  and  N_10
REMARK    3  A    between atoms: N_10  and  C_12
REMARK    4  A    between atoms: C_15  and  S_18
REMARK    5  A    between atoms: S_18  and  N_21
REMARK    6  A    between atoms: O_24  and  C_25
REMARK                            x       y       z     vdW  Elec       q    Type
REMARK                         _______ _______ _______ _____ _____    ______ ____
ROOT
ATOM      1  N   UNL     1      31.651 -23.228 -16.352  0.00  0.00    -0.299 NA
ATOM      2  N   UNL     1      32.188 -24.724 -14.548  0.00  0.00    -0.106 N 
ATOM      3  N   UNL     1      31.531 -25.546 -13.688  0.00  0.00    -0.139 NA
ATOM      4  N   UNL     1      30.044 -24.525 -15.077  0.00  0.00    -0.145 NA
ATOM      5  C   UNL     1      32.926 -23.014 -16.422  0.00  0.00    +0.291 C 
ATOM      6  C   UNL     1      33.990 -23.609 -15.584  0.00  0.00    +0.105 C 
ATOM      7  C   UNL     1      33.564 -24.472 -14.646  0.00  0.00    +0.142 C 
ATOM      8  C   UNL     1      31.255 -24.109 -15.390  0.00  0.00    +0.178 C 
ATOM      9  C   UNL     1      30.263 -25.386 -14.052  0.00  0.00    +0.230 C 
ENDROOT
BRANCH   7  10
ATOM     10  N   UNL     1      34.391 -25.126 -13.776  0.00  0.00    -0.299 N 
ATOM     11  H   UNL     1      33.956 -25.522 -12.987  0.00  0.00    +0.153 HD
BRANCH  10  12
ATOM     12  C   UNL     1      35.776 -25.302 -13.862  0.00  0.00    +0.049 C 
ATOM     13  C   UNL     1      36.645 -24.434 -13.189  0.00  0.00    +0.016 C 
ATOM     14  C   UNL     1      36.311 -26.352 -14.620  0.00  0.00    +0.016 C 
ATOM     15  C   UNL     1      38.550 -25.658 -14.033  0.00  0.00    +0.122 C 
ATOM     16  C   UNL     1      38.026 -24.611 -13.274  0.00  0.00    +0.021 C 
ATOM     17  C   UNL     1      37.692 -26.528 -14.706  0.00  0.00    +0.021 C 
BRANCH  15  18
ATOM     18  S   UNL     1      40.278 -25.879 -14.141  0.00  0.00    +0.057 S 
ATOM     19  O   UNL     1      40.924 -24.614 -13.816  0.00  0.00    -0.153 OA
ATOM     20  O   UNL     1      40.637 -27.084 -13.407  0.00  0.00    -0.153 OA
BRANCH  18  21
ATOM     21  N   UNL     1      40.464 -26.179 -15.812  0.00  0.00    -0.203 NA
ATOM     22  H   UNL     1      40.270 -25.324 -16.335  0.00  0.00    +0.144 HD
ATOM     23  H   UNL     1      39.813 -26.909 -16.102  0.00  0.00    +0.144 HD
ENDBRANCH  18  21
ENDBRANCH  15  18
ENDBRANCH  10  12
ENDBRANCH   7  10
BRANCH   5  24
ATOM     24  O   UNL     1      33.419 -22.154 -17.345  0.00  0.00    -0.455 OA
BRANCH  24  25
ATOM     25  C   UNL     1      33.486 -22.752 -18.639  0.00  0.00    +0.169 C 
ATOM     26  C   UNL     1      32.658 -21.933 -19.630  0.00  0.00    +0.044 C 
ATOM     27  C   UNL     1      34.952 -22.836 -19.064  0.00  0.00    +0.044 C 
ATOM     28  C   UNL     1      33.267 -20.554 -19.888  0.00  0.00    +0.004 C 
ATOM     29  C   UNL     1      35.557 -21.457 -19.326  0.00  0.00    +0.004 C 
ATOM     30  C   UNL     1      34.726 -20.657 -20.324  0.00  0.00    +0.000 C 
ENDBRANCH  24  25
ENDBRANCH   5  24
TORSDOF 6
ENDMDL
MODEL 3
REMARK VINA RESULT:     -10.2      2.083      4.798
REMARK  Name = 11574606
REMARK  6 active torsions:
REMARK  status: ('A' for Active; 'I' for Inactive)
REMARK    1  A    between atoms: C_5  and  O_24
REMARK    2  A    between atoms: C_7  and  N_10
REMARK    3  A    between atoms: N_10  and  C_12
REMARK    4  A    between atoms: C_15  and  S_18
REMARK    5  A    between atoms: S_18  and  N_21
REMARK    6  A    between atoms: O_24  and  C_25
REMARK                            x       y       z     vdW  Elec       q    Type
REMARK                         _______ _______ _______ _____ _____    ______ ____
ROOT
ATOM      1  N   UNL     1      33.602 -23.427 -14.205  0.00  0.00    -0.299 NA
ATOM      2  N   UNL     1      35.265 -23.274 -15.936  0.00  0.00    -0.106 N 
ATOM      3  N   UNL     1      36.618 -23.198 -16.032  0.00  0.00    -0.139 NA
ATOM      4  N   UNL     1      35.999 -23.316 -13.844  0.00  0.00    -0.145 NA
ATOM      5  C   UNL     1      32.741 -23.435 -15.171  0.00  0.00    +0.291 C 
ATOM      6  C   UNL     1      33.010 -23.365 -16.624  0.00  0.00    +0.105 C 
ATOM      7  C   UNL     1      34.308 -23.284 -16.962  0.00  0.00    +0.142 C 
ATOM      8  C   UNL     1      34.909 -23.344 -14.584  0.00  0.00    +0.178 C 
ATOM      9  C   UNL     1      36.998 -23.229 -14.759  0.00  0.00    +0.230 C 
ENDROOT
BRANCH   7  10
ATOM     10  N   UNL     1      34.761 -23.211 -18.249  0.00  0.00    -0.299 N 
ATOM     11  H   UNL     1      35.009 -24.068 -18.666  0.00  0.00    +0.153 HD
BRANCH  10  12
ATOM     12  C   UNL     1      34.919 -22.076 -19.050  0.00  0.00    +0.049 C 
ATOM     13  C   UNL     1      36.196 -21.560 -19.306  0.00  0.00    +0.016 C 
ATOM     14  C   UNL     1      33.802 -21.440 -19.608  0.00  0.00    +0.016 C 
ATOM     15  C   UNL     1      35.235 -19.801 -20.656  0.00  0.00    +0.122 C 
ATOM     16  C   UNL     1      36.353 -20.427 -20.106  0.00  0.00    +0.021 C 
ATOM     17  C   UNL     1      33.959 -20.308 -20.407  0.00  0.00    +0.021 C 
BRANCH  15  18
ATOM     18  S   UNL     1      35.431 -18.384 -21.655  0.00  0.00    +0.057 S 
ATOM     19  O   UNL     1      34.636 -18.561 -22.864  0.00  0.00    -0.153 OA
ATOM     20  O   UNL     1      35.235 -17.202 -20.828  0.00  0.00    -0.153 OA
BRANCH  18  21
ATOM     21  N   UNL     1      37.086 -18.499 -22.063  0.00  0.00    -0.203 NA
ATOM     22  H   UNL     1      37.183 -18.980 -22.958  0.00  0.00    +0.144 HD
ATOM     23  H   UNL     1      37.579 -19.024 -21.340  0.00  0.00    +0.144 HD
ENDBRANCH  18  21
ENDBRANCH  15  18
ENDBRANCH  10  12
ENDBRANCH   7  10
BRANCH   5  24
ATOM     24  O   UNL     1      31.416 -23.514 -14.897  0.00  0.00    -0.455 OA
BRANCH  24  25
ATOM     25  C   UNL     1      30.672 -23.980 -16.021  0.00  0.00    +0.169 C 
ATOM     26  C   UNL     1      30.000 -25.311 -15.681  0.00  0.00    +0.044 C 
ATOM     27  C   UNL     1      29.647 -22.914 -16.407  0.00  0.00    +0.044 C 
ATOM     28  C   UNL     1      28.907 -25.150 -14.624  0.00  0.00    +0.004 C 
ATOM     29  C   UNL     1      28.552 -22.758 -15.351  0.00  0.00    +0.004 C 
ATOM     30  C   UNL     1      27.885 -24.092 -15.031  0.00  0.00    +0.000 C 
ENDBRANCH  24  25
ENDBRANCH   5  24
TORSDOF 6
ENDMDL
MODEL 4
REMARK VINA RESULT:     -10.2      3.687      7.417
REMARK  Name = 11574606
REMARK  6 active torsions:
REMARK  status: ('A' for Active; 'I' for Inactive)
REMARK    1  A    between atoms: C_5  and  O_24
REMARK    2  A    between atoms: C_7  and  N_10
REMARK    3  A    between atoms: N_10  and  C_12
REMARK    4  A    between atoms: C_15  and  S_18
REMARK    5  A    between atoms: S_18  and  N_21
REMARK    6  A    between atoms: O_24  and  C_25
REMARK                            x       y       z     vdW  Elec       q    Type
REMARK                         _______ _______ _______ _____ _____    ______ ____
ROOT
ATOM      1  N   UNL     1      37.293 -22.793 -16.163  0.00  0.00    -0.299 NA
ATOM      2  N   UNL     1      36.029 -24.042 -14.542  0.00  0.00    -0.106 N 
ATOM      3  N   UNL     1      36.272 -24.874 -13.495  0.00  0.00    -0.139 NA
ATOM      4  N   UNL     1      38.238 -24.188 -14.417  0.00  0.00    -0.145 NA
ATOM      5  C   UNL     1      36.142 -22.410 -16.617  0.00  0.00    +0.291 C 
ATOM      6  C   UNL     1      34.802 -22.780 -16.112  0.00  0.00    +0.105 C 
ATOM      7  C   UNL     1      34.797 -23.611 -15.056  0.00  0.00    +0.142 C 
ATOM      8  C   UNL     1      37.251 -23.635 -15.092  0.00  0.00    +0.178 C 
ATOM      9  C   UNL     1      37.601 -24.920 -13.470  0.00  0.00    +0.230 C 
ENDROOT
BRANCH   7  10
ATOM     10  N   UNL     1      33.663 -24.067 -14.446  0.00  0.00    -0.299 N 
ATOM     11  H   UNL     1      33.800 -24.594 -13.625  0.00  0.00    +0.153 HD
BRANCH  10  12
ATOM     12  C   UNL     1      32.333 -23.884 -14.838  0.00  0.00    +0.049 C 
ATOM     13  C   UNL     1      32.032 -23.335 -16.090  0.00  0.00    +0.016 C 
ATOM     14  C   UNL     1      31.285 -24.250 -13.983  0.00  0.00    +0.016 C 
ATOM     15  C   UNL     1      29.668 -23.518 -15.623  0.00  0.00    +0.122 C 
ATOM     16  C   UNL     1      30.705 -23.152 -16.482  0.00  0.00    +0.021 C 
ATOM     17  C   UNL     1      29.959 -24.067 -14.374  0.00  0.00    +0.021 C 
BRANCH  15  18
ATOM     18  S   UNL     1      28.008 -23.289 -16.111  0.00  0.00    +0.057 S 
ATOM     19  O   UNL     1      27.158 -23.450 -14.938  0.00  0.00    -0.153 OA
ATOM     20  O   UNL     1      27.922 -22.072 -16.904  0.00  0.00    -0.153 OA
BRANCH  18  21
ATOM     21  N   UNL     1      27.783 -24.633 -17.141  0.00  0.00    -0.203 NA
ATOM     22  H   UNL     1      27.110 -24.395 -17.870  0.00  0.00    +0.144 HD
ATOM     23  H   UNL     1      27.432 -25.423 -16.599  0.00  0.00    +0.144 HD
ENDBRANCH  18  21
ENDBRANCH  15  18
ENDBRANCH  10  12
ENDBRANCH   7  10
BRANCH   5  24
ATOM     24  O   UNL     1      36.078 -21.572 -17.679  0.00  0.00    -0.455 OA
BRANCH  24  25
ATOM     25  C   UNL     1      35.908 -22.285 -18.903  0.00  0.00    +0.169 C 
ATOM     26  C   UNL     1      34.428 -22.609 -19.112  0.00  0.00    +0.044 C 
ATOM     27  C   UNL     1      36.465 -21.436 -20.046  0.00  0.00    +0.044 C 
ATOM     28  C   UNL     1      33.593 -21.352 -19.361  0.00  0.00    +0.004 C 
ATOM     29  C   UNL     1      35.626 -20.183 -20.296  0.00  0.00    +0.004 C 
ATOM     30  C   UNL     1      34.155 -20.524 -20.513  0.00  0.00    +0.000 C 
ENDBRANCH  24  25
ENDBRANCH   5  24
TORSDOF 6
ENDMDL
MODEL 5
REMARK VINA RESULT:     -10.0      3.857      7.597
REMARK  Name = 11574606
REMARK  6 active torsions:
REMARK  status: ('A' for Active; 'I' for Inactive)
REMARK    1  A    between atoms: C_5  and  O_24
REMARK    2  A    between atoms: C_7  and  N_10
REMARK    3  A    between atoms: N_10  and  C_12
REMARK    4  A    between atoms: C_15  and  S_18
REMARK    5  A    between atoms: S_18  and  N_21
REMARK    6  A    between atoms: O_24  and  C_25
REMARK                            x       y       z     vdW  Elec       q    Type
REMARK                         _______ _______ _______ _____ _____    ______ ____
ROOT
ATOM      1  N   UNL     1      32.621 -22.250 -18.796  0.00  0.00    -0.299 NA
ATOM      2  N   UNL     1      34.970 -21.952 -18.369  0.00  0.00    -0.106 N 
ATOM      3  N   UNL     1      36.030 -21.329 -18.947  0.00  0.00    -0.139 NA
ATOM      4  N   UNL     1      34.154 -20.990 -20.193  0.00  0.00    -0.145 NA
ATOM      5  C   UNL     1      32.613 -22.945 -17.704  0.00  0.00    +0.291 C 
ATOM      6  C   UNL     1      33.754 -23.238 -16.809  0.00  0.00    +0.105 C 
ATOM      7  C   UNL     1      34.930 -22.711 -17.190  0.00  0.00    +0.142 C 
ATOM      8  C   UNL     1      33.830 -21.730 -19.152  0.00  0.00    +0.178 C 
ATOM      9  C   UNL     1      35.483 -20.775 -20.025  0.00  0.00    +0.230 C 
ENDROOT
BRANCH   7  10
ATOM     10  N   UNL     1      36.098 -22.867 -16.499  0.00  0.00    -0.299 N 
ATOM     11  H   UNL     1      36.904 -22.501 -16.931  0.00  0.00    +0.153 HD
BRANCH  10  12
ATOM     12  C   UNL     1      36.298 -23.481 -15.258  0.00  0.00    +0.049 C 
ATOM     13  C   UNL     1      37.496 -24.150 -14.982  0.00  0.00    +0.016 C 
ATOM     14  C   UNL     1      35.300 -23.434 -14.276  0.00  0.00    +0.016 C 
ATOM     15  C   UNL     1      36.695 -24.711 -12.772  0.00  0.00    +0.122 C 
ATOM     16  C   UNL     1      37.695 -24.762 -13.744  0.00  0.00    +0.021 C 
ATOM     17  C   UNL     1      35.498 -24.046 -13.039  0.00  0.00    +0.021 C 
BRANCH  15  18
ATOM     18  S   UNL     1      36.942 -25.477 -11.224  0.00  0.00    +0.057 S 
ATOM     19  O   UNL     1      37.125 -26.906 -11.442  0.00  0.00    -0.153 OA
ATOM     20  O   UNL     1      37.948 -24.724 -10.488  0.00  0.00    -0.153 OA
BRANCH  18  21
ATOM     21  N   UNL     1      35.421 -25.223 -10.488  0.00  0.00    -0.203 NA
ATOM     22  H   UNL     1      35.542 -24.672  -9.638  0.00  0.00    +0.144 HD
ATOM     23  H   UNL     1      35.002 -26.123 -10.254  0.00  0.00    +0.144 HD
ENDBRANCH  18  21
ENDBRANCH  15  18
ENDBRANCH  10  12
ENDBRANCH   7  10
BRANCH   5  24
ATOM     24  O   UNL     1      31.460 -23.504 -17.265  0.00  0.00    -0.455 OA
BRANCH  24  25
ATOM     25  C   UNL     1      30.933 -22.810 -16.135  0.00  0.00    +0.169 C 
ATOM     26  C   UNL     1      29.405 -22.826 -16.184  0.00  0.00    +0.044 C 
ATOM     27  C   UNL     1      31.464 -23.471 -14.863  0.00  0.00    +0.044 C 
ATOM     28  C   UNL     1      28.838 -24.233 -15.982  0.00  0.00    +0.004 C 
ATOM     29  C   UNL     1      30.893 -24.874 -14.661  0.00  0.00    +0.004 C 
ATOM     30  C   UNL     1      29.368 -24.873 -14.701  0.00  0.00    +0.000 C 
ENDBRANCH  24  25
ENDBRANCH   5  24
TORSDOF 6
ENDMDL
MODEL 6
REMARK VINA RESULT:      -9.9      4.833     10.548
REMARK  Name = 11574606
REMARK  6 active torsions:
REMARK  status: ('A' for Active; 'I' for Inactive)
REMARK    1  A    between atoms: C_5  and  O_24
REMARK    2  A    between atoms: C_7  and  N_10
REMARK    3  A    between atoms: N_10  and  C_12
REMARK    4  A    between atoms: C_15  and  S_18
REMARK    5  A    between atoms: S_18  and  N_21
REMARK    6  A    between atoms: O_24  and  C_25
REMARK                            x       y       z     vdW  Elec       q    Type
REMARK                         _______ _______ _______ _____ _____    ______ ____
ROOT
ATOM      1  N   UNL     1      34.041 -16.426 -24.153  0.00  0.00    -0.299 NA
ATOM      2  N   UNL     1      34.867 -18.474 -23.199  0.00  0.00    -0.106 N 
ATOM      3  N   UNL     1      34.888 -19.797 -23.510  0.00  0.00    -0.139 NA
ATOM      4  N   UNL     1      33.816 -18.629 -25.146  0.00  0.00    -0.145 NA
ATOM      5  C   UNL     1      34.536 -15.854 -23.103  0.00  0.00    +0.291 C 
ATOM      6  C   UNL     1      35.250 -16.493 -21.976  0.00  0.00    +0.105 C 
ATOM      7  C   UNL     1      35.393 -17.826 -22.072  0.00  0.00    +0.142 C 
ATOM      8  C   UNL     1      34.204 -17.778 -24.217  0.00  0.00    +0.178 C 
ATOM      9  C   UNL     1      34.251 -19.826 -24.677  0.00  0.00    +0.230 C 
ENDROOT
BRANCH   7  10
ATOM     10  N   UNL     1      36.022 -18.597 -21.136  0.00  0.00    -0.299 N 
ATOM     11  H   UNL     1      36.949 -18.343 -20.923  0.00  0.00    +0.153 HD
BRANCH  10  12
ATOM     12  C   UNL     1      35.519 -19.702 -20.441  0.00  0.00    +0.049 C 
ATOM     13  C   UNL     1      36.383 -20.560 -19.750  0.00  0.00    +0.016 C 
ATOM     14  C   UNL     1      34.142 -19.963 -20.426  0.00  0.00    +0.016 C 
ATOM     15  C   UNL     1      34.509 -21.914 -19.049  0.00  0.00    +0.122 C 
ATOM     16  C   UNL     1      35.880 -21.662 -19.057  0.00  0.00    +0.021 C 
ATOM     17  C   UNL     1      33.640 -21.064 -19.734  0.00  0.00    +0.021 C 
BRANCH  15  18
ATOM     18  S   UNL     1      33.879 -23.292 -18.183  0.00  0.00    +0.057 S 
ATOM     19  O   UNL     1      33.788 -24.414 -19.108  0.00  0.00    -0.153 OA
ATOM     20  O   UNL     1      34.624 -23.439 -16.940  0.00  0.00    -0.153 OA
BRANCH  18  21
ATOM     21  N   UNL     1      32.300 -22.753 -17.815  0.00  0.00    -0.203 NA
ATOM     22  H   UNL     1      31.854 -23.415 -17.179  0.00  0.00    +0.144 HD
ATOM     23  H   UNL     1      31.754 -22.687 -18.674  0.00  0.00    +0.144 HD
ENDBRANCH  18  21
ENDBRANCH  15  18
ENDBRANCH  10  12
ENDBRANCH   7  10
BRANCH   5  24
ATOM     24  O   UNL     1      34.425 -14.513 -22.946  0.00  0.00    -0.455 OA
BRANCH  24  25
ATOM     25  C   UNL     1      33.296 -13.992 -23.646  0.00  0.00    +0.169 C 
ATOM     26  C   UNL     1      32.133 -13.790 -22.673  0.00  0.00    +0.044 C 
ATOM     27  C   UNL     1      33.700 -12.682 -24.322  0.00  0.00    +0.044 C 
ATOM     28  C   UNL     1      32.417 -12.679 -21.661  0.00  0.00    +0.004 C 
ATOM     29  C   UNL     1      33.978 -11.572 -23.308  0.00  0.00    +0.004 C 
ATOM     30  C   UNL     1      32.805 -11.375 -22.352  0.00  0.00    +0.000 C 
ENDBRANCH  24  25
ENDBRANCH   5  24
TORSDOF 6
ENDMDL
MODEL 7
REMARK VINA RESULT:      -9.7      2.300      4.741
REMARK  Name = 11574606
REMARK  6 active torsions:
REMARK  status: ('A' for Active; 'I' for Inactive)
REMARK    1  A    between atoms: C_5  and  O_24
REMARK    2  A    between atoms: C_7  and  N_10
REMARK    3  A    between atoms: N_10  and  C_12
REMARK    4  A    between atoms: C_15  and  S_18
REMARK    5  A    between atoms: S_18  and  N_21
REMARK    6  A    between atoms: O_24  and  C_25
REMARK                            x       y       z     vdW  Elec       q    Type
REMARK                         _______ _______ _______ _____ _____    ______ ____
ROOT
ATOM      1  N   UNL     1      34.236 -24.458 -13.011  0.00  0.00    -0.299 NA
ATOM      2  N   UNL     1      36.189 -23.550 -14.082  0.00  0.00    -0.106 N 
ATOM      3  N   UNL     1      37.433 -23.132 -13.729  0.00  0.00    -0.139 NA
ATOM      4  N   UNL     1      36.300 -23.852 -11.888  0.00  0.00    -0.145 NA
ATOM      5  C   UNL     1      33.715 -24.470 -14.196  0.00  0.00    +0.291 C 
ATOM      6  C   UNL     1      34.339 -24.034 -15.464  0.00  0.00    +0.105 C 
ATOM      7  C   UNL     1      35.597 -23.574 -15.354  0.00  0.00    +0.142 C 
ATOM      8  C   UNL     1      35.513 -23.986 -12.937  0.00  0.00    +0.178 C 
ATOM      9  C   UNL     1      37.440 -23.337 -12.415  0.00  0.00    +0.230 C 
ENDROOT
BRANCH   7  10
ATOM     10  N   UNL     1      36.343 -23.126 -16.407  0.00  0.00    -0.299 N 
ATOM     11  H   UNL     1      37.304 -23.335 -16.372  0.00  0.00    +0.153 HD
BRANCH  10  12
ATOM     12  C   UNL     1      35.917 -22.407 -17.529  0.00  0.00    +0.049 C 
ATOM     13  C   UNL     1      36.803 -21.562 -18.209  0.00  0.00    +0.016 C 
ATOM     14  C   UNL     1      34.597 -22.523 -17.986  0.00  0.00    +0.016 C 
ATOM     15  C   UNL     1      35.062 -20.967 -19.775  0.00  0.00    +0.122 C 
ATOM     16  C   UNL     1      36.377 -20.845 -19.328  0.00  0.00    +0.021 C 
ATOM     17  C   UNL     1      34.172 -21.806 -19.104  0.00  0.00    +0.021 C 
BRANCH  15  18
ATOM     18  S   UNL     1      34.528 -20.070 -21.174  0.00  0.00    +0.057 S 
ATOM     19  O   UNL     1      35.256 -20.559 -22.338  0.00  0.00    -0.153 OA
ATOM     20  O   UNL     1      33.072 -20.052 -21.186  0.00  0.00    -0.153 OA
BRANCH  18  21
ATOM     21  N   UNL     1      35.092 -18.503 -20.791  0.00  0.00    -0.203 NA
ATOM     22  H   UNL     1      35.884 -18.574 -20.151  0.00  0.00    +0.144 HD
ATOM     23  H   UNL     1      34.344 -17.971 -20.347  0.00  0.00    +0.144 HD
ENDBRANCH  18  21
ENDBRANCH  15  18
ENDBRANCH  10  12
ENDBRANCH   7  10
BRANCH   5  24
ATOM     24  O   UNL     1      32.450 -24.921 -14.375  0.00  0.00    -0.455 OA
BRANCH  24  25
ATOM     25  C   UNL     1      31.515 -24.201 -13.573  0.00  0.00    +0.169 C 
ATOM     26  C   UNL     1      31.004 -22.982 -14.344  0.00  0.00    +0.044 C 
ATOM     27  C   UNL     1      30.374 -25.141 -13.186  0.00  0.00    +0.044 C 
ATOM     28  C   UNL     1      30.147 -23.380 -15.547  0.00  0.00    +0.004 C 
ATOM     29  C   UNL     1      29.516 -25.533 -14.389  0.00  0.00    +0.004 C 
ATOM     30  C   UNL     1      29.005 -24.308 -15.140  0.00  0.00    +0.000 C 
ENDBRANCH  24  25
ENDBRANCH   5  24
TORSDOF 6
ENDMDL
MODEL 8
REMARK VINA RESULT:      -9.6      1.921      4.901
REMARK  Name = 11574606
REMARK  6 active torsions:
REMARK  status: ('A' for Active; 'I' for Inactive)
REMARK    1  A    between atoms: C_5  and  O_24
REMARK    2  A    between atoms: C_7  and  N_10
REMARK    3  A    between atoms: N_10  and  C_12
REMARK    4  A    between atoms: C_15  and  S_18
REMARK    5  A    between atoms: S_18  and  N_21
REMARK    6  A    between atoms: O_24  and  C_25
REMARK                            x       y       z     vdW  Elec       q    Type
REMARK                         _______ _______ _______ _____ _____    ______ ____
ROOT
ATOM      1  N   UNL     1      32.083 -23.553 -14.419  0.00  0.00    -0.299 NA
ATOM      2  N   UNL     1      33.977 -24.053 -15.814  0.00  0.00    -0.106 N 
ATOM      3  N   UNL     1      35.181 -24.671 -15.699  0.00  0.00    -0.139 NA
ATOM      4  N   UNL     1      34.078 -24.735 -13.707  0.00  0.00    -0.145 NA
ATOM      5  C   UNL     1      31.580 -22.993 -15.472  0.00  0.00    +0.291 C 
ATOM      6  C   UNL     1      32.189 -22.883 -16.816  0.00  0.00    +0.105 C 
ATOM      7  C   UNL     1      33.407 -23.438 -16.939  0.00  0.00    +0.142 C 
ATOM      8  C   UNL     1      33.319 -24.105 -14.580  0.00  0.00    +0.178 C 
ATOM      9  C   UNL     1      35.184 -25.056 -14.426  0.00  0.00    +0.230 C 
ENDROOT
BRANCH   7  10
ATOM     10  N   UNL     1      34.132 -23.442 -18.097  0.00  0.00    -0.299 N 
ATOM     11  H   UNL     1      34.386 -24.329 -18.441  0.00  0.00    +0.153 HD
BRANCH  10  12
ATOM     12  C   UNL     1      34.562 -22.348 -18.856  0.00  0.00    +0.049 C 
ATOM     13  C   UNL     1      33.643 -21.589 -19.591  0.00  0.00    +0.016 C 
ATOM     14  C   UNL     1      35.919 -21.998 -18.890  0.00  0.00    +0.016 C 
ATOM     15  C   UNL     1      35.424 -20.158 -20.376  0.00  0.00    +0.122 C 
ATOM     16  C   UNL     1      34.072 -20.498 -20.347  0.00  0.00    +0.021 C 
ATOM     17  C   UNL     1      36.347 -20.908 -19.647  0.00  0.00    +0.021 C 
BRANCH  15  18
ATOM     18  S   UNL     1      35.961 -18.794 -21.323  0.00  0.00    +0.057 S 
ATOM     19  O   UNL     1      35.351 -17.588 -20.779  0.00  0.00    -0.153 OA
ATOM     20  O   UNL     1      37.408 -18.870 -21.466  0.00  0.00    -0.153 OA
BRANCH  18  21
ATOM     21  N   UNL     1      35.242 -19.142 -22.833  0.00  0.00    -0.203 NA
ATOM     22  H   UNL     1      34.228 -19.187 -22.725  0.00  0.00    +0.144 HD
ATOM     23  H   UNL     1      35.587 -20.040 -23.175  0.00  0.00    +0.144 HD
ENDBRANCH  18  21
ENDBRANCH  15  18
ENDBRANCH  10  12
ENDBRANCH   7  10
BRANCH   5  24
ATOM     24  O   UNL     1      30.356 -22.415 -15.414  0.00  0.00    -0.455 OA
BRANCH  24  25
ATOM     25  C   UNL     1      29.420 -23.233 -14.715  0.00  0.00    +0.169 C 
ATOM     26  C   UNL     1      28.023 -22.617 -14.809  0.00  0.00    +0.044 C 
ATOM     27  C   UNL     1      29.457 -24.640 -15.310  0.00  0.00    +0.044 C 
ATOM     28  C   UNL     1      27.472 -22.657 -16.236  0.00  0.00    +0.004 C 
ATOM     29  C   UNL     1      28.901 -24.678 -16.734  0.00  0.00    +0.004 C 
ATOM     30  C   UNL     1      27.504 -24.071 -16.810  0.00  0.00    +0.000 C 
ENDBRANCH  24  25
ENDBRANCH   5  24
TORSDOF 6
ENDMDL
MODEL 9
REMARK VINA RESULT:      -9.5      5.235     10.551
REMARK  Name = 11574606
REMARK  6 active torsions:
REMARK  status: ('A' for Active; 'I' for Inactive)
REMARK    1  A    between atoms: C_5  and  O_24
REMARK    2  A    between atoms: C_7  and  N_10
REMARK    3  A    between atoms: N_10  and  C_12
REMARK    4  A    between atoms: C_15  and  S_18
REMARK    5  A    between atoms: S_18  and  N_21
REMARK    6  A    between atoms: O_24  and  C_25
REMARK                            x       y       z     vdW  Elec       q    Type
REMARK                         _______ _______ _______ _____ _____    ______ ____
ROOT
ATOM      1  N   UNL     1      33.543 -14.828 -23.212  0.00  0.00    -0.299 NA
ATOM      2  N   UNL     1      34.654 -16.959 -23.304  0.00  0.00    -0.106 N 
ATOM      3  N   UNL     1      34.858 -17.954 -24.207  0.00  0.00    -0.139 NA
ATOM      4  N   UNL     1      33.621 -16.289 -25.148  0.00  0.00    -0.145 NA
ATOM      5  C   UNL     1      33.961 -14.775 -21.988  0.00  0.00    +0.291 C 
ATOM      6  C   UNL     1      34.766 -15.782 -21.262  0.00  0.00    +0.105 C 
ATOM      7  C   UNL     1      35.093 -16.874 -21.974  0.00  0.00    +0.142 C 
ATOM      8  C   UNL     1      33.893 -15.949 -23.904  0.00  0.00    +0.178 C 
ATOM      9  C   UNL     1      34.222 -17.498 -25.282  0.00  0.00    +0.230 C 
ENDROOT
BRANCH   7  10
ATOM     10  N   UNL     1      35.831 -17.914 -21.484  0.00  0.00    -0.299 N 
ATOM     11  H   UNL     1      36.806 -17.839 -21.597  0.00  0.00    +0.153 HD
BRANCH  10  12
ATOM     12  C   UNL     1      35.379 -19.073 -20.844  0.00  0.00    +0.049 C 
ATOM     13  C   UNL     1      34.018 -19.401 -20.847  0.00  0.00    +0.016 C 
ATOM     14  C   UNL     1      36.284 -19.921 -20.191  0.00  0.00    +0.016 C 
ATOM     15  C   UNL     1      34.476 -21.394 -19.561  0.00  0.00    +0.122 C 
ATOM     16  C   UNL     1      33.568 -20.557 -20.209  0.00  0.00    +0.021 C 
ATOM     17  C   UNL     1      35.834 -21.076 -19.552  0.00  0.00    +0.021 C 
BRANCH  15  18
ATOM     18  S   UNL     1      33.914 -22.840 -18.761  0.00  0.00    +0.057 S 
ATOM     19  O   UNL     1      32.586 -22.579 -18.220  0.00  0.00    -0.153 OA
ATOM     20  O   UNL     1      34.121 -23.973 -19.651  0.00  0.00    -0.153 OA
BRANCH  18  21
ATOM     21  N   UNL     1      35.024 -22.949 -17.467  0.00  0.00    -0.203 NA
ATOM     22  H   UNL     1      34.623 -23.519 -16.721  0.00  0.00    +0.144 HD
ATOM     23  H   UNL     1      35.223 -22.014 -17.109  0.00  0.00    +0.144 HD
ENDBRANCH  18  21
ENDBRANCH  15  18
ENDBRANCH  10  12
ENDBRANCH   7  10
BRANCH   5  24
ATOM     24  O   UNL     1      33.665 -13.702 -21.217  0.00  0.00    -0.455 OA
BRANCH  24  25
ATOM     25  C   UNL     1      32.257 -13.546 -21.048  0.00  0.00    +0.169 C 
ATOM     26  C   UNL     1      31.968 -12.874 -19.705  0.00  0.00    +0.044 C 
ATOM     27  C   UNL     1      31.711 -12.726 -22.217  0.00  0.00    +0.044 C 
ATOM     28  C   UNL     1      32.452 -11.423 -19.672  0.00  0.00    +0.004 C 
ATOM     29  C   UNL     1      32.192 -11.276 -22.179  0.00  0.00    +0.004 C 
ATOM     30  C   UNL     1      31.887 -10.616 -20.838  0.00  0.00    +0.000 C 
ENDBRANCH  24  25
ENDBRANCH   5  24
TORSDOF 6
ENDMDL
