MODEL 1
REMARK VINA RESULT:     -12.9      0.000      0.000
REMARK  Name = 44141871
REMARK  6 active torsions:
REMARK  status: ('A' for Active; 'I' for Inactive)
REMARK    1  A    between atoms: C_1  and  C_10
REMARK    2  A    between atoms: C_4  and  O_20
REMARK    3  A    between atoms: C_9  and  C_13
REMARK    4  A    between atoms: C_13  and  C_15
REMARK    5  A    between atoms: O_20  and  C_21
REMARK    6  A    between atoms: C_21  and  C_23
REMARK                            x       y       z     vdW  Elec       q    Type
REMARK                         _______ _______ _______ _____ _____    ______ ____
ROOT
ATOM      1  C   UNL     1      34.940 -18.915 -21.872  0.00  0.00    +0.015 C 
ATOM      2  C   UNL     1      33.815 -19.640 -21.476  0.00  0.00    +0.004 C 
ATOM      3  C   UNL     1      36.175 -19.165 -21.274  0.00  0.00    +0.004 C 
ATOM      4  C   UNL     1      35.162 -20.864 -19.887  0.00  0.00    +0.139 C 
ATOM      5  C   UNL     1      33.926 -20.614 -20.485  0.00  0.00    +0.037 C 
ATOM      6  C   UNL     1      36.286 -20.139 -20.282  0.00  0.00    +0.037 C 
ENDROOT
BRANCH   1  10
ATOM      7  N   UNL     1      34.687 -18.217 -24.218  0.00  0.00    -0.236 N 
ATOM      8  N   UNL     1      34.596 -17.142 -25.021  0.00  0.00    -0.180 NA
ATOM      9  C   UNL     1      34.824 -16.536 -22.830  0.00  0.00    +0.018 C 
ATOM     10  C   UNL     1      34.824 -17.908 -22.898  0.00  0.00    +0.063 C 
ATOM     11  C   UNL     1      34.680 -16.118 -24.168  0.00  0.00    +0.115 C 
ATOM     12  H   UNL     1      34.657 -19.142 -24.554  0.00  0.00    +0.174 HD
BRANCH   9  13
ATOM     13  C   UNL     1      34.946 -15.682 -21.636  0.00  0.00    +0.056 C 
BRANCH  13  15
ATOM     14  N   UNL     1      32.033 -12.502 -21.402  0.00  0.00    -0.242 NA
ATOM     15  C   UNL     1      33.918 -14.561 -21.553  0.00  0.00    -0.015 C 
ATOM     16  C   UNL     1      33.850 -13.602 -22.559  0.00  0.00    +0.017 C 
ATOM     17  C   UNL     1      33.046 -14.491 -20.473  0.00  0.00    +0.017 C 
ATOM     18  C   UNL     1      32.898 -12.602 -22.436  0.00  0.00    +0.099 C 
ATOM     19  C   UNL     1      32.130 -13.451 -20.445  0.00  0.00    +0.099 C 
ENDBRANCH  13  15
ENDBRANCH   9  13
ENDBRANCH   1  10
BRANCH   4  20
ATOM     20  O   UNL     1      35.272 -21.823 -18.915  0.00  0.00    -0.468 OA
BRANCH  20  21
ATOM     21  C   UNL     1      34.315 -22.874 -18.941  0.00  0.00    +0.264 C 
BRANCH  21  23
ATOM     22  N   UNL     1      32.386 -23.028 -17.487  0.00  0.00    -0.406 NA
ATOM     23  C   UNL     1      33.735 -23.050 -17.577  0.00  0.00    +0.152 C 
ATOM     24  C   UNL     1      32.605 -23.365 -15.112  0.00  0.00    +0.026 C 
ATOM     25  C   UNL     1      31.826 -23.183 -16.273  0.00  0.00    +0.113 C 
ATOM     26  C   UNL     1      34.580 -23.221 -16.499  0.00  0.00    +0.031 C 
ATOM     27  C   UNL     1      34.000 -23.381 -15.249  0.00  0.00    +0.005 C 
ATOM     28  C   UNL     1      31.987 -23.524 -13.860  0.00  0.00    +0.002 C 
ATOM     29  C   UNL     1      30.440 -23.167 -16.135  0.00  0.00    +0.085 C 
ATOM     30  C   UNL     1      30.599 -23.504 -13.751  0.00  0.00    -0.004 C 
ATOM     31  C   UNL     1      29.825 -23.326 -14.891  0.00  0.00    -0.019 C 
ENDBRANCH  21  23
ENDBRANCH  20  21
ENDBRANCH   4  20
TORSDOF 6
ENDMDL
MODEL 2
REMARK VINA RESULT:     -12.9      2.050      9.864
REMARK  Name = 44141871
REMARK  6 active torsions:
REMARK  status: ('A' for Active; 'I' for Inactive)
REMARK    1  A    between atoms: C_1  and  C_10
REMARK    2  A    between atoms: C_4  and  O_20
REMARK    3  A    between atoms: C_9  and  C_13
REMARK    4  A    between atoms: C_13  and  C_15
REMARK    5  A    between atoms: O_20  and  C_21
REMARK    6  A    between atoms: C_21  and  C_23
REMARK                            x       y       z     vdW  Elec       q    Type
REMARK                         _______ _______ _______ _____ _____    ______ ____
ROOT
ATOM      1  C   UNL     1      34.430 -23.035 -16.964  0.00  0.00    +0.015 C 
ATOM      2  C   UNL     1      35.657 -22.472 -17.315  0.00  0.00    +0.004 C 
ATOM      3  C   UNL     1      33.327 -22.879 -17.803  0.00  0.00    +0.004 C 
ATOM      4  C   UNL     1      34.677 -21.599 -19.344  0.00  0.00    +0.139 C 
ATOM      5  C   UNL     1      35.780 -21.755 -18.505  0.00  0.00    +0.037 C 
ATOM      6  C   UNL     1      33.450 -22.162 -18.993  0.00  0.00    +0.037 C 
ENDROOT
BRANCH   1  10
ATOM      7  N   UNL     1      35.192 -24.742 -15.363  0.00  0.00    -0.236 N 
ATOM      8  N   UNL     1      34.903 -25.322 -14.184  0.00  0.00    -0.180 NA
ATOM      9  C   UNL     1      33.368 -23.720 -14.729  0.00  0.00    +0.018 C 
ATOM     10  C   UNL     1      34.303 -23.777 -15.734  0.00  0.00    +0.063 C 
ATOM     11  C   UNL     1      33.789 -24.693 -13.802  0.00  0.00    +0.115 C 
ATOM     12  H   UNL     1      35.973 -24.992 -15.908  0.00  0.00    +0.174 HD
BRANCH   9  13
ATOM     13  C   UNL     1      32.187 -22.845 -14.631  0.00  0.00    +0.056 C 
BRANCH  13  15
ATOM     14  N   UNL     1      28.458 -24.735 -15.712  0.00  0.00    -0.242 NA
ATOM     15  C   UNL     1      30.872 -23.512 -15.012  0.00  0.00    -0.015 C 
ATOM     16  C   UNL     1      30.103 -22.995 -16.049  0.00  0.00    +0.017 C 
ATOM     17  C   UNL     1      30.436 -24.639 -14.326  0.00  0.00    +0.017 C 
ATOM     18  C   UNL     1      28.914 -23.638 -16.356  0.00  0.00    +0.099 C 
ATOM     19  C   UNL     1      29.233 -25.208 -14.710  0.00  0.00    +0.099 C 
ENDBRANCH  13  15
ENDBRANCH   9  13
ENDBRANCH   1  10
BRANCH   4  20
ATOM     20  O   UNL     1      34.798 -20.898 -20.514  0.00  0.00    -0.468 OA
BRANCH  20  21
ATOM     21  C   UNL     1      35.943 -20.065 -20.646  0.00  0.00    +0.264 C 
BRANCH  21  23
ATOM     22  N   UNL     1      35.280 -17.737 -20.589  0.00  0.00    -0.406 NA
ATOM     23  C   UNL     1      35.563 -18.811 -21.361  0.00  0.00    +0.152 C 
ATOM     24  C   UNL     1      34.861 -16.483 -22.602  0.00  0.00    +0.026 C 
ATOM     25  C   UNL     1      34.933 -16.588 -21.198  0.00  0.00    +0.113 C 
ATOM     26  C   UNL     1      35.519 -18.805 -22.740  0.00  0.00    +0.031 C 
ATOM     27  C   UNL     1      35.161 -17.619 -23.366  0.00  0.00    +0.005 C 
ATOM     28  C   UNL     1      34.496 -15.267 -23.205  0.00  0.00    +0.002 C 
ATOM     29  C   UNL     1      34.634 -15.458 -20.441  0.00  0.00    +0.085 C 
ATOM     30  C   UNL     1      34.201 -14.154 -22.424  0.00  0.00    -0.004 C 
ATOM     31  C   UNL     1      34.272 -14.249 -21.040  0.00  0.00    -0.019 C 
ENDBRANCH  21  23
ENDBRANCH  20  21
ENDBRANCH   4  20
TORSDOF 6
ENDMDL
MODEL 3
REMARK VINA RESULT:     -12.7      2.220     10.450
REMARK  Name = 44141871
REMARK  6 active torsions:
REMARK  status: ('A' for Active; 'I' for Inactive)
REMARK    1  A    between atoms: C_1  and  C_10
REMARK    2  A    between atoms: C_4  and  O_20
REMARK    3  A    between atoms: C_9  and  C_13
REMARK    4  A    between atoms: C_13  and  C_15
REMARK    5  A    between atoms: O_20  and  C_21
REMARK    6  A    between atoms: C_21  and  C_23
REMARK                            x       y       z     vdW  Elec       q    Type
REMARK                         _______ _______ _______ _____ _____    ______ ____
ROOT
ATOM      1  C   UNL     1      33.917 -22.055 -18.491  0.00  0.00    +0.015 C 
ATOM      2  C   UNL     1      35.283 -22.062 -18.776  0.00  0.00    +0.004 C 
ATOM      3  C   UNL     1      33.045 -21.306 -19.282  0.00  0.00    +0.004 C 
ATOM      4  C   UNL     1      34.904 -20.573 -20.640  0.00  0.00    +0.139 C 
ATOM      5  C   UNL     1      35.776 -21.322 -19.850  0.00  0.00    +0.037 C 
ATOM      6  C   UNL     1      33.538 -20.566 -20.356  0.00  0.00    +0.037 C 
ENDROOT
BRANCH   1  10
ATOM      7  N   UNL     1      32.099 -23.187 -17.280  0.00  0.00    -0.236 N 
ATOM      8  N   UNL     1      31.817 -23.897 -16.173  0.00  0.00    -0.180 NA
ATOM      9  C   UNL     1      34.027 -23.325 -16.263  0.00  0.00    +0.018 C 
ATOM     10  C   UNL     1      33.408 -22.821 -17.381  0.00  0.00    +0.063 C 
ATOM     11  C   UNL     1      32.999 -23.978 -15.556  0.00  0.00    +0.115 C 
ATOM     12  H   UNL     1      31.421 -22.954 -17.955  0.00  0.00    +0.174 HD
BRANCH   9  13
ATOM     13  C   UNL     1      35.445 -23.215 -15.878  0.00  0.00    +0.056 C 
BRANCH  13  15
ATOM     14  N   UNL     1      36.574 -25.632 -12.482  0.00  0.00    -0.242 NA
ATOM     15  C   UNL     1      35.843 -24.067 -14.680  0.00  0.00    -0.015 C 
ATOM     16  C   UNL     1      36.360 -25.344 -14.874  0.00  0.00    +0.017 C 
ATOM     17  C   UNL     1      35.691 -23.573 -13.390  0.00  0.00    +0.017 C 
ATOM     18  C   UNL     1      36.707 -26.079 -13.752  0.00  0.00    +0.099 C 
ATOM     19  C   UNL     1      36.068 -24.387 -12.334  0.00  0.00    +0.099 C 
ENDBRANCH  13  15
ENDBRANCH   9  13
ENDBRANCH   1  10
BRANCH   4  20
ATOM     20  O   UNL     1      35.387 -19.848 -21.697  0.00  0.00    -0.468 OA
BRANCH  20  21
ATOM     21  C   UNL     1      35.791 -18.512 -21.426  0.00  0.00    +0.264 C 
BRANCH  21  23
ATOM     22  N   UNL     1      35.064 -16.300 -22.087  0.00  0.00    -0.406 NA
ATOM     23  C   UNL     1      35.195 -17.598 -22.444  0.00  0.00    +0.152 C 
ATOM     24  C   UNL     1      34.112 -15.868 -24.257  0.00  0.00    +0.026 C 
ATOM     25  C   UNL     1      34.530 -15.445 -22.979  0.00  0.00    +0.113 C 
ATOM     26  C   UNL     1      34.814 -18.105 -23.669  0.00  0.00    +0.031 C 
ATOM     27  C   UNL     1      34.264 -17.222 -24.587  0.00  0.00    +0.005 C 
ATOM     28  C   UNL     1      33.558 -14.948 -25.164  0.00  0.00    +0.002 C 
ATOM     29  C   UNL     1      34.378 -14.100 -22.653  0.00  0.00    +0.085 C 
ATOM     30  C   UNL     1      33.417 -13.609 -24.811  0.00  0.00    -0.004 C 
ATOM     31  C   UNL     1      33.828 -13.184 -23.554  0.00  0.00    -0.019 C 
ENDBRANCH  21  23
ENDBRANCH  20  21
ENDBRANCH   4  20
TORSDOF 6
ENDMDL
MODEL 4
REMARK VINA RESULT:     -12.5      3.232      6.571
REMARK  Name = 44141871
REMARK  6 active torsions:
REMARK  status: ('A' for Active; 'I' for Inactive)
REMARK    1  A    between atoms: C_1  and  C_10
REMARK    2  A    between atoms: C_4  and  O_20
REMARK    3  A    between atoms: C_9  and  C_13
REMARK    4  A    between atoms: C_13  and  C_15
REMARK    5  A    between atoms: O_20  and  C_21
REMARK    6  A    between atoms: C_21  and  C_23
REMARK                            x       y       z     vdW  Elec       q    Type
REMARK                         _______ _______ _______ _____ _____    ______ ____
ROOT
ATOM      1  C   UNL     1      33.007 -13.427 -22.294  0.00  0.00    +0.015 C 
ATOM      2  C   UNL     1      33.730 -14.090 -21.301  0.00  0.00    +0.004 C 
ATOM      3  C   UNL     1      33.080 -13.863 -23.617  0.00  0.00    +0.004 C 
ATOM      4  C   UNL     1      34.597 -15.623 -22.955  0.00  0.00    +0.139 C 
ATOM      5  C   UNL     1      34.524 -15.187 -21.632  0.00  0.00    +0.037 C 
ATOM      6  C   UNL     1      33.874 -14.960 -23.948  0.00  0.00    +0.037 C 
ENDROOT
BRANCH   1  10
ATOM      7  N   UNL     1      31.159 -12.373 -21.056  0.00  0.00    -0.236 N 
ATOM      8  N   UNL     1      30.509 -11.210 -20.870  0.00  0.00    -0.180 NA
ATOM      9  C   UNL     1      32.208 -10.989 -22.382  0.00  0.00    +0.018 C 
ATOM     10  C   UNL     1      32.185 -12.293 -21.951  0.00  0.00    +0.063 C 
ATOM     11  C   UNL     1      31.155 -10.369 -21.682  0.00  0.00    +0.115 C 
ATOM     12  H   UNL     1      30.917 -13.204 -20.588  0.00  0.00    +0.174 HD
BRANCH   9  13
ATOM     13  C   UNL     1      33.123 -10.367 -23.354  0.00  0.00    +0.056 C 
BRANCH  13  15
ATOM     14  N   UNL     1      32.784  -6.071 -23.640  0.00  0.00    -0.242 NA
ATOM     15  C   UNL     1      33.003  -8.852 -23.455  0.00  0.00    -0.015 C 
ATOM     16  C   UNL     1      33.774  -8.035 -22.634  0.00  0.00    +0.017 C 
ATOM     17  C   UNL     1      32.124  -8.280 -24.368  0.00  0.00    +0.017 C 
ATOM     18  C   UNL     1      33.627  -6.663 -22.764  0.00  0.00    +0.099 C 
ATOM     19  C   UNL     1      32.052  -6.897 -24.420  0.00  0.00    +0.099 C 
ENDBRANCH  13  15
ENDBRANCH   9  13
ENDBRANCH   1  10
BRANCH   4  20
ATOM     20  O   UNL     1      35.375 -16.702 -23.280  0.00  0.00    -0.468 OA
BRANCH  20  21
ATOM     21  C   UNL     1      34.731 -17.969 -23.312  0.00  0.00    +0.264 C 
BRANCH  21  23
ATOM     22  N   UNL     1      34.345 -19.649 -21.612  0.00  0.00    -0.406 NA
ATOM     23  C   UNL     1      35.237 -18.811 -22.188  0.00  0.00    +0.152 C 
ATOM     24  C   UNL     1      36.093 -20.380 -20.125  0.00  0.00    +0.026 C 
ATOM     25  C   UNL     1      34.764 -20.424 -20.595  0.00  0.00    +0.113 C 
ATOM     26  C   UNL     1      36.555 -18.698 -21.798  0.00  0.00    +0.031 C 
ATOM     27  C   UNL     1      36.985 -19.498 -20.749  0.00  0.00    +0.005 C 
ATOM     28  C   UNL     1      36.497 -21.205 -19.060  0.00  0.00    +0.002 C 
ATOM     29  C   UNL     1      33.879 -21.301 -19.974  0.00  0.00    +0.085 C 
ATOM     30  C   UNL     1      35.590 -22.072 -18.458  0.00  0.00    -0.004 C 
ATOM     31  C   UNL     1      34.280 -22.121 -18.916  0.00  0.00    -0.019 C 
ENDBRANCH  21  23
ENDBRANCH  20  21
ENDBRANCH   4  20
TORSDOF 6
ENDMDL
MODEL 5
REMARK VINA RESULT:     -12.4      2.699     10.498
REMARK  Name = 44141871
REMARK  6 active torsions:
REMARK  status: ('A' for Active; 'I' for Inactive)
REMARK    1  A    between atoms: C_1  and  C_10
REMARK    2  A    between atoms: C_4  and  O_20
REMARK    3  A    between atoms: C_9  and  C_13
REMARK    4  A    between atoms: C_13  and  C_15
REMARK    5  A    between atoms: O_20  and  C_21
REMARK    6  A    between atoms: C_21  and  C_23
REMARK                            x       y       z     vdW  Elec       q    Type
REMARK                         _______ _______ _______ _____ _____    ______ ____
ROOT
ATOM      1  C   UNL     1      34.207 -22.776 -17.201  0.00  0.00    +0.015 C 
ATOM      2  C   UNL     1      35.536 -22.409 -17.413  0.00  0.00    +0.004 C 
ATOM      3  C   UNL     1      33.244 -22.496 -18.170  0.00  0.00    +0.004 C 
ATOM      4  C   UNL     1      34.938 -21.483 -19.563  0.00  0.00    +0.139 C 
ATOM      5  C   UNL     1      35.901 -21.763 -18.594  0.00  0.00    +0.037 C 
ATOM      6  C   UNL     1      33.609 -21.850 -19.351  0.00  0.00    +0.037 C 
ENDROOT
BRANCH   1  10
ATOM      7  N   UNL     1      32.555 -23.860 -15.733  0.00  0.00    -0.236 N 
ATOM      8  N   UNL     1      32.400 -24.462 -14.541  0.00  0.00    -0.180 NA
ATOM      9  C   UNL     1      34.562 -23.799 -14.873  0.00  0.00    +0.018 C 
ATOM     10  C   UNL     1      33.830 -23.445 -15.980  0.00  0.00    +0.063 C 
ATOM     11  C   UNL     1      33.630 -24.421 -14.019  0.00  0.00    +0.115 C 
ATOM     12  H   UNL     1      31.815 -23.731 -16.370  0.00  0.00    +0.174 HD
BRANCH   9  13
ATOM     13  C   UNL     1      35.997 -23.582 -14.621  0.00  0.00    +0.056 C 
BRANCH  13  15
ATOM     14  N   UNL     1      38.346 -27.199 -14.399  0.00  0.00    -0.242 NA
ATOM     15  C   UNL     1      36.825 -24.857 -14.542  0.00  0.00    -0.015 C 
ATOM     16  C   UNL     1      38.180 -24.791 -14.236  0.00  0.00    +0.017 C 
ATOM     17  C   UNL     1      36.230 -26.092 -14.777  0.00  0.00    +0.017 C 
ATOM     18  C   UNL     1      38.889 -25.980 -14.178  0.00  0.00    +0.099 C 
ATOM     19  C   UNL     1      37.027 -27.222 -14.693  0.00  0.00    +0.099 C 
ENDBRANCH  13  15
ENDBRANCH   9  13
ENDBRANCH   1  10
BRANCH   4  20
ATOM     20  O   UNL     1      35.297 -20.851 -20.724  0.00  0.00    -0.468 OA
BRANCH  20  21
ATOM     21  C   UNL     1      36.227 -19.782 -20.610  0.00  0.00    +0.264 C 
BRANCH  21  23
ATOM     22  N   UNL     1      35.393 -17.510 -20.645  0.00  0.00    -0.406 NA
ATOM     23  C   UNL     1      35.722 -18.602 -21.372  0.00  0.00    +0.152 C 
ATOM     24  C   UNL     1      34.791 -16.406 -22.700  0.00  0.00    +0.026 C 
ATOM     25  C   UNL     1      34.933 -16.426 -21.297  0.00  0.00    +0.113 C 
ATOM     26  C   UNL     1      35.617 -18.678 -22.746  0.00  0.00    +0.031 C 
ATOM     27  C   UNL     1      35.143 -17.559 -23.415  0.00  0.00    +0.005 C 
ATOM     28  C   UNL     1      34.308 -15.257 -23.348  0.00  0.00    +0.002 C 
ATOM     29  C   UNL     1      34.583 -15.280 -20.587  0.00  0.00    +0.085 C 
ATOM     30  C   UNL     1      33.965 -14.125 -22.613  0.00  0.00    -0.004 C 
ATOM     31  C   UNL     1      34.104 -14.137 -21.231  0.00  0.00    -0.019 C 
ENDBRANCH  21  23
ENDBRANCH  20  21
ENDBRANCH   4  20
TORSDOF 6
ENDMDL
MODEL 6
REMARK VINA RESULT:     -12.3      1.793      2.326
REMARK  Name = 44141871
REMARK  6 active torsions:
REMARK  status: ('A' for Active; 'I' for Inactive)
REMARK    1  A    between atoms: C_1  and  C_10
REMARK    2  A    between atoms: C_4  and  O_20
REMARK    3  A    between atoms: C_9  and  C_13
REMARK    4  A    between atoms: C_13  and  C_15
REMARK    5  A    between atoms: O_20  and  C_21
REMARK    6  A    between atoms: C_21  and  C_23
REMARK                            x       y       z     vdW  Elec       q    Type
REMARK                         _______ _______ _______ _____ _____    ______ ____
ROOT
ATOM      1  C   UNL     1      35.087 -18.284 -22.386  0.00  0.00    +0.015 C 
ATOM      2  C   UNL     1      34.301 -19.408 -22.133  0.00  0.00    +0.004 C 
ATOM      3  C   UNL     1      36.295 -18.112 -21.709  0.00  0.00    +0.004 C 
ATOM      4  C   UNL     1      35.930 -20.188 -20.528  0.00  0.00    +0.139 C 
ATOM      5  C   UNL     1      34.722 -20.360 -21.205  0.00  0.00    +0.037 C 
ATOM      6  C   UNL     1      36.716 -19.064 -20.781  0.00  0.00    +0.037 C 
ENDROOT
BRANCH   1  10
ATOM      7  N   UNL     1      34.313 -17.623 -24.627  0.00  0.00    -0.236 N 
ATOM      8  N   UNL     1      33.933 -16.569 -25.370  0.00  0.00    -0.180 NA
ATOM      9  C   UNL     1      34.482 -15.941 -23.243  0.00  0.00    +0.018 C 
ATOM     10  C   UNL     1      34.651 -17.300 -23.346  0.00  0.00    +0.063 C 
ATOM     11  C   UNL     1      34.038 -15.545 -24.520  0.00  0.00    +0.115 C 
ATOM     12  H   UNL     1      34.343 -18.544 -24.975  0.00  0.00    +0.174 HD
BRANCH   9  13
ATOM     13  C   UNL     1      34.709 -15.080 -22.070  0.00  0.00    +0.056 C 
BRANCH  13  15
ATOM     14  N   UNL     1      31.706 -12.035 -21.471  0.00  0.00    -0.242 NA
ATOM     15  C   UNL     1      33.650 -14.007 -21.858  0.00  0.00    -0.015 C 
ATOM     16  C   UNL     1      33.537 -12.952 -22.758  0.00  0.00    +0.017 C 
ATOM     17  C   UNL     1      32.792 -14.077 -20.766  0.00  0.00    +0.017 C 
ATOM     18  C   UNL     1      32.557 -12.001 -22.521  0.00  0.00    +0.099 C 
ATOM     19  C   UNL     1      31.846 -13.075 -20.619  0.00  0.00    +0.099 C 
ENDBRANCH  13  15
ENDBRANCH   9  13
ENDBRANCH   1  10
BRANCH   4  20
ATOM     20  O   UNL     1      36.346 -21.124 -19.619  0.00  0.00    -0.468 OA
BRANCH  20  21
ATOM     21  C   UNL     1      35.347 -21.978 -19.076  0.00  0.00    +0.264 C 
BRANCH  21  23
ATOM     22  N   UNL     1      34.808 -23.070 -16.984  0.00  0.00    -0.406 NA
ATOM     23  C   UNL     1      35.718 -22.349 -17.679  0.00  0.00    +0.152 C 
ATOM     24  C   UNL     1      36.329 -23.062 -15.116  0.00  0.00    +0.026 C 
ATOM     25  C   UNL     1      35.107 -23.423 -15.720  0.00  0.00    +0.113 C 
ATOM     26  C   UNL     1      36.938 -21.949 -17.173  0.00  0.00    +0.031 C 
ATOM     27  C   UNL     1      37.243 -22.315 -15.870  0.00  0.00    +0.005 C 
ATOM     28  C   UNL     1      36.608 -23.448 -13.793  0.00  0.00    +0.002 C 
ATOM     29  C   UNL     1      34.199 -24.165 -14.969  0.00  0.00    +0.085 C 
ATOM     30  C   UNL     1      35.682 -24.190 -13.065  0.00  0.00    -0.004 C 
ATOM     31  C   UNL     1      34.476 -24.550 -13.654  0.00  0.00    -0.019 C 
ENDBRANCH  21  23
ENDBRANCH  20  21
ENDBRANCH   4  20
TORSDOF 6
ENDMDL
MODEL 7
REMARK VINA RESULT:     -12.1      1.983     10.225
REMARK  Name = 44141871
REMARK  6 active torsions:
REMARK  status: ('A' for Active; 'I' for Inactive)
REMARK    1  A    between atoms: C_1  and  C_10
REMARK    2  A    between atoms: C_4  and  O_20
REMARK    3  A    between atoms: C_9  and  C_13
REMARK    4  A    between atoms: C_13  and  C_15
REMARK    5  A    between atoms: O_20  and  C_21
REMARK    6  A    between atoms: C_21  and  C_23
REMARK                            x       y       z     vdW  Elec       q    Type
REMARK                         _______ _______ _______ _____ _____    ______ ____
ROOT
ATOM      1  C   UNL     1      35.088 -22.070 -18.247  0.00  0.00    +0.015 C 
ATOM      2  C   UNL     1      36.264 -21.612 -18.843  0.00  0.00    +0.004 C 
ATOM      3  C   UNL     1      33.852 -21.739 -18.802  0.00  0.00    +0.004 C 
ATOM      4  C   UNL     1      34.966 -20.493 -20.546  0.00  0.00    +0.139 C 
ATOM      5  C   UNL     1      36.203 -20.824 -19.992  0.00  0.00    +0.037 C 
ATOM      6  C   UNL     1      33.791 -20.951 -19.951  0.00  0.00    +0.037 C 
ENDROOT
BRANCH   1  10
ATOM      7  N   UNL     1      36.327 -23.181 -16.433  0.00  0.00    -0.236 N 
ATOM      8  N   UNL     1      36.181 -23.954 -15.343  0.00  0.00    -0.180 NA
ATOM      9  C   UNL     1      34.169 -23.507 -16.329  0.00  0.00    +0.018 C 
ATOM     10  C   UNL     1      35.152 -22.885 -17.059  0.00  0.00    +0.063 C 
ATOM     11  C   UNL     1      34.861 -24.150 -15.284  0.00  0.00    +0.115 C 
ATOM     12  H   UNL     1      37.201 -22.858 -16.750  0.00  0.00    +0.174 HD
BRANCH   9  13
ATOM     13  C   UNL     1      32.716 -23.510 -16.572  0.00  0.00    +0.056 C 
BRANCH  13  15
ATOM     14  N   UNL     1      30.320 -24.466 -13.109  0.00  0.00    -0.242 NA
ATOM     15  C   UNL     1      31.871 -23.848 -15.351  0.00  0.00    -0.015 C 
ATOM     16  C   UNL     1      30.863 -24.801 -15.442  0.00  0.00    +0.017 C 
ATOM     17  C   UNL     1      32.105 -23.204 -14.141  0.00  0.00    +0.017 C 
ATOM     18  C   UNL     1      30.122 -25.071 -14.303  0.00  0.00    +0.099 C 
ATOM     19  C   UNL     1      31.309 -23.546 -13.060  0.00  0.00    +0.099 C 
ENDBRANCH  13  15
ENDBRANCH   9  13
ENDBRANCH   1  10
BRANCH   4  20
ATOM     20  O   UNL     1      34.906 -19.722 -21.677  0.00  0.00    -0.468 OA
BRANCH  20  21
ATOM     21  C   UNL     1      35.707 -18.548 -21.695  0.00  0.00    +0.264 C 
BRANCH  21  23
ATOM     22  N   UNL     1      35.038 -16.276 -22.192  0.00  0.00    -0.406 NA
ATOM     23  C   UNL     1      35.107 -17.553 -22.632  0.00  0.00    +0.152 C 
ATOM     24  C   UNL     1      34.020 -15.678 -24.292  0.00  0.00    +0.026 C 
ATOM     25  C   UNL     1      34.502 -15.349 -23.009  0.00  0.00    +0.113 C 
ATOM     26  C   UNL     1      34.661 -17.970 -23.869  0.00  0.00    +0.031 C 
ATOM     27  C   UNL     1      34.110 -17.013 -24.708  0.00  0.00    +0.005 C 
ATOM     28  C   UNL     1      33.467 -14.685 -25.119  0.00  0.00    +0.002 C 
ATOM     29  C   UNL     1      34.412 -14.022 -22.596  0.00  0.00    +0.085 C 
ATOM     30  C   UNL     1      33.389 -13.366 -24.680  0.00  0.00    -0.004 C 
ATOM     31  C   UNL     1      33.863 -13.035 -23.417  0.00  0.00    -0.019 C 
ENDBRANCH  21  23
ENDBRANCH  20  21
ENDBRANCH   4  20
TORSDOF 6
ENDMDL
MODEL 8
REMARK VINA RESULT:     -12.0      2.298      3.617
REMARK  Name = 44141871
REMARK  6 active torsions:
REMARK  status: ('A' for Active; 'I' for Inactive)
REMARK    1  A    between atoms: C_1  and  C_10
REMARK    2  A    between atoms: C_4  and  O_20
REMARK    3  A    between atoms: C_9  and  C_13
REMARK    4  A    between atoms: C_13  and  C_15
REMARK    5  A    between atoms: O_20  and  C_21
REMARK    6  A    between atoms: C_21  and  C_23
REMARK                            x       y       z     vdW  Elec       q    Type
REMARK                         _______ _______ _______ _____ _____    ______ ____
ROOT
ATOM      1  C   UNL     1      34.547 -16.596 -23.184  0.00  0.00    +0.015 C 
ATOM      2  C   UNL     1      34.694 -17.921 -23.597  0.00  0.00    +0.004 C 
ATOM      3  C   UNL     1      34.826 -16.243 -21.864  0.00  0.00    +0.004 C 
ATOM      4  C   UNL     1      35.400 -18.537 -21.370  0.00  0.00    +0.139 C 
ATOM      5  C   UNL     1      35.121 -18.891 -22.690  0.00  0.00    +0.037 C 
ATOM      6  C   UNL     1      35.253 -17.213 -20.957  0.00  0.00    +0.037 C 
ENDROOT
BRANCH   1  10
ATOM      7  N   UNL     1      33.766 -15.890 -25.409  0.00  0.00    -0.236 N 
ATOM      8  N   UNL     1      33.382 -14.821 -26.129  0.00  0.00    -0.180 NA
ATOM      9  C   UNL     1      33.934 -14.237 -23.991  0.00  0.00    +0.018 C 
ATOM     10  C   UNL     1      34.106 -15.593 -24.123  0.00  0.00    +0.063 C 
ATOM     11  C   UNL     1      33.487 -13.815 -25.258  0.00  0.00    +0.115 C 
ATOM     12  H   UNL     1      33.798 -16.803 -25.777  0.00  0.00    +0.174 HD
BRANCH   9  13
ATOM     13  C   UNL     1      34.163 -13.401 -22.800  0.00  0.00    +0.056 C 
BRANCH  13  15
ATOM     14  N   UNL     1      31.037 -10.530 -21.999  0.00  0.00    -0.242 NA
ATOM     15  C   UNL     1      33.060 -12.388 -22.518  0.00  0.00    -0.015 C 
ATOM     16  C   UNL     1      32.035 -12.702 -21.632  0.00  0.00    +0.017 C 
ATOM     17  C   UNL     1      33.075 -11.147 -23.144  0.00  0.00    +0.017 C 
ATOM     18  C   UNL     1      31.056 -11.747 -21.409  0.00  0.00    +0.099 C 
ATOM     19  C   UNL     1      32.049 -10.262 -22.854  0.00  0.00    +0.099 C 
ENDBRANCH  13  15
ENDBRANCH   9  13
ENDBRANCH   1  10
BRANCH   4  20
ATOM     20  O   UNL     1      35.822 -19.489 -20.480  0.00  0.00    -0.468 OA
BRANCH  20  21
ATOM     21  C   UNL     1      35.369 -20.818 -20.701  0.00  0.00    +0.264 C 
BRANCH  21  23
ATOM     22  N   UNL     1      36.293 -21.447 -18.554  0.00  0.00    -0.406 NA
ATOM     23  C   UNL     1      35.233 -21.519 -19.390  0.00  0.00    +0.152 C 
ATOM     24  C   UNL     1      35.054 -22.780 -16.975  0.00  0.00    +0.026 C 
ATOM     25  C   UNL     1      36.208 -22.067 -17.362  0.00  0.00    +0.113 C 
ATOM     26  C   UNL     1      34.064 -22.192 -19.101  0.00  0.00    +0.031 C 
ATOM     27  C   UNL     1      33.979 -22.831 -17.872  0.00  0.00    +0.005 C 
ATOM     28  C   UNL     1      35.000 -23.416 -15.723  0.00  0.00    +0.002 C 
ATOM     29  C   UNL     1      37.277 -22.017 -16.471  0.00  0.00    +0.085 C 
ATOM     30  C   UNL     1      36.083 -23.350 -14.851  0.00  0.00    -0.004 C 
ATOM     31  C   UNL     1      37.223 -22.649 -15.225  0.00  0.00    -0.019 C 
ENDBRANCH  21  23
ENDBRANCH  20  21
ENDBRANCH   4  20
TORSDOF 6
ENDMDL
MODEL 9
REMARK VINA RESULT:     -11.9      2.632     10.457
REMARK  Name = 44141871
REMARK  6 active torsions:
REMARK  status: ('A' for Active; 'I' for Inactive)
REMARK    1  A    between atoms: C_1  and  C_10
REMARK    2  A    between atoms: C_4  and  O_20
REMARK    3  A    between atoms: C_9  and  C_13
REMARK    4  A    between atoms: C_13  and  C_15
REMARK    5  A    between atoms: O_20  and  C_21
REMARK    6  A    between atoms: C_21  and  C_23
REMARK                            x       y       z     vdW  Elec       q    Type
REMARK                         _______ _______ _______ _____ _____    ______ ____
ROOT
ATOM      1  C   UNL     1      33.741 -23.055 -16.644  0.00  0.00    +0.015 C 
ATOM      2  C   UNL     1      35.112 -22.802 -16.612  0.00  0.00    +0.004 C 
ATOM      3  C   UNL     1      33.014 -22.802 -17.807  0.00  0.00    +0.004 C 
ATOM      4  C   UNL     1      35.029 -22.045 -18.905  0.00  0.00    +0.139 C 
ATOM      5  C   UNL     1      35.756 -22.298 -17.742  0.00  0.00    +0.037 C 
ATOM      6  C   UNL     1      33.657 -22.298 -18.937  0.00  0.00    +0.037 C 
ENDROOT
BRANCH   1  10
ATOM      7  N   UNL     1      31.770 -23.307 -15.192  0.00  0.00    -0.236 N 
ATOM      8  N   UNL     1      31.331 -23.883 -14.059  0.00  0.00    -0.180 NA
ATOM      9  C   UNL     1      33.524 -24.383 -14.458  0.00  0.00    +0.018 C 
ATOM     10  C   UNL     1      33.076 -23.577 -15.476  0.00  0.00    +0.063 C 
ATOM     11  C   UNL     1      32.406 -24.539 -13.615  0.00  0.00    +0.115 C 
ATOM     12  H   UNL     1      31.200 -22.744 -15.764  0.00  0.00    +0.174 HD
BRANCH   9  13
ATOM     13  C   UNL     1      34.866 -24.962 -14.277  0.00  0.00    +0.056 C 
BRANCH  13  15
ATOM     14  N   UNL     1      36.915 -23.658 -10.706  0.00  0.00    -0.242 NA
ATOM     15  C   UNL     1      35.589 -24.502 -13.018  0.00  0.00    -0.015 C 
ATOM     16  C   UNL     1      36.583 -23.533 -13.098  0.00  0.00    +0.017 C 
ATOM     17  C   UNL     1      35.257 -25.050 -11.784  0.00  0.00    +0.017 C 
ATOM     18  C   UNL     1      37.210 -23.149 -11.924  0.00  0.00    +0.099 C 
ATOM     19  C   UNL     1      35.944 -24.598 -10.668  0.00  0.00    +0.099 C 
ENDBRANCH  13  15
ENDBRANCH   9  13
ENDBRANCH   1  10
BRANCH   4  20
ATOM     20  O   UNL     1      35.661 -21.553 -20.015  0.00  0.00    -0.468 OA
BRANCH  20  21
ATOM     21  C   UNL     1      36.144 -20.219 -19.939  0.00  0.00    +0.264 C 
BRANCH  21  23
ATOM     22  N   UNL     1      35.601 -18.104 -20.985  0.00  0.00    -0.406 NA
ATOM     23  C   UNL     1      35.662 -19.448 -21.123  0.00  0.00    +0.152 C 
ATOM     24  C   UNL     1      34.788 -17.975 -23.248  0.00  0.00    +0.026 C 
ATOM     25  C   UNL     1      35.170 -17.375 -22.031  0.00  0.00    +0.113 C 
ATOM     26  C   UNL     1      35.309 -20.124 -22.273  0.00  0.00    +0.031 C 
ATOM     27  C   UNL     1      34.865 -19.370 -23.350  0.00  0.00    +0.005 C 
ATOM     28  C   UNL     1      34.343 -17.182 -24.321  0.00  0.00    +0.002 C 
ATOM     29  C   UNL     1      35.093 -15.988 -21.931  0.00  0.00    +0.085 C 
ATOM     30  C   UNL     1      34.275 -15.798 -24.193  0.00  0.00    -0.004 C 
ATOM     31  C   UNL     1      34.651 -15.200 -22.997  0.00  0.00    -0.019 C 
ENDBRANCH  21  23
ENDBRANCH  20  21
ENDBRANCH   4  20
TORSDOF 6
ENDMDL
