MODEL 1
REMARK VINA RESULT:     -11.5      0.000      0.000
REMARK  Name = 5289411
REMARK  6 active torsions:
REMARK  status: ('A' for Active; 'I' for Inactive)
REMARK    1  A    between atoms: N_3  and  C_9
REMARK    2  A    between atoms: C_4  and  O_25
REMARK    3  A    between atoms: C_5  and  N_24
REMARK    4  A    between atoms: C_12  and  C_17
REMARK    5  A    between atoms: O_25  and  C_26
REMARK    6  A    between atoms: C_26  and  C_27
REMARK                            x       y       z     vdW  Elec       q    Type
REMARK                         _______ _______ _______ _____ _____    ______ ____
ROOT
ATOM      1  N   UNL     1      33.240 -23.820 -15.358  0.00  0.00    -0.293 NA
ATOM      2  N   UNL     1      33.877 -25.030 -13.373  0.00  0.00    -0.316 NA
ATOM      3  N   UNL     1      31.624 -24.563 -13.829  0.00  0.00    -0.238 N 
ATOM      4  C   UNL     1      34.547 -23.747 -15.685  0.00  0.00    +0.292 C 
ATOM      5  C   UNL     1      35.562 -24.281 -14.921  0.00  0.00    +0.261 C 
ATOM      6  C   UNL     1      35.165 -24.918 -13.763  0.00  0.00    +0.196 C 
ATOM      7  C   UNL     1      32.980 -24.466 -14.205  0.00  0.00    +0.207 C 
ATOM      8  H   UNL     1      31.481 -25.042 -12.980  0.00  0.00    +0.166 HD
ATOM      9  N   UNL     1      36.151 -25.495 -12.923  0.00  0.00    -0.334 N 
ATOM     10  H   UNL     1      35.883 -25.953 -12.093  0.00  0.00    +0.144 HD
ATOM     11  H   UNL     1      37.102 -25.437 -13.169  0.00  0.00    +0.144 HD
ENDROOT
BRANCH   3  12
ATOM     12  C   UNL     1      30.435 -24.109 -14.428  0.00  0.00    +0.058 C 
ATOM     13  C   UNL     1      29.647 -24.988 -15.176  0.00  0.00    +0.015 C 
ATOM     14  C   UNL     1      30.038 -22.779 -14.279  0.00  0.00    +0.015 C 
ATOM     15  C   UNL     1      28.076 -23.207 -15.621  0.00  0.00    +0.053 C 
ATOM     16  C   UNL     1      28.469 -24.537 -15.772  0.00  0.00    +0.006 C 
ATOM     17  C   UNL     1      28.860 -22.328 -14.875  0.00  0.00    +0.006 C 
BRANCH  15  20
ATOM     18  O   UNL     1      25.844 -22.456 -15.566  0.00  0.00    -0.270 OA
ATOM     19  N   UNL     1      26.836 -22.596 -17.628  0.00  0.00    -0.325 N 
ATOM     20  C   UNL     1      26.848 -22.738 -16.244  0.00  0.00    +0.243 C 
ATOM     21  H   UNL     1      26.022 -22.281 -18.084  0.00  0.00    +0.145 HD
ATOM     22  H   UNL     1      27.642 -22.811 -18.151  0.00  0.00    +0.145 HD
ENDBRANCH  15  20
ENDBRANCH   3  12
BRANCH   5  24
ATOM     23  O   UNL     1      37.531 -23.375 -14.615  0.00  0.00    -0.099 OA
ATOM     24  N   UNL     1      36.879 -24.179 -15.298  0.00  0.00    -0.030 NA
ENDBRANCH   5  24
BRANCH   4  25
ATOM     25  O   UNL     1      34.831 -23.090 -16.857  0.00  0.00    -0.453 OA
BRANCH  25  26
ATOM     26  C   UNL     1      33.776 -22.955 -17.791  0.00  0.00    +0.208 C 
BRANCH  26  27
ATOM     27  C   UNL     1      34.327 -22.294 -19.053  0.00  0.00    +0.044 C 
ATOM     28  C   UNL     1      33.397 -21.168 -19.524  0.00  0.00    +0.004 C 
ATOM     29  C   UNL     1      35.747 -21.765 -18.812  0.00  0.00    +0.004 C 
ATOM     30  C   UNL     1      33.954 -20.455 -20.755  0.00  0.00    +0.000 C 
ATOM     31  C   UNL     1      36.300 -21.052 -20.044  0.00  0.00    +0.000 C 
ATOM     32  C   UNL     1      35.369 -19.939 -20.514  0.00  0.00    +0.000 C 
ENDBRANCH  26  27
ENDBRANCH  25  26
ENDBRANCH   4  25
TORSDOF 6
ENDMDL
MODEL 2
REMARK VINA RESULT:     -11.3      1.331      1.708
REMARK  Name = 5289411
REMARK  6 active torsions:
REMARK  status: ('A' for Active; 'I' for Inactive)
REMARK    1  A    between atoms: N_3  and  C_9
REMARK    2  A    between atoms: C_4  and  O_25
REMARK    3  A    between atoms: C_5  and  N_24
REMARK    4  A    between atoms: C_12  and  C_17
REMARK    5  A    between atoms: O_25  and  C_26
REMARK    6  A    between atoms: C_26  and  C_27
REMARK                            x       y       z     vdW  Elec       q    Type
REMARK                         _______ _______ _______ _____ _____    ______ ____
ROOT
ATOM      1  N   UNL     1      34.358 -23.592 -15.143  0.00  0.00    -0.293 NA
ATOM      2  N   UNL     1      35.109 -24.278 -12.959  0.00  0.00    -0.316 NA
ATOM      3  N   UNL     1      32.829 -24.300 -13.511  0.00  0.00    -0.238 N 
ATOM      4  C   UNL     1      35.645 -23.357 -15.470  0.00  0.00    +0.292 C 
ATOM      5  C   UNL     1      36.704 -23.555 -14.610  0.00  0.00    +0.261 C 
ATOM      6  C   UNL     1      36.374 -24.022 -13.354  0.00  0.00    +0.196 C 
ATOM      7  C   UNL     1      34.164 -24.044 -13.889  0.00  0.00    +0.207 C 
ATOM      8  H   UNL     1      32.735 -24.629 -12.587  0.00  0.00    +0.166 HD
ATOM      9  N   UNL     1      37.409 -24.251 -12.412  0.00  0.00    -0.334 N 
ATOM     10  H   UNL     1      37.189 -24.584 -11.511  0.00  0.00    +0.144 HD
ATOM     11  H   UNL     1      38.345 -24.078 -12.658  0.00  0.00    +0.144 HD
ENDROOT
BRANCH   3  12
ATOM     12  C   UNL     1      31.606 -24.180 -14.195  0.00  0.00    +0.058 C 
ATOM     13  C   UNL     1      30.605 -25.138 -14.016  0.00  0.00    +0.015 C 
ATOM     14  C   UNL     1      31.387 -23.103 -15.056  0.00  0.00    +0.015 C 
ATOM     15  C   UNL     1      29.178 -23.942 -15.555  0.00  0.00    +0.053 C 
ATOM     16  C   UNL     1      29.393 -25.019 -14.696  0.00  0.00    +0.006 C 
ATOM     17  C   UNL     1      30.175 -22.983 -15.736  0.00  0.00    +0.006 C 
BRANCH  15  20
ATOM     18  O   UNL     1      27.554 -24.669 -17.099  0.00  0.00    -0.270 OA
ATOM     19  N   UNL     1      27.106 -22.727 -15.965  0.00  0.00    -0.325 N 
ATOM     20  C   UNL     1      27.914 -23.819 -16.264  0.00  0.00    +0.243 C 
ATOM     21  H   UNL     1      26.244 -22.611 -16.425  0.00  0.00    +0.145 HD
ATOM     22  H   UNL     1      27.398 -22.069 -15.293  0.00  0.00    +0.145 HD
ENDBRANCH  15  20
ENDBRANCH   3  12
BRANCH   5  24
ATOM     23  O   UNL     1      38.753 -24.279 -14.876  0.00  0.00    -0.099 OA
ATOM     24  N   UNL     1      38.000 -23.301 -14.991  0.00  0.00    -0.030 NA
ENDBRANCH   5  24
BRANCH   4  25
ATOM     25  O   UNL     1      35.862 -22.895 -16.744  0.00  0.00    -0.453 OA
BRANCH  25  26
ATOM     26  C   UNL     1      34.812 -23.065 -17.678  0.00  0.00    +0.208 C 
BRANCH  26  27
ATOM     27  C   UNL     1      34.683 -21.786 -18.502  0.00  0.00    +0.044 C 
ATOM     28  C   UNL     1      35.865 -21.645 -19.471  0.00  0.00    +0.004 C 
ATOM     29  C   UNL     1      33.350 -21.761 -19.261  0.00  0.00    +0.004 C 
ATOM     30  C   UNL     1      35.733 -20.400 -20.345  0.00  0.00    +0.000 C 
ATOM     31  C   UNL     1      33.221 -20.516 -20.135  0.00  0.00    +0.000 C 
ATOM     32  C   UNL     1      34.402 -20.375 -21.090  0.00  0.00    +0.000 C 
ENDBRANCH  26  27
ENDBRANCH  25  26
ENDBRANCH   4  25
TORSDOF 6
ENDMDL
MODEL 3
REMARK VINA RESULT:     -11.3      2.976      6.291
REMARK  Name = 5289411
REMARK  6 active torsions:
REMARK  status: ('A' for Active; 'I' for Inactive)
REMARK    1  A    between atoms: N_3  and  C_9
REMARK    2  A    between atoms: C_4  and  O_25
REMARK    3  A    between atoms: C_5  and  N_24
REMARK    4  A    between atoms: C_12  and  C_17
REMARK    5  A    between atoms: O_25  and  C_26
REMARK    6  A    between atoms: C_26  and  C_27
REMARK                            x       y       z     vdW  Elec       q    Type
REMARK                         _______ _______ _______ _____ _____    ______ ____
ROOT
ATOM      1  N   UNL     1      35.157 -23.983 -13.783  0.00  0.00    -0.293 NA
ATOM      2  N   UNL     1      37.468 -23.949 -13.098  0.00  0.00    -0.316 NA
ATOM      3  N   UNL     1      36.822 -23.139 -15.204  0.00  0.00    -0.238 N 
ATOM      4  C   UNL     1      34.853 -24.538 -12.592  0.00  0.00    +0.292 C 
ATOM      5  C   UNL     1      35.784 -24.824 -11.617  0.00  0.00    +0.261 C 
ATOM      6  C   UNL     1      37.091 -24.505 -11.928  0.00  0.00    +0.196 C 
ATOM      7  C   UNL     1      36.465 -23.719 -13.968  0.00  0.00    +0.207 C 
ATOM      8  H   UNL     1      37.788 -22.963 -15.295  0.00  0.00    +0.166 HD
ATOM      9  N   UNL     1      38.108 -24.768 -10.976  0.00  0.00    -0.334 N 
ATOM     10  H   UNL     1      39.045 -24.547 -11.182  0.00  0.00    +0.144 HD
ATOM     11  H   UNL     1      37.878 -25.173 -10.109  0.00  0.00    +0.144 HD
ENDROOT
BRANCH   3  12
ATOM     12  C   UNL     1      36.071 -22.761 -16.331  0.00  0.00    +0.058 C 
ATOM     13  C   UNL     1      36.666 -22.018 -17.354  0.00  0.00    +0.015 C 
ATOM     14  C   UNL     1      34.726 -23.124 -16.431  0.00  0.00    +0.015 C 
ATOM     15  C   UNL     1      34.577 -22.007 -18.568  0.00  0.00    +0.053 C 
ATOM     16  C   UNL     1      35.919 -21.642 -18.471  0.00  0.00    +0.006 C 
ATOM     17  C   UNL     1      33.980 -22.748 -17.548  0.00  0.00    +0.006 C 
BRANCH  15  20
ATOM     18  O   UNL     1      32.622 -21.986 -19.881  0.00  0.00    -0.270 OA
ATOM     19  N   UNL     1      34.410 -20.787 -20.671  0.00  0.00    -0.325 N 
ATOM     20  C   UNL     1      33.799 -21.613 -19.732  0.00  0.00    +0.243 C 
ATOM     21  H   UNL     1      33.914 -20.501 -21.471  0.00  0.00    +0.145 HD
ATOM     22  H   UNL     1      35.338 -20.490 -20.533  0.00  0.00    +0.145 HD
ENDBRANCH  15  20
ENDBRANCH   3  12
BRANCH   5  24
ATOM     23  O   UNL     1      35.584 -24.638  -9.445  0.00  0.00    -0.099 OA
ATOM     24  N   UNL     1      35.424 -25.390 -10.418  0.00  0.00    -0.030 NA
ENDBRANCH   5  24
BRANCH   4  25
ATOM     25  O   UNL     1      33.524 -24.815 -12.386  0.00  0.00    -0.453 OA
BRANCH  25  26
ATOM     26  C   UNL     1      32.596 -23.795 -12.705  0.00  0.00    +0.208 C 
BRANCH  26  27
ATOM     27  C   UNL     1      31.698 -24.291 -13.836  0.00  0.00    +0.044 C 
ATOM     28  C   UNL     1      30.529 -25.112 -13.277  0.00  0.00    +0.004 C 
ATOM     29  C   UNL     1      31.187 -23.116 -14.678  0.00  0.00    +0.004 C 
ATOM     30  C   UNL     1      29.585 -25.576 -14.385  0.00  0.00    +0.000 C 
ATOM     31  C   UNL     1      30.243 -23.582 -15.784  0.00  0.00    +0.000 C 
ATOM     32  C   UNL     1      29.086 -24.405 -15.225  0.00  0.00    +0.000 C 
ENDBRANCH  26  27
ENDBRANCH  25  26
ENDBRANCH   4  25
TORSDOF 6
ENDMDL
MODEL 4
REMARK VINA RESULT:     -10.9      2.962      6.231
REMARK  Name = 5289411
REMARK  6 active torsions:
REMARK  status: ('A' for Active; 'I' for Inactive)
REMARK    1  A    between atoms: N_3  and  C_9
REMARK    2  A    between atoms: C_4  and  O_25
REMARK    3  A    between atoms: C_5  and  N_24
REMARK    4  A    between atoms: C_12  and  C_17
REMARK    5  A    between atoms: O_25  and  C_26
REMARK    6  A    between atoms: C_26  and  C_27
REMARK                            x       y       z     vdW  Elec       q    Type
REMARK                         _______ _______ _______ _____ _____    ______ ____
ROOT
ATOM      1  N   UNL     1      34.958 -23.816 -14.271  0.00  0.00    -0.293 NA
ATOM      2  N   UNL     1      37.258 -24.341 -13.782  0.00  0.00    -0.316 NA
ATOM      3  N   UNL     1      36.655 -23.357 -15.824  0.00  0.00    -0.238 N 
ATOM      4  C   UNL     1      34.628 -24.308 -13.059  0.00  0.00    +0.292 C 
ATOM      5  C   UNL     1      35.541 -24.827 -12.166  0.00  0.00    +0.261 C 
ATOM      6  C   UNL     1      36.857 -24.818 -12.585  0.00  0.00    +0.196 C 
ATOM      7  C   UNL     1      36.272 -23.863 -14.564  0.00  0.00    +0.207 C 
ATOM      8  H   UNL     1      37.624 -23.412 -15.995  0.00  0.00    +0.166 HD
ATOM      9  N   UNL     1      37.856 -25.334 -11.722  0.00  0.00    -0.334 N 
ATOM     10  H   UNL     1      38.799 -25.335 -12.006  0.00  0.00    +0.144 HD
ATOM     11  H   UNL     1      37.608 -25.691 -10.839  0.00  0.00    +0.144 HD
ENDROOT
BRANCH   3  12
ATOM     12  C   UNL     1      35.925 -22.788 -16.884  0.00  0.00    +0.058 C 
ATOM     13  C   UNL     1      36.562 -21.953 -17.805  0.00  0.00    +0.015 C 
ATOM     14  C   UNL     1      34.561 -23.055 -17.018  0.00  0.00    +0.015 C 
ATOM     15  C   UNL     1      34.475 -21.657 -18.986  0.00  0.00    +0.053 C 
ATOM     16  C   UNL     1      35.837 -21.388 -18.855  0.00  0.00    +0.006 C 
ATOM     17  C   UNL     1      33.837 -22.491 -18.068  0.00  0.00    +0.006 C 
BRANCH  15  20
ATOM     18  O   UNL     1      32.490 -21.217 -20.174  0.00  0.00    -0.270 OA
ATOM     19  N   UNL     1      34.419 -20.307 -21.015  0.00  0.00    -0.325 N 
ATOM     20  C   UNL     1      33.721 -21.066 -20.080  0.00  0.00    +0.243 C 
ATOM     21  H   UNL     1      33.941 -19.892 -21.768  0.00  0.00    +0.145 HD
ATOM     22  H   UNL     1      35.391 -20.185 -20.920  0.00  0.00    +0.145 HD
ENDBRANCH  15  20
ENDBRANCH   3  12
BRANCH   5  24
ATOM     23  O   UNL     1      35.396 -24.549 -10.000  0.00  0.00    -0.099 OA
ATOM     24  N   UNL     1      35.155 -25.318 -10.942  0.00  0.00    -0.030 NA
ENDBRANCH   5  24
BRANCH   4  25
ATOM     25  O   UNL     1      33.292 -24.269 -12.744  0.00  0.00    -0.453 OA
BRANCH  25  26
ATOM     26  C   UNL     1      32.467 -25.269 -13.311  0.00  0.00    +0.208 C 
BRANCH  26  27
ATOM     27  C   UNL     1      31.172 -24.617 -13.788  0.00  0.00    +0.044 C 
ATOM     28  C   UNL     1      31.446 -23.663 -14.958  0.00  0.00    +0.004 C 
ATOM     29  C   UNL     1      30.140 -25.682 -14.181  0.00  0.00    +0.004 C 
ATOM     30  C   UNL     1      30.157 -23.037 -15.488  0.00  0.00    +0.000 C 
ATOM     31  C   UNL     1      28.854 -25.054 -14.712  0.00  0.00    +0.000 C 
ATOM     32  C   UNL     1      29.132 -24.100 -15.870  0.00  0.00    +0.000 C 
ENDBRANCH  26  27
ENDBRANCH  25  26
ENDBRANCH   4  25
TORSDOF 6
ENDMDL
MODEL 5
REMARK VINA RESULT:     -10.9      2.319      6.916
REMARK  Name = 5289411
REMARK  6 active torsions:
REMARK  status: ('A' for Active; 'I' for Inactive)
REMARK    1  A    between atoms: N_3  and  C_9
REMARK    2  A    between atoms: C_4  and  O_25
REMARK    3  A    between atoms: C_5  and  N_24
REMARK    4  A    between atoms: C_12  and  C_17
REMARK    5  A    between atoms: O_25  and  C_26
REMARK    6  A    between atoms: C_26  and  C_27
REMARK                            x       y       z     vdW  Elec       q    Type
REMARK                         _______ _______ _______ _____ _____    ______ ____
ROOT
ATOM      1  N   UNL     1      33.944 -24.003 -15.414  0.00  0.00    -0.293 NA
ATOM      2  N   UNL     1      32.367 -24.236 -13.606  0.00  0.00    -0.316 NA
ATOM      3  N   UNL     1      34.626 -24.800 -13.316  0.00  0.00    -0.238 N 
ATOM      4  C   UNL     1      32.934 -23.552 -16.185  0.00  0.00    +0.292 C 
ATOM      5  C   UNL     1      31.634 -23.417 -15.748  0.00  0.00    +0.261 C 
ATOM      6  C   UNL     1      31.406 -23.778 -14.435  0.00  0.00    +0.196 C 
ATOM      7  C   UNL     1      33.595 -24.323 -14.153  0.00  0.00    +0.207 C 
ATOM      8  H   UNL     1      34.325 -25.022 -12.404  0.00  0.00    +0.166 HD
ATOM      9  N   UNL     1      30.093 -23.667 -13.910  0.00  0.00    -0.334 N 
ATOM     10  H   UNL     1      29.914 -23.920 -12.975  0.00  0.00    +0.144 HD
ATOM     11  H   UNL     1      29.362 -23.336 -14.479  0.00  0.00    +0.144 HD
ENDROOT
BRANCH   3  12
ATOM     12  C   UNL     1      35.999 -25.021 -13.527  0.00  0.00    +0.058 C 
ATOM     13  C   UNL     1      36.422 -25.982 -14.448  0.00  0.00    +0.015 C 
ATOM     14  C   UNL     1      36.946 -24.281 -12.815  0.00  0.00    +0.015 C 
ATOM     15  C   UNL     1      38.726 -25.461 -13.943  0.00  0.00    +0.053 C 
ATOM     16  C   UNL     1      37.784 -26.202 -14.656  0.00  0.00    +0.006 C 
ATOM     17  C   UNL     1      38.308 -24.500 -13.022  0.00  0.00    +0.006 C 
BRANCH  15  20
ATOM     18  O   UNL     1      40.906 -24.771 -14.508  0.00  0.00    -0.270 OA
ATOM     19  N   UNL     1      40.634 -26.977 -13.945  0.00  0.00    -0.325 N 
ATOM     20  C   UNL     1      40.146 -25.692 -14.159  0.00  0.00    +0.243 C 
ATOM     21  H   UNL     1      41.589 -27.170 -14.081  0.00  0.00    +0.145 HD
ATOM     22  H   UNL     1      40.023 -27.693 -13.656  0.00  0.00    +0.145 HD
ENDBRANCH  15  20
ENDBRANCH   3  12
BRANCH   5  24
ATOM     23  O   UNL     1      29.670 -23.720 -16.666  0.00  0.00    -0.099 OA
ATOM     24  N   UNL     1      30.639 -22.952 -16.573  0.00  0.00    -0.030 NA
ENDBRANCH   5  24
BRANCH   4  25
ATOM     25  O   UNL     1      33.271 -23.222 -17.475  0.00  0.00    -0.453 OA
BRANCH  25  26
ATOM     26  C   UNL     1      34.613 -22.841 -17.712  0.00  0.00    +0.208 C 
BRANCH  26  27
ATOM     27  C   UNL     1      34.688 -22.146 -19.070  0.00  0.00    +0.044 C 
ATOM     28  C   UNL     1      33.434 -21.294 -19.311  0.00  0.00    +0.004 C 
ATOM     29  C   UNL     1      35.957 -21.291 -19.173  0.00  0.00    +0.004 C 
ATOM     30  C   UNL     1      33.508 -20.546 -20.641  0.00  0.00    +0.000 C 
ATOM     31  C   UNL     1      36.028 -20.543 -20.502  0.00  0.00    +0.000 C 
ATOM     32  C   UNL     1      34.776 -19.704 -20.742  0.00  0.00    +0.000 C 
ENDBRANCH  26  27
ENDBRANCH  25  26
ENDBRANCH   4  25
TORSDOF 6
ENDMDL
MODEL 6
REMARK VINA RESULT:     -10.8      2.879      7.860
REMARK  Name = 5289411
REMARK  6 active torsions:
REMARK  status: ('A' for Active; 'I' for Inactive)
REMARK    1  A    between atoms: N_3  and  C_9
REMARK    2  A    between atoms: C_4  and  O_25
REMARK    3  A    between atoms: C_5  and  N_24
REMARK    4  A    between atoms: C_12  and  C_17
REMARK    5  A    between atoms: O_25  and  C_26
REMARK    6  A    between atoms: C_26  and  C_27
REMARK                            x       y       z     vdW  Elec       q    Type
REMARK                         _______ _______ _______ _____ _____    ______ ____
ROOT
ATOM      1  N   UNL     1      34.697 -22.918 -17.174  0.00  0.00    -0.293 NA
ATOM      2  N   UNL     1      36.062 -21.512 -18.577  0.00  0.00    -0.316 NA
ATOM      3  N   UNL     1      36.934 -22.473 -16.622  0.00  0.00    -0.238 N 
ATOM      4  C   UNL     1      33.678 -22.722 -18.036  0.00  0.00    +0.292 C 
ATOM      5  C   UNL     1      33.770 -21.946 -19.172  0.00  0.00    +0.261 C 
ATOM      6  C   UNL     1      34.999 -21.359 -19.395  0.00  0.00    +0.196 C 
ATOM      7  C   UNL     1      35.844 -22.292 -17.501  0.00  0.00    +0.207 C 
ATOM      8  H   UNL     1      37.750 -21.997 -16.901  0.00  0.00    +0.166 HD
ATOM      9  N   UNL     1      35.174 -20.547 -20.544  0.00  0.00    -0.334 N 
ATOM     10  H   UNL     1      36.045 -20.121 -20.718  0.00  0.00    +0.144 HD
ATOM     11  H   UNL     1      34.426 -20.409 -21.168  0.00  0.00    +0.144 HD
ENDROOT
BRANCH   3  12
ATOM     12  C   UNL     1      37.083 -23.200 -15.428  0.00  0.00    +0.058 C 
ATOM     13  C   UNL     1      38.186 -24.038 -15.249  0.00  0.00    +0.015 C 
ATOM     14  C   UNL     1      36.126 -23.090 -14.416  0.00  0.00    +0.015 C 
ATOM     15  C   UNL     1      37.376 -24.648 -13.057  0.00  0.00    +0.053 C 
ATOM     16  C   UNL     1      38.333 -24.760 -14.065  0.00  0.00    +0.006 C 
ATOM     17  C   UNL     1      36.272 -23.812 -13.231  0.00  0.00    +0.006 C 
BRANCH  15  20
ATOM     18  O   UNL     1      37.647 -24.831 -10.724  0.00  0.00    -0.270 OA
ATOM     19  N   UNL     1      37.519 -26.791 -11.907  0.00  0.00    -0.325 N 
ATOM     20  C   UNL     1      37.529 -25.402 -11.823  0.00  0.00    +0.243 C 
ATOM     21  H   UNL     1      37.620 -27.334 -11.092  0.00  0.00    +0.145 HD
ATOM     22  H   UNL     1      37.412 -27.230 -12.781  0.00  0.00    +0.145 HD
ENDBRANCH  15  20
ENDBRANCH   3  12
BRANCH   5  24
ATOM     23  O   UNL     1      32.249 -20.623 -20.023  0.00  0.00    -0.099 OA
ATOM     24  N   UNL     1      32.702 -21.777 -20.019  0.00  0.00    -0.030 NA
ENDBRANCH   5  24
BRANCH   4  25
ATOM     25  O   UNL     1      32.500 -23.352 -17.718  0.00  0.00    -0.453 OA
BRANCH  25  26
ATOM     26  C   UNL     1      31.798 -22.873 -16.586  0.00  0.00    +0.208 C 
BRANCH  26  27
ATOM     27  C   UNL     1      31.564 -24.041 -15.631  0.00  0.00    +0.044 C 
ATOM     28  C   UNL     1      32.484 -23.932 -14.407  0.00  0.00    +0.004 C 
ATOM     29  C   UNL     1      30.092 -24.104 -15.203  0.00  0.00    +0.004 C 
ATOM     30  C   UNL     1      32.230 -25.062 -13.410  0.00  0.00    +0.000 C 
ATOM     31  C   UNL     1      29.842 -25.232 -14.205  0.00  0.00    +0.000 C 
ATOM     32  C   UNL     1      30.764 -25.126 -12.995  0.00  0.00    +0.000 C 
ENDBRANCH  26  27
ENDBRANCH  25  26
ENDBRANCH   4  25
TORSDOF 6
ENDMDL
MODEL 7
REMARK VINA RESULT:     -10.6      2.887      7.269
REMARK  Name = 5289411
REMARK  6 active torsions:
REMARK  status: ('A' for Active; 'I' for Inactive)
REMARK    1  A    between atoms: N_3  and  C_9
REMARK    2  A    between atoms: C_4  and  O_25
REMARK    3  A    between atoms: C_5  and  N_24
REMARK    4  A    between atoms: C_12  and  C_17
REMARK    5  A    between atoms: O_25  and  C_26
REMARK    6  A    between atoms: C_26  and  C_27
REMARK                            x       y       z     vdW  Elec       q    Type
REMARK                         _______ _______ _______ _____ _____    ______ ____
ROOT
ATOM      1  N   UNL     1      33.731 -22.896 -16.323  0.00  0.00    -0.293 NA
ATOM      2  N   UNL     1      31.525 -23.787 -16.707  0.00  0.00    -0.316 NA
ATOM      3  N   UNL     1      32.618 -22.525 -18.355  0.00  0.00    -0.238 N 
ATOM      4  C   UNL     1      33.702 -23.457 -15.097  0.00  0.00    +0.292 C 
ATOM      5  C   UNL     1      32.638 -24.185 -14.610  0.00  0.00    +0.261 C 
ATOM      6  C   UNL     1      31.565 -24.320 -15.467  0.00  0.00    +0.196 C 
ATOM      7  C   UNL     1      32.625 -23.097 -17.065  0.00  0.00    +0.207 C 
ATOM      8  H   UNL     1      31.790 -22.697 -18.860  0.00  0.00    +0.166 HD
ATOM      9  N   UNL     1      30.432 -25.056 -15.039  0.00  0.00    -0.334 N 
ATOM     10  H   UNL     1      29.658 -25.161 -15.639  0.00  0.00    +0.144 HD
ATOM     11  H   UNL     1      30.418 -25.462 -14.143  0.00  0.00    +0.144 HD
ENDROOT
BRANCH   3  12
ATOM     12  C   UNL     1      33.562 -21.757 -19.061  0.00  0.00    +0.058 C 
ATOM     13  C   UNL     1      34.928 -21.994 -18.890  0.00  0.00    +0.015 C 
ATOM     14  C   UNL     1      33.137 -20.753 -19.934  0.00  0.00    +0.015 C 
ATOM     15  C   UNL     1      35.435 -20.229 -20.460  0.00  0.00    +0.053 C 
ATOM     16  C   UNL     1      35.863 -21.231 -19.590  0.00  0.00    +0.006 C 
ATOM     17  C   UNL     1      34.072 -19.990 -20.633  0.00  0.00    +0.006 C 
BRANCH  15  20
ATOM     18  O   UNL     1      37.539 -19.203 -20.717  0.00  0.00    -0.270 OA
ATOM     19  N   UNL     1      36.050 -18.951 -22.442  0.00  0.00    -0.325 N 
ATOM     20  C   UNL     1      36.412 -19.434 -21.188  0.00  0.00    +0.243 C 
ATOM     21  H   UNL     1      36.685 -18.409 -22.963  0.00  0.00    +0.145 HD
ATOM     22  H   UNL     1      35.159 -19.153 -22.808  0.00  0.00    +0.145 HD
ENDBRANCH  15  20
ENDBRANCH   3  12
BRANCH   5  24
ATOM     23  O   UNL     1      31.745 -24.330 -12.617  0.00  0.00    -0.099 OA
ATOM     24  N   UNL     1      32.657 -24.737 -13.352  0.00  0.00    -0.030 NA
ENDBRANCH   5  24
BRANCH   4  25
ATOM     25  O   UNL     1      34.822 -23.261 -14.326  0.00  0.00    -0.453 OA
BRANCH  25  26
ATOM     26  C   UNL     1      36.074 -23.317 -14.984  0.00  0.00    +0.208 C 
BRANCH  26  27
ATOM     27  C   UNL     1      36.986 -24.266 -14.209  0.00  0.00    +0.044 C 
ATOM     28  C   UNL     1      36.999 -23.907 -12.717  0.00  0.00    +0.004 C 
ATOM     29  C   UNL     1      36.554 -25.723 -14.416  0.00  0.00    +0.004 C 
ATOM     30  C   UNL     1      37.864 -24.875 -11.912  0.00  0.00    +0.000 C 
ATOM     31  C   UNL     1      37.419 -26.689 -13.608  0.00  0.00    +0.000 C 
ATOM     32  C   UNL     1      37.436 -26.323 -12.128  0.00  0.00    +0.000 C 
ENDBRANCH  26  27
ENDBRANCH  25  26
ENDBRANCH   4  25
TORSDOF 6
ENDMDL
MODEL 8
REMARK VINA RESULT:     -10.0      3.073      7.278
REMARK  Name = 5289411
REMARK  6 active torsions:
REMARK  status: ('A' for Active; 'I' for Inactive)
REMARK    1  A    between atoms: N_3  and  C_9
REMARK    2  A    between atoms: C_4  and  O_25
REMARK    3  A    between atoms: C_5  and  N_24
REMARK    4  A    between atoms: C_12  and  C_17
REMARK    5  A    between atoms: O_25  and  C_26
REMARK    6  A    between atoms: C_26  and  C_27
REMARK                            x       y       z     vdW  Elec       q    Type
REMARK                         _______ _______ _______ _____ _____    ______ ____
ROOT
ATOM      1  N   UNL     1      34.985 -22.527 -17.590  0.00  0.00    -0.293 NA
ATOM      2  N   UNL     1      37.045 -22.516 -16.340  0.00  0.00    -0.316 NA
ATOM      3  N   UNL     1      36.810 -21.228 -18.287  0.00  0.00    -0.238 N 
ATOM      4  C   UNL     1      34.486 -23.394 -16.686  0.00  0.00    +0.292 C 
ATOM      5  C   UNL     1      35.193 -23.863 -15.599  0.00  0.00    +0.261 C 
ATOM      6  C   UNL     1      36.482 -23.385 -15.475  0.00  0.00    +0.196 C 
ATOM      7  C   UNL     1      36.253 -22.135 -17.361  0.00  0.00    +0.207 C 
ATOM      8  H   UNL     1      37.738 -20.969 -18.080  0.00  0.00    +0.166 HD
ATOM      9  N   UNL     1      37.273 -23.819 -14.382  0.00  0.00    -0.334 N 
ATOM     10  H   UNL     1      38.195 -23.488 -14.279  0.00  0.00    +0.144 HD
ATOM     11  H   UNL     1      36.902 -24.452 -13.726  0.00  0.00    +0.144 HD
ENDROOT
BRANCH   3  12
ATOM     12  C   UNL     1      36.300 -20.619 -19.448  0.00  0.00    +0.058 C 
ATOM     13  C   UNL     1      37.067 -19.681 -20.142  0.00  0.00    +0.015 C 
ATOM     14  C   UNL     1      35.024 -20.949 -19.910  0.00  0.00    +0.015 C 
ATOM     15  C   UNL     1      35.285 -19.408 -21.751  0.00  0.00    +0.053 C 
ATOM     16  C   UNL     1      36.560 -19.076 -21.293  0.00  0.00    +0.006 C 
ATOM     17  C   UNL     1      34.517 -20.345 -21.061  0.00  0.00    +0.006 C 
BRANCH  15  20
ATOM     18  O   UNL     1      33.871 -19.320 -23.633  0.00  0.00    -0.270 OA
ATOM     19  N   UNL     1      35.264 -17.528 -23.303  0.00  0.00    -0.325 N 
ATOM     20  C   UNL     1      34.757 -18.776 -22.950  0.00  0.00    +0.243 C 
ATOM     21  H   UNL     1      34.930 -17.071 -24.107  0.00  0.00    +0.145 HD
ATOM     22  H   UNL     1      35.956 -17.104 -22.746  0.00  0.00    +0.145 HD
ENDBRANCH  15  20
ENDBRANCH   3  12
BRANCH   5  24
ATOM     23  O   UNL     1      34.382 -24.243 -13.602  0.00  0.00    -0.099 OA
ATOM     24  N   UNL     1      34.639 -24.747 -14.705  0.00  0.00    -0.030 NA
ENDBRANCH   5  24
BRANCH   4  25
ATOM     25  O   UNL     1      33.195 -23.806 -16.905  0.00  0.00    -0.453 OA
BRANCH  25  26
ATOM     26  C   UNL     1      32.186 -22.814 -16.858  0.00  0.00    +0.208 C 
BRANCH  26  27
ATOM     27  C   UNL     1      31.157 -23.218 -15.804  0.00  0.00    +0.044 C 
ATOM     28  C   UNL     1      29.732 -22.968 -16.316  0.00  0.00    +0.004 C 
ATOM     29  C   UNL     1      31.342 -24.687 -15.401  0.00  0.00    +0.004 C 
ATOM     30  C   UNL     1      28.682 -23.414 -15.300  0.00  0.00    +0.000 C 
ATOM     31  C   UNL     1      30.290 -25.131 -14.387  0.00  0.00    +0.000 C 
ATOM     32  C   UNL     1      28.875 -24.872 -14.896  0.00  0.00    +0.000 C 
ENDBRANCH  26  27
ENDBRANCH  25  26
ENDBRANCH   4  25
TORSDOF 6
ENDMDL
MODEL 9
REMARK VINA RESULT:      -9.9      8.164     11.733
REMARK  Name = 5289411
REMARK  6 active torsions:
REMARK  status: ('A' for Active; 'I' for Inactive)
REMARK    1  A    between atoms: N_3  and  C_9
REMARK    2  A    between atoms: C_4  and  O_25
REMARK    3  A    between atoms: C_5  and  N_24
REMARK    4  A    between atoms: C_12  and  C_17
REMARK    5  A    between atoms: O_25  and  C_26
REMARK    6  A    between atoms: C_26  and  C_27
REMARK                            x       y       z     vdW  Elec       q    Type
REMARK                         _______ _______ _______ _____ _____    ______ ____
ROOT
ATOM      1  N   UNL     1      34.333 -15.826 -22.535  0.00  0.00    -0.293 NA
ATOM      2  N   UNL     1      34.307 -16.006 -24.938  0.00  0.00    -0.316 NA
ATOM      3  N   UNL     1      34.898 -17.840 -23.598  0.00  0.00    -0.238 N 
ATOM      4  C   UNL     1      33.947 -14.540 -22.667  0.00  0.00    +0.292 C 
ATOM      5  C   UNL     1      33.724 -13.925 -23.880  0.00  0.00    +0.261 C 
ATOM      6  C   UNL     1      33.921 -14.714 -24.995  0.00  0.00    +0.196 C 
ATOM      7  C   UNL     1      34.493 -16.491 -23.696  0.00  0.00    +0.207 C 
ATOM      8  H   UNL     1      35.002 -18.286 -24.471  0.00  0.00    +0.166 HD
ATOM      9  N   UNL     1      33.712 -14.153 -26.280  0.00  0.00    -0.334 N 
ATOM     10  H   UNL     1      33.849 -14.704 -27.085  0.00  0.00    +0.144 HD
ATOM     11  H   UNL     1      33.430 -13.215 -26.367  0.00  0.00    +0.144 HD
ENDROOT
BRANCH   3  12
ATOM     12  C   UNL     1      35.181 -18.672 -22.501  0.00  0.00    +0.058 C 
ATOM     13  C   UNL     1      36.435 -18.622 -21.888  0.00  0.00    +0.015 C 
ATOM     14  C   UNL     1      34.209 -19.553 -22.020  0.00  0.00    +0.015 C 
ATOM     15  C   UNL     1      35.744 -20.329 -20.323  0.00  0.00    +0.053 C 
ATOM     16  C   UNL     1      36.715 -19.450 -20.800  0.00  0.00    +0.006 C 
ATOM     17  C   UNL     1      34.490 -20.381 -20.933  0.00  0.00    +0.006 C 
BRANCH  15  20
ATOM     18  O   UNL     1      36.876 -20.868 -18.330  0.00  0.00    -0.270 OA
ATOM     19  N   UNL     1      35.335 -22.389 -19.087  0.00  0.00    -0.325 N 
ATOM     20  C   UNL     1      36.038 -21.192 -19.190  0.00  0.00    +0.243 C 
ATOM     21  H   UNL     1      35.508 -22.997 -18.333  0.00  0.00    +0.145 HD
ATOM     22  H   UNL     1      34.666 -22.626 -19.768  0.00  0.00    +0.145 HD
ENDBRANCH  15  20
ENDBRANCH   3  12
BRANCH   5  24
ATOM     23  O   UNL     1      34.277 -11.809 -23.979  0.00  0.00    -0.099 OA
ATOM     24  N   UNL     1      33.331 -12.611 -23.961  0.00  0.00    -0.030 NA
ENDBRANCH   5  24
BRANCH   4  25
ATOM     25  O   UNL     1      33.780 -13.846 -21.494  0.00  0.00    -0.453 OA
BRANCH  25  26
ATOM     26  C   UNL     1      32.704 -14.236 -20.662  0.00  0.00    +0.208 C 
BRANCH  26  27
ATOM     27  C   UNL     1      31.844 -13.008 -20.373  0.00  0.00    +0.044 C 
ATOM     28  C   UNL     1      32.569 -12.052 -19.417  0.00  0.00    +0.004 C 
ATOM     29  C   UNL     1      31.464 -12.293 -21.676  0.00  0.00    +0.004 C 
ATOM     30  C   UNL     1      31.750 -10.789 -19.154  0.00  0.00    +0.000 C 
ATOM     31  C   UNL     1      30.647 -11.031 -21.411  0.00  0.00    +0.000 C 
ATOM     32  C   UNL     1      31.368 -10.087 -20.453  0.00  0.00    +0.000 C 
ENDBRANCH  26  27
ENDBRANCH  25  26
ENDBRANCH   4  25
TORSDOF 6
ENDMDL
