MODEL 1
REMARK VINA RESULT:     -11.7      0.000      0.000
REMARK  Name = 70798655
REMARK  2 active torsions:
REMARK  status: ('A' for Active; 'I' for Inactive)
REMARK    1  A    between atoms: C_3  and  C_29
REMARK    2  A    between atoms: C_5  and  C_13
REMARK                            x       y       z     vdW  Elec       q    Type
REMARK                         _______ _______ _______ _____ _____    ______ ____
ROOT
ATOM      1  N   UNL     1      33.951 -23.865 -14.914  0.00  0.00    -0.245 N 
ATOM      2  N   UNL     1      32.367 -24.864 -13.692  0.00  0.00    -0.227 NA
ATOM      3  C   UNL     1      34.561 -24.294 -13.763  0.00  0.00    +0.130 C 
ATOM      4  C   UNL     1      32.615 -24.237 -14.823  0.00  0.00    +0.139 C 
ATOM      5  C   UNL     1      33.705 -22.856 -17.046  0.00  0.00    +0.012 C 
ATOM      6  C   UNL     1      34.495 -23.187 -16.002  0.00  0.00    +0.071 C 
ATOM      7  C   UNL     1      33.569 -24.902 -13.030  0.00  0.00    +0.120 C 
ATOM      8  C   UNL     1      31.775 -23.894 -15.919  0.00  0.00    +0.035 C 
ATOM      9  C   UNL     1      32.291 -23.238 -16.977  0.00  0.00    +0.004 C 
ENDROOT
BRANCH   5  13
ATOM     10  O   UNL     1      35.730 -20.128 -21.443  0.00  0.00    -0.414 OA
ATOM     11  N   UNL     1      33.472 -20.130 -21.238  0.00  0.00    -0.356 NA
ATOM     12  N   UNL     1      34.556 -19.007 -23.069  0.00  0.00    -0.302 N 
ATOM     13  C   UNL     1      34.291 -22.144 -18.199  0.00  0.00    -0.014 C 
ATOM     14  C   UNL     1      33.443 -21.503 -19.113  0.00  0.00    +0.089 C 
ATOM     15  C   UNL     1      35.683 -22.121 -18.359  0.00  0.00    -0.001 C 
ATOM     16  C   UNL     1      34.028 -20.834 -20.198  0.00  0.00    +0.152 C 
ATOM     17  C   UNL     1      35.410 -20.836 -20.320  0.00  0.00    +0.175 C 
ATOM     18  C   UNL     1      36.282 -21.458 -19.436  0.00  0.00    +0.040 C 
ATOM     19  C   UNL     1      34.519 -19.740 -21.933  0.00  0.00    +0.341 C 
ATOM     20  H   UNL     1      35.422 -18.787 -23.485  0.00  0.00    +0.148 HD
ATOM     21  H   UNL     1      33.719 -18.693 -23.479  0.00  0.00    +0.148 HD
ENDBRANCH   5  13
BRANCH   3  29
ATOM     22  O   UNL     1      38.667 -27.205 -14.222  0.00  0.00    -0.350 OA
ATOM     23  O   UNL     1      36.248 -23.170 -12.683  0.00  0.00    -0.268 OA
ATOM     24  N   UNL     1      36.900 -25.030 -13.938  0.00  0.00    -0.270 N 
ATOM     25  C   UNL     1      38.320 -24.886 -13.623  0.00  0.00    +0.126 C 
ATOM     26  C   UNL     1      36.593 -26.122 -14.870  0.00  0.00    +0.126 C 
ATOM     27  C   UNL     1      37.264 -27.410 -14.412  0.00  0.00    +0.164 C 
ATOM     28  C   UNL     1      38.909 -26.226 -13.208  0.00  0.00    +0.164 C 
ATOM     29  C   UNL     1      35.977 -24.121 -13.415  0.00  0.00    +0.265 C 
ENDBRANCH   3  29
TORSDOF 2
ENDMDL
MODEL 2
REMARK VINA RESULT:     -11.2      1.235      1.833
REMARK  Name = 70798655
REMARK  2 active torsions:
REMARK  status: ('A' for Active; 'I' for Inactive)
REMARK    1  A    between atoms: C_3  and  C_29
REMARK    2  A    between atoms: C_5  and  C_13
REMARK                            x       y       z     vdW  Elec       q    Type
REMARK                         _______ _______ _______ _____ _____    ______ ____
ROOT
ATOM      1  N   UNL     1      33.553 -24.213 -15.233  0.00  0.00    -0.245 N 
ATOM      2  N   UNL     1      31.882 -24.889 -13.909  0.00  0.00    -0.227 NA
ATOM      3  C   UNL     1      34.121 -24.990 -14.255  0.00  0.00    +0.130 C 
ATOM      4  C   UNL     1      32.187 -24.183 -14.978  0.00  0.00    +0.139 C 
ATOM      5  C   UNL     1      33.402 -22.833 -17.155  0.00  0.00    +0.012 C 
ATOM      6  C   UNL     1      34.158 -23.554 -16.299  0.00  0.00    +0.071 C 
ATOM      7  C   UNL     1      33.077 -25.391 -13.457  0.00  0.00    +0.120 C 
ATOM      8  C   UNL     1      31.381 -23.428 -15.875  0.00  0.00    +0.035 C 
ATOM      9  C   UNL     1      31.956 -22.786 -16.911  0.00  0.00    +0.004 C 
ENDROOT
BRANCH   5  13
ATOM     10  O   UNL     1      35.664 -20.175 -21.479  0.00  0.00    -0.414 OA
ATOM     11  N   UNL     1      33.408 -20.031 -21.303  0.00  0.00    -0.356 NA
ATOM     12  N   UNL     1      34.590 -18.952 -23.100  0.00  0.00    -0.302 N 
ATOM     13  C   UNL     1      34.049 -22.143 -18.288  0.00  0.00    -0.014 C 
ATOM     14  C   UNL     1      33.258 -21.432 -19.202  0.00  0.00    +0.089 C 
ATOM     15  C   UNL     1      35.442 -22.210 -18.430  0.00  0.00    -0.001 C 
ATOM     16  C   UNL     1      33.901 -20.787 -20.268  0.00  0.00    +0.152 C 
ATOM     17  C   UNL     1      35.282 -20.879 -20.372  0.00  0.00    +0.175 C 
ATOM     18  C   UNL     1      36.098 -21.571 -19.488  0.00  0.00    +0.040 C 
ATOM     19  C   UNL     1      34.488 -19.700 -21.977  0.00  0.00    +0.341 C 
ATOM     20  H   UNL     1      35.473 -18.785 -23.502  0.00  0.00    +0.148 HD
ATOM     21  H   UNL     1      33.781 -18.577 -23.516  0.00  0.00    +0.148 HD
ENDBRANCH   5  13
BRANCH   3  29
ATOM     22  O   UNL     1      37.537 -24.284 -10.596  0.00  0.00    -0.350 OA
ATOM     23  O   UNL     1      36.136 -25.637 -15.147  0.00  0.00    -0.268 OA
ATOM     24  N   UNL     1      36.125 -25.216 -12.849  0.00  0.00    -0.270 N 
ATOM     25  C   UNL     1      37.541 -25.531 -12.670  0.00  0.00    +0.126 C 
ATOM     26  C   UNL     1      35.414 -24.894 -11.606  0.00  0.00    +0.126 C 
ATOM     27  C   UNL     1      36.190 -23.852 -10.810  0.00  0.00    +0.164 C 
ATOM     28  C   UNL     1      38.223 -24.455 -11.839  0.00  0.00    +0.164 C 
ATOM     29  C   UNL     1      35.549 -25.306 -14.118  0.00  0.00    +0.265 C 
ENDBRANCH   3  29
TORSDOF 2
ENDMDL
MODEL 3
REMARK VINA RESULT:     -10.8      4.472     10.700
REMARK  Name = 70798655
REMARK  2 active torsions:
REMARK  status: ('A' for Active; 'I' for Inactive)
REMARK    1  A    between atoms: C_3  and  C_29
REMARK    2  A    between atoms: C_5  and  C_13
REMARK                            x       y       z     vdW  Elec       q    Type
REMARK                         _______ _______ _______ _____ _____    ______ ____
ROOT
ATOM      1  N   UNL     1      34.587 -16.826 -22.376  0.00  0.00    -0.245 N 
ATOM      2  N   UNL     1      34.745 -15.968 -24.435  0.00  0.00    -0.227 NA
ATOM      3  C   UNL     1      34.347 -15.481 -22.256  0.00  0.00    +0.130 C 
ATOM      4  C   UNL     1      34.824 -17.073 -23.723  0.00  0.00    +0.139 C 
ATOM      5  C   UNL     1      34.869 -19.091 -21.732  0.00  0.00    +0.012 C 
ATOM      6  C   UNL     1      34.606 -17.811 -21.392  0.00  0.00    +0.071 C 
ATOM      7  C   UNL     1      34.450 -14.978 -23.531  0.00  0.00    +0.120 C 
ATOM      8  C   UNL     1      35.099 -18.419 -24.092  0.00  0.00    +0.035 C 
ATOM      9  C   UNL     1      35.120 -19.380 -23.148  0.00  0.00    +0.004 C 
ENDROOT
BRANCH   5  13
ATOM     10  O   UNL     1      34.716 -23.004 -17.791  0.00  0.00    -0.414 OA
ATOM     11  N   UNL     1      32.702 -22.270 -18.530  0.00  0.00    -0.356 NA
ATOM     12  N   UNL     1      32.863 -23.962 -16.827  0.00  0.00    -0.302 N 
ATOM     13  C   UNL     1      34.880 -20.131 -20.685  0.00  0.00    -0.014 C 
ATOM     14  C   UNL     1      33.662 -20.621 -20.191  0.00  0.00    +0.089 C 
ATOM     15  C   UNL     1      36.105 -20.610 -20.202  0.00  0.00    -0.001 C 
ATOM     16  C   UNL     1      33.704 -21.609 -19.196  0.00  0.00    +0.152 C 
ATOM     17  C   UNL     1      34.939 -22.055 -18.746  0.00  0.00    +0.175 C 
ATOM     18  C   UNL     1      36.164 -21.595 -19.211  0.00  0.00    +0.040 C 
ATOM     19  C   UNL     1      33.357 -23.074 -17.720  0.00  0.00    +0.341 C 
ATOM     20  H   UNL     1      33.478 -24.504 -16.280  0.00  0.00    +0.148 HD
ATOM     21  H   UNL     1      31.890 -24.066 -16.722  0.00  0.00    +0.148 HD
ENDBRANCH   5  13
BRANCH   3  29
ATOM     22  O   UNL     1      31.385 -11.551 -21.102  0.00  0.00    -0.350 OA
ATOM     23  O   UNL     1      34.785 -14.993 -20.055  0.00  0.00    -0.268 OA
ATOM     24  N   UNL     1      32.959 -13.885 -21.003  0.00  0.00    -0.270 N 
ATOM     25  C   UNL     1      32.623 -13.157 -19.781  0.00  0.00    +0.126 C 
ATOM     26  C   UNL     1      32.031 -13.659 -22.118  0.00  0.00    +0.126 C 
ATOM     27  C   UNL     1      31.807 -12.166 -22.322  0.00  0.00    +0.164 C 
ATOM     28  C   UNL     1      32.385 -11.686 -20.088  0.00  0.00    +0.164 C 
ATOM     29  C   UNL     1      34.047 -14.761 -21.012  0.00  0.00    +0.265 C 
ENDBRANCH   3  29
TORSDOF 2
ENDMDL
MODEL 4
REMARK VINA RESULT:     -10.3      2.853      4.693
REMARK  Name = 70798655
REMARK  2 active torsions:
REMARK  status: ('A' for Active; 'I' for Inactive)
REMARK    1  A    between atoms: C_3  and  C_29
REMARK    2  A    between atoms: C_5  and  C_13
REMARK                            x       y       z     vdW  Elec       q    Type
REMARK                         _______ _______ _______ _____ _____    ______ ____
ROOT
ATOM      1  N   UNL     1      34.803 -22.940 -16.609  0.00  0.00    -0.245 N 
ATOM      2  N   UNL     1      35.632 -24.013 -14.831  0.00  0.00    -0.227 NA
ATOM      3  C   UNL     1      33.739 -23.543 -15.987  0.00  0.00    +0.130 C 
ATOM      4  C   UNL     1      35.934 -23.256 -15.866  0.00  0.00    +0.139 C 
ATOM      5  C   UNL     1      35.996 -21.654 -18.204  0.00  0.00    +0.012 C 
ATOM      6  C   UNL     1      34.823 -22.154 -17.758  0.00  0.00    +0.071 C 
ATOM      7  C   UNL     1      34.274 -24.194 -14.901  0.00  0.00    +0.120 C 
ATOM      8  C   UNL     1      37.174 -22.732 -16.326  0.00  0.00    +0.035 C 
ATOM      9  C   UNL     1      37.206 -21.970 -17.437  0.00  0.00    +0.004 C 
ENDROOT
BRANCH   5  13
ATOM     10  O   UNL     1      35.865 -18.553 -22.812  0.00  0.00    -0.414 OA
ATOM     11  N   UNL     1      33.987 -19.744 -22.372  0.00  0.00    -0.356 NA
ATOM     12  N   UNL     1      34.141 -18.335 -24.316  0.00  0.00    -0.302 N 
ATOM     13  C   UNL     1      36.010 -20.815 -19.417  0.00  0.00    -0.014 C 
ATOM     14  C   UNL     1      34.877 -20.783 -20.243  0.00  0.00    +0.089 C 
ATOM     15  C   UNL     1      37.153 -20.063 -19.723  0.00  0.00    -0.001 C 
ATOM     16  C   UNL     1      34.919 -19.977 -21.390  0.00  0.00    +0.152 C 
ATOM     17  C   UNL     1      36.070 -19.249 -21.656  0.00  0.00    +0.175 C 
ATOM     18  C   UNL     1      37.210 -19.253 -20.863  0.00  0.00    +0.040 C 
ATOM     19  C   UNL     1      34.599 -18.902 -23.176  0.00  0.00    +0.341 C 
ATOM     20  H   UNL     1      34.715 -17.716 -24.823  0.00  0.00    +0.148 HD
ATOM     21  H   UNL     1      33.235 -18.543 -24.639  0.00  0.00    +0.148 HD
ENDBRANCH   5  13
BRANCH   3  29
ATOM     22  O   UNL     1      29.400 -25.262 -14.046  0.00  0.00    -0.350 OA
ATOM     23  O   UNL     1      32.135 -23.127 -17.576  0.00  0.00    -0.268 OA
ATOM     24  N   UNL     1      31.348 -23.831 -15.492  0.00  0.00    -0.270 N 
ATOM     25  C   UNL     1      29.939 -23.778 -15.880  0.00  0.00    +0.126 C 
ATOM     26  C   UNL     1      31.577 -24.188 -14.087  0.00  0.00    +0.126 C 
ATOM     27  C   UNL     1      30.782 -25.437 -13.725  0.00  0.00    +0.164 C 
ATOM     28  C   UNL     1      29.223 -25.049 -15.449  0.00  0.00    +0.164 C 
ATOM     29  C   UNL     1      32.336 -23.486 -16.417  0.00  0.00    +0.265 C 
ENDBRANCH   3  29
TORSDOF 2
ENDMDL
MODEL 5
REMARK VINA RESULT:      -9.2      9.898     15.807
REMARK  Name = 70798655
REMARK  2 active torsions:
REMARK  status: ('A' for Active; 'I' for Inactive)
REMARK    1  A    between atoms: C_3  and  C_29
REMARK    2  A    between atoms: C_5  and  C_13
REMARK                            x       y       z     vdW  Elec       q    Type
REMARK                         _______ _______ _______ _____ _____    ______ ____
ROOT
ATOM      1  N   UNL     1      32.824  -9.657 -22.376  0.00  0.00    -0.245 N 
ATOM      2  N   UNL     1      31.476  -8.288 -21.232  0.00  0.00    -0.227 NA
ATOM      3  C   UNL     1      33.283  -8.384 -22.599  0.00  0.00    +0.130 C 
ATOM      4  C   UNL     1      31.722  -9.545 -21.536  0.00  0.00    +0.139 C 
ATOM      5  C   UNL     1      32.700 -12.021 -22.511  0.00  0.00    +0.012 C 
ATOM      6  C   UNL     1      33.311 -10.868 -22.859  0.00  0.00    +0.071 C 
ATOM      7  C   UNL     1      32.440  -7.563 -21.887  0.00  0.00    +0.120 C 
ATOM      8  C   UNL     1      31.072 -10.754 -21.162  0.00  0.00    +0.035 C 
ATOM      9  C   UNL     1      31.535 -11.932 -21.623  0.00  0.00    +0.004 C 
ENDROOT
BRANCH   5  13
ATOM     10  O   UNL     1      34.747 -16.885 -24.250  0.00  0.00    -0.414 OA
ATOM     11  N   UNL     1      35.038 -16.423 -22.050  0.00  0.00    -0.356 NA
ATOM     12  N   UNL     1      35.847 -18.476 -23.009  0.00  0.00    -0.302 N 
ATOM     13  C   UNL     1      33.227 -13.302 -23.021  0.00  0.00    -0.014 C 
ATOM     14  C   UNL     1      33.879 -14.176 -22.139  0.00  0.00    +0.089 C 
ATOM     15  C   UNL     1      33.066 -13.623 -24.375  0.00  0.00    -0.001 C 
ATOM     16  C   UNL     1      34.369 -15.386 -22.652  0.00  0.00    +0.152 C 
ATOM     17  C   UNL     1      34.189 -15.664 -23.999  0.00  0.00    +0.175 C 
ATOM     18  C   UNL     1      33.549 -14.826 -24.902  0.00  0.00    +0.040 C 
ATOM     19  C   UNL     1      35.232 -17.271 -23.036  0.00  0.00    +0.341 C 
ATOM     20  H   UNL     1      35.921 -19.009 -23.834  0.00  0.00    +0.148 HD
ATOM     21  H   UNL     1      36.222 -18.818 -22.166  0.00  0.00    +0.148 HD
ENDBRANCH   5  13
BRANCH   3  29
ATOM     22  O   UNL     1      33.996  -5.011 -26.296  0.00  0.00    -0.350 OA
ATOM     23  O   UNL     1      35.400  -8.771 -23.398  0.00  0.00    -0.268 OA
ATOM     24  N   UNL     1      34.354  -6.832 -24.177  0.00  0.00    -0.270 N 
ATOM     25  C   UNL     1      35.483  -6.421 -25.009  0.00  0.00    +0.126 C 
ATOM     26  C   UNL     1      33.234  -5.882 -24.162  0.00  0.00    +0.126 C 
ATOM     27  C   UNL     1      32.853  -5.495 -25.585  0.00  0.00    +0.164 C 
ATOM     28  C   UNL     1      35.002  -6.023 -26.397  0.00  0.00    +0.164 C 
ATOM     29  C   UNL     1      34.435  -8.009 -23.430  0.00  0.00    +0.265 C 
ENDBRANCH   3  29
TORSDOF 2
ENDMDL
MODEL 6
REMARK VINA RESULT:      -9.2      9.908     15.673
REMARK  Name = 70798655
REMARK  2 active torsions:
REMARK  status: ('A' for Active; 'I' for Inactive)
REMARK    1  A    between atoms: C_3  and  C_29
REMARK    2  A    between atoms: C_5  and  C_13
REMARK                            x       y       z     vdW  Elec       q    Type
REMARK                         _______ _______ _______ _____ _____    ______ ____
ROOT
ATOM      1  N   UNL     1      32.032  -9.578 -22.306  0.00  0.00    -0.245 N 
ATOM      2  N   UNL     1      31.269  -8.224 -20.699  0.00  0.00    -0.227 NA
ATOM      3  C   UNL     1      31.831  -8.354 -22.892  0.00  0.00    +0.130 C 
ATOM      4  C   UNL     1      31.676  -9.447 -20.969  0.00  0.00    +0.139 C 
ATOM      5  C   UNL     1      32.622 -11.866 -22.104  0.00  0.00    +0.012 C 
ATOM      6  C   UNL     1      32.498 -10.762 -22.872  0.00  0.00    +0.071 C 
ATOM      7  C   UNL     1      31.363  -7.542 -21.886  0.00  0.00    +0.120 C 
ATOM      8  C   UNL     1      31.804 -10.604 -20.152  0.00  0.00    +0.035 C 
ATOM      9  C   UNL     1      32.254 -11.755 -20.689  0.00  0.00    +0.004 C 
ENDROOT
BRANCH   5  13
ATOM     10  O   UNL     1      34.581 -16.621 -24.208  0.00  0.00    -0.414 OA
ATOM     11  N   UNL     1      34.960 -16.291 -21.997  0.00  0.00    -0.356 NA
ATOM     12  N   UNL     1      35.723 -18.284 -23.108  0.00  0.00    -0.302 N 
ATOM     13  C   UNL     1      33.124 -13.115 -22.709  0.00  0.00    -0.014 C 
ATOM     14  C   UNL     1      33.806 -14.041 -21.907  0.00  0.00    +0.089 C 
ATOM     15  C   UNL     1      32.909 -13.355 -24.073  0.00  0.00    -0.001 C 
ATOM     16  C   UNL     1      34.271 -15.219 -22.510  0.00  0.00    +0.152 C 
ATOM     17  C   UNL     1      34.038 -15.417 -23.863  0.00  0.00    +0.175 C 
ATOM     18  C   UNL     1      33.367 -14.525 -24.689  0.00  0.00    +0.040 C 
ATOM     19  C   UNL     1      35.111 -17.080 -23.039  0.00  0.00    +0.341 C 
ATOM     20  H   UNL     1      35.762 -18.768 -23.965  0.00  0.00    +0.148 HD
ATOM     21  H   UNL     1      36.128 -18.677 -22.302  0.00  0.00    +0.148 HD
ENDBRANCH   5  13
BRANCH   3  29
ATOM     22  O   UNL     1      35.607  -6.065 -25.352  0.00  0.00    -0.350 OA
ATOM     23  O   UNL     1      31.110  -8.112 -25.058  0.00  0.00    -0.268 OA
ATOM     24  N   UNL     1      33.362  -7.624 -24.672  0.00  0.00    -0.270 N 
ATOM     25  C   UNL     1      33.645  -7.288 -26.066  0.00  0.00    +0.126 C 
ATOM     26  C   UNL     1      34.533  -7.579 -23.787  0.00  0.00    +0.126 C 
ATOM     27  C   UNL     1      35.283  -6.266 -23.974  0.00  0.00    +0.164 C 
ATOM     28  C   UNL     1      34.423  -5.983 -26.150  0.00  0.00    +0.164 C 
ATOM     29  C   UNL     1      32.074  -8.016 -24.300  0.00  0.00    +0.265 C 
ENDBRANCH   3  29
TORSDOF 2
ENDMDL
MODEL 7
REMARK VINA RESULT:      -9.1      3.353      7.652
REMARK  Name = 70798655
REMARK  2 active torsions:
REMARK  status: ('A' for Active; 'I' for Inactive)
REMARK    1  A    between atoms: C_3  and  C_29
REMARK    2  A    between atoms: C_5  and  C_13
REMARK                            x       y       z     vdW  Elec       q    Type
REMARK                         _______ _______ _______ _____ _____    ______ ____
ROOT
ATOM      1  N   UNL     1      34.531 -22.613 -17.331  0.00  0.00    -0.245 N 
ATOM      2  N   UNL     1      36.722 -22.777 -16.915  0.00  0.00    -0.227 NA
ATOM      3  C   UNL     1      35.174 -22.023 -18.390  0.00  0.00    +0.130 C 
ATOM      4  C   UNL     1      35.519 -23.057 -16.459  0.00  0.00    +0.139 C 
ATOM      5  C   UNL     1      32.745 -23.392 -15.980  0.00  0.00    +0.012 C 
ATOM      6  C   UNL     1      33.167 -22.774 -17.105  0.00  0.00    +0.071 C 
ATOM      7  C   UNL     1      36.515 -22.136 -18.110  0.00  0.00    +0.120 C 
ATOM      8  C   UNL     1      35.084 -23.712 -15.273  0.00  0.00    +0.035 C 
ATOM      9  C   UNL     1      33.766 -23.873 -15.044  0.00  0.00    +0.004 C 
ENDROOT
BRANCH   5  13
ATOM     10  O   UNL     1      27.264 -23.874 -15.203  0.00  0.00    -0.414 OA
ATOM     11  N   UNL     1      27.949 -21.982 -16.247  0.00  0.00    -0.356 NA
ATOM     12  N   UNL     1      25.618 -22.391 -15.813  0.00  0.00    -0.302 N 
ATOM     13  C   UNL     1      31.297 -23.566 -15.751  0.00  0.00    -0.014 C 
ATOM     14  C   UNL     1      30.409 -22.569 -16.181  0.00  0.00    +0.089 C 
ATOM     15  C   UNL     1      30.835 -24.722 -15.109  0.00  0.00    -0.001 C 
ATOM     16  C   UNL     1      29.040 -22.762 -15.950  0.00  0.00    +0.152 C 
ATOM     17  C   UNL     1      28.625 -23.921 -15.310  0.00  0.00    +0.175 C 
ATOM     18  C   UNL     1      29.472 -24.930 -14.871  0.00  0.00    +0.040 C 
ATOM     19  C   UNL     1      26.938 -22.686 -15.787  0.00  0.00    +0.341 C 
ATOM     20  H   UNL     1      24.966 -23.019 -15.425  0.00  0.00    +0.148 HD
ATOM     21  H   UNL     1      25.311 -21.549 -16.218  0.00  0.00    +0.148 HD
ENDBRANCH   5  13
BRANCH   3  29
ATOM     22  O   UNL     1      36.637 -18.576 -21.785  0.00  0.00    -0.350 OA
ATOM     23  O   UNL     1      33.322 -21.586 -19.675  0.00  0.00    -0.268 OA
ATOM     24  N   UNL     1      35.335 -20.685 -20.446  0.00  0.00    -0.270 N 
ATOM     25  C   UNL     1      34.736 -20.065 -21.627  0.00  0.00    +0.126 C 
ATOM     26  C   UNL     1      36.792 -20.531 -20.353  0.00  0.00    +0.126 C 
ATOM     27  C   UNL     1      37.182 -19.073 -20.559  0.00  0.00    +0.164 C 
ATOM     28  C   UNL     1      35.208 -18.626 -21.767  0.00  0.00    +0.164 C 
ATOM     29  C   UNL     1      34.534 -21.408 -19.560  0.00  0.00    +0.265 C 
ENDBRANCH   3  29
TORSDOF 2
ENDMDL
MODEL 8
REMARK VINA RESULT:      -9.1     11.707     15.945
REMARK  Name = 70798655
REMARK  2 active torsions:
REMARK  status: ('A' for Active; 'I' for Inactive)
REMARK    1  A    between atoms: C_3  and  C_29
REMARK    2  A    between atoms: C_5  and  C_13
REMARK                            x       y       z     vdW  Elec       q    Type
REMARK                         _______ _______ _______ _____ _____    ______ ____
ROOT
ATOM      1  N   UNL     1      32.341  -9.712 -21.385  0.00  0.00    -0.245 N 
ATOM      2  N   UNL     1      31.440 -10.243 -19.409  0.00  0.00    -0.227 NA
ATOM      3  C   UNL     1      32.160 -11.072 -21.393  0.00  0.00    +0.130 C 
ATOM      4  C   UNL     1      31.886  -9.254 -20.154  0.00  0.00    +0.139 C 
ATOM      5  C   UNL     1      32.957  -7.556 -22.157  0.00  0.00    +0.012 C 
ATOM      6  C   UNL     1      32.867  -8.886 -22.375  0.00  0.00    +0.071 C 
ATOM      7  C   UNL     1      31.607 -11.372 -20.171  0.00  0.00    +0.120 C 
ATOM      8  C   UNL     1      31.975  -7.854 -19.916  0.00  0.00    +0.035 C 
ATOM      9  C   UNL     1      32.482  -7.045 -20.866  0.00  0.00    +0.004 C 
ENDROOT
BRANCH   5  13
ATOM     10  O   UNL     1      34.870  -4.175 -26.129  0.00  0.00    -0.414 OA
ATOM     11  N   UNL     1      32.784  -3.721 -25.368  0.00  0.00    -0.356 NA
ATOM     12  N   UNL     1      33.803  -2.380 -27.087  0.00  0.00    -0.302 N 
ATOM     13  C   UNL     1      33.509  -6.686 -23.213  0.00  0.00    -0.014 C 
ATOM     14  C   UNL     1      32.735  -5.622 -23.701  0.00  0.00    +0.089 C 
ATOM     15  C   UNL     1      34.796  -6.935 -23.709  0.00  0.00    -0.001 C 
ATOM     16  C   UNL     1      33.286  -4.812 -24.704  0.00  0.00    +0.152 C 
ATOM     17  C   UNL     1      34.563  -5.095 -25.168  0.00  0.00    +0.175 C 
ATOM     18  C   UNL     1      35.360  -6.136 -24.709  0.00  0.00    +0.040 C 
ATOM     19  C   UNL     1      33.757  -3.391 -26.190  0.00  0.00    +0.341 C 
ATOM     20  H   UNL     1      34.606  -2.250 -27.642  0.00  0.00    +0.148 HD
ATOM     21  H   UNL     1      33.034  -1.774 -27.184  0.00  0.00    +0.148 HD
ENDBRANCH   5  13
BRANCH   3  29
ATOM     22  O   UNL     1      34.573 -15.505 -21.655  0.00  0.00    -0.350 OA
ATOM     23  O   UNL     1      32.359 -11.543 -23.632  0.00  0.00    -0.268 OA
ATOM     24  N   UNL     1      32.935 -13.272 -22.169  0.00  0.00    -0.270 N 
ATOM     25  C   UNL     1      33.271 -14.214 -23.235  0.00  0.00    +0.126 C 
ATOM     26  C   UNL     1      33.030 -13.830 -20.814  0.00  0.00    +0.126 C 
ATOM     27  C   UNL     1      34.369 -14.532 -20.627  0.00  0.00    +0.164 C 
ATOM     28  C   UNL     1      34.604 -14.888 -22.945  0.00  0.00    +0.164 C 
ATOM     29  C   UNL     1      32.497 -11.986 -22.492  0.00  0.00    +0.265 C 
ENDBRANCH   3  29
TORSDOF 2
ENDMDL
