MODEL 1
REMARK VINA RESULT:     -12.0      0.000      0.000
REMARK  Name = 3351
REMARK  5 active torsions:
REMARK  status: ('A' for Active; 'I' for Inactive)
REMARK    1  A    between atoms: N_2  and  C_10
REMARK    2  A    between atoms: C_8  and  C_20
REMARK    3  A    between atoms: C_10  and  C_13
REMARK    4  A    between atoms: C_20  and  O_21
REMARK    5  A    between atoms: O_21  and  C_23
REMARK                            x       y       z     vdW  Elec       q    Type
REMARK                         _______ _______ _______ _____ _____    ______ ____
ROOT
ATOM      1  O   UNL     1      35.315 -17.329 -23.509  0.00  0.00    -0.271 OA
ATOM      2  N   UNL     1      32.949 -13.342 -21.659  0.00  0.00    +0.392 N 
ATOM      3  N   UNL     1      34.627 -15.624 -22.089  0.00  0.00    -0.281 N 
ATOM      4  C   UNL     1      32.995 -13.996 -22.975  0.00  0.00    -0.055 C 
ATOM      5  C   UNL     1      33.154 -14.327 -20.587  0.00  0.00    -0.055 C 
ATOM      6  C   UNL     1      34.337 -14.698 -23.183  0.00  0.00    +0.071 C 
ATOM      7  C   UNL     1      34.497 -15.043 -20.750  0.00  0.00    +0.071 C 
ATOM      8  C   UNL     1      35.107 -16.902 -22.370  0.00  0.00    +0.270 C 
ATOM      9  H   UNL     1      33.702 -12.655 -21.614  0.00  0.00    -0.079 HD
ENDROOT
BRANCH   2  10
ATOM     10  C   UNL     1      31.678 -12.643 -21.477  0.00  0.00    -0.050 C 
BRANCH  10  13
ATOM     11  O   UNL     1      32.408  -7.763 -21.633  0.00  0.00    -0.435 OA
ATOM     12  O   UNL     1      32.391  -7.567 -19.231  0.00  0.00    -0.435 OA
ATOM     13  C   UNL     1      31.866 -11.293 -20.838  0.00  0.00    -0.040 C 
ATOM     14  C   UNL     1      32.048 -10.177 -21.649  0.00  0.00    +0.034 C 
ATOM     15  C   UNL     1      31.855 -11.191 -19.442  0.00  0.00    -0.003 C 
ATOM     16  C   UNL     1      32.217  -8.961 -21.018  0.00  0.00    +0.176 C 
ATOM     17  C   UNL     1      32.207  -8.850 -19.646  0.00  0.00    +0.176 C 
ATOM     18  C   UNL     1      32.028  -9.947 -18.829  0.00  0.00    +0.040 C 
ATOM     19  C   UNL     1      32.517  -6.884 -20.495  0.00  0.00    +0.429 C 
ENDBRANCH  10  13
ENDBRANCH   2  10
BRANCH   8  20
ATOM     20  C   UNL     1      35.376 -17.797 -21.187  0.00  0.00    +0.290 C 
BRANCH  20  21
ATOM     21  O   UNL     1      35.303 -19.120 -21.657  0.00  0.00    -0.466 OA
BRANCH  21  23
ATOM     22 CL   UNL     1      33.589 -23.242 -17.843  0.00  0.00    -0.082 Cl
ATOM     23  C   UNL     1      34.901 -20.088 -20.764  0.00  0.00    +0.139 C 
ATOM     24  C   UNL     1      33.547 -20.288 -20.540  0.00  0.00    +0.038 C 
ATOM     25  C   UNL     1      35.857 -20.845 -20.103  0.00  0.00    +0.038 C 
ATOM     26  C   UNL     1      33.140 -21.267 -19.634  0.00  0.00    +0.015 C 
ATOM     27  C   UNL     1      35.450 -21.823 -19.196  0.00  0.00    +0.015 C 
ATOM     28  C   UNL     1      34.092 -22.035 -18.962  0.00  0.00    +0.058 C 
ENDBRANCH  21  23
ENDBRANCH  20  21
ENDBRANCH   8  20
TORSDOF 5
ENDMDL
MODEL 2
REMARK VINA RESULT:     -11.2      3.507      9.571
REMARK  Name = 3351
REMARK  5 active torsions:
REMARK  status: ('A' for Active; 'I' for Inactive)
REMARK    1  A    between atoms: N_2  and  C_10
REMARK    2  A    between atoms: C_8  and  C_20
REMARK    3  A    between atoms: C_10  and  C_13
REMARK    4  A    between atoms: C_20  and  O_21
REMARK    5  A    between atoms: O_21  and  C_23
REMARK                            x       y       z     vdW  Elec       q    Type
REMARK                         _______ _______ _______ _____ _____    ______ ____
ROOT
ATOM      1  O   UNL     1      33.275 -13.902 -25.739  0.00  0.00    -0.271 OA
ATOM      2  N   UNL     1      34.948 -17.537 -22.755  0.00  0.00    +0.392 N 
ATOM      3  N   UNL     1      33.849 -15.130 -23.852  0.00  0.00    -0.281 N 
ATOM      4  C   UNL     1      34.733 -17.408 -24.204  0.00  0.00    -0.055 C 
ATOM      5  C   UNL     1      35.282 -16.232 -22.166  0.00  0.00    -0.055 C 
ATOM      6  C   UNL     1      33.605 -16.419 -24.497  0.00  0.00    +0.071 C 
ATOM      7  C   UNL     1      34.168 -15.215 -22.424  0.00  0.00    +0.071 C 
ATOM      8  C   UNL     1      33.653 -13.948 -24.565  0.00  0.00    +0.270 C 
ATOM      9  H   UNL     1      34.084 -17.872 -22.329  0.00  0.00    -0.079 HD
ENDROOT
BRANCH   2  10
ATOM     10  C   UNL     1      36.004 -18.510 -22.478  0.00  0.00    -0.050 C 
BRANCH  10  13
ATOM     11  O   UNL     1      32.663 -21.109 -19.935  0.00  0.00    -0.435 OA
ATOM     12  O   UNL     1      34.348 -22.149 -18.561  0.00  0.00    -0.435 OA
ATOM     13  C   UNL     1      35.595 -19.494 -21.414  0.00  0.00    -0.040 C 
ATOM     14  C   UNL     1      34.246 -19.788 -21.243  0.00  0.00    +0.034 C 
ATOM     15  C   UNL     1      36.581 -20.092 -20.621  0.00  0.00    -0.003 C 
ATOM     16  C   UNL     1      33.919 -20.696 -20.255  0.00  0.00    +0.176 C 
ATOM     17  C   UNL     1      34.882 -21.289 -19.471  0.00  0.00    +0.176 C 
ATOM     18  C   UNL     1      36.223 -21.008 -19.629  0.00  0.00    +0.040 C 
ATOM     19  C   UNL     1      32.942 -22.030 -18.861  0.00  0.00    +0.429 C 
ENDBRANCH  10  13
ENDBRANCH   2  10
BRANCH   8  20
ATOM     20  C   UNL     1      33.932 -12.662 -23.830  0.00  0.00    +0.290 C 
BRANCH  20  21
ATOM     21  O   UNL     1      32.710 -11.970 -23.750  0.00  0.00    -0.466 OA
BRANCH  21  23
ATOM     22 CL   UNL     1      31.191  -9.786 -18.515  0.00  0.00    -0.082 Cl
ATOM     23  C   UNL     1      32.352 -11.458 -22.523  0.00  0.00    +0.139 C 
ATOM     24  C   UNL     1      32.305 -10.083 -22.346  0.00  0.00    +0.038 C 
ATOM     25  C   UNL     1      32.047 -12.326 -21.485  0.00  0.00    +0.038 C 
ATOM     26  C   UNL     1      31.945  -9.564 -21.103  0.00  0.00    +0.015 C 
ATOM     27  C   UNL     1      31.686 -11.807 -20.241  0.00  0.00    +0.015 C 
ATOM     28  C   UNL     1      31.635 -10.427 -20.050  0.00  0.00    +0.058 C 
ENDBRANCH  21  23
ENDBRANCH  20  21
ENDBRANCH   8  20
TORSDOF 5
ENDMDL
MODEL 3
REMARK VINA RESULT:     -11.2      5.393      8.080
REMARK  Name = 3351
REMARK  5 active torsions:
REMARK  status: ('A' for Active; 'I' for Inactive)
REMARK    1  A    between atoms: N_2  and  C_10
REMARK    2  A    between atoms: C_8  and  C_20
REMARK    3  A    between atoms: C_10  and  C_13
REMARK    4  A    between atoms: C_20  and  O_21
REMARK    5  A    between atoms: O_21  and  C_23
REMARK                            x       y       z     vdW  Elec       q    Type
REMARK                         _______ _______ _______ _____ _____    ______ ____
ROOT
ATOM      1  O   UNL     1      31.940 -22.637 -17.609  0.00  0.00    -0.271 OA
ATOM      2  N   UNL     1      35.175 -20.436 -20.709  0.00  0.00    +0.392 N 
ATOM      3  N   UNL     1      33.801 -22.218 -18.936  0.00  0.00    -0.281 N 
ATOM      4  C   UNL     1      33.817 -20.122 -20.241  0.00  0.00    -0.055 C 
ATOM      5  C   UNL     1      35.916 -21.178 -19.678  0.00  0.00    -0.055 C 
ATOM      6  C   UNL     1      33.056 -21.401 -19.893  0.00  0.00    +0.071 C 
ATOM      7  C   UNL     1      35.193 -22.476 -19.312  0.00  0.00    +0.071 C 
ATOM      8  C   UNL     1      33.144 -22.779 -17.842  0.00  0.00    +0.270 C 
ATOM      9  H   UNL     1      35.102 -21.025 -21.540  0.00  0.00    -0.079 HD
ENDROOT
BRANCH   2  10
ATOM     10  C   UNL     1      35.888 -19.214 -21.074  0.00  0.00    -0.050 C 
BRANCH  10  13
ATOM     11  O   UNL     1      34.519 -15.222 -23.637  0.00  0.00    -0.435 OA
ATOM     12  O   UNL     1      33.581 -16.545 -25.419  0.00  0.00    -0.435 OA
ATOM     13  C   UNL     1      35.260 -18.529 -22.259  0.00  0.00    -0.040 C 
ATOM     14  C   UNL     1      35.231 -17.139 -22.305  0.00  0.00    +0.034 C 
ATOM     15  C   UNL     1      34.718 -19.308 -23.288  0.00  0.00    -0.003 C 
ATOM     16  C   UNL     1      34.644 -16.557 -23.410  0.00  0.00    +0.176 C 
ATOM     17  C   UNL     1      34.109 -17.313 -24.428  0.00  0.00    +0.176 C 
ATOM     18  C   UNL     1      34.130 -18.692 -24.397  0.00  0.00    +0.040 C 
ATOM     19  C   UNL     1      33.844 -15.221 -24.911  0.00  0.00    +0.429 C 
ENDBRANCH  10  13
ENDBRANCH   2  10
BRANCH   8  20
ATOM     20  C   UNL     1      33.984 -23.604 -16.900  0.00  0.00    +0.290 C 
BRANCH  20  21
ATOM     21  O   UNL     1      33.557 -23.288 -15.598  0.00  0.00    -0.466 OA
BRANCH  21  23
ATOM     22 CL   UNL     1      37.259 -24.438 -11.188  0.00  0.00    -0.082 Cl
ATOM     23  C   UNL     1      34.425 -23.559 -14.565  0.00  0.00    +0.139 C 
ATOM     24  C   UNL     1      33.953 -24.198 -13.428  0.00  0.00    +0.038 C 
ATOM     25  C   UNL     1      35.757 -23.188 -14.678  0.00  0.00    +0.038 C 
ATOM     26  C   UNL     1      34.832 -24.471 -12.380  0.00  0.00    +0.015 C 
ATOM     27  C   UNL     1      36.636 -23.461 -13.629  0.00  0.00    +0.015 C 
ATOM     28  C   UNL     1      36.175 -24.102 -12.481  0.00  0.00    +0.058 C 
ENDBRANCH  21  23
ENDBRANCH  20  21
ENDBRANCH   8  20
TORSDOF 5
ENDMDL
MODEL 4
REMARK VINA RESULT:     -11.0      8.776     11.780
REMARK  Name = 3351
REMARK  5 active torsions:
REMARK  status: ('A' for Active; 'I' for Inactive)
REMARK    1  A    between atoms: N_2  and  C_10
REMARK    2  A    between atoms: C_8  and  C_20
REMARK    3  A    between atoms: C_10  and  C_13
REMARK    4  A    between atoms: C_20  and  O_21
REMARK    5  A    between atoms: O_21  and  C_23
REMARK                            x       y       z     vdW  Elec       q    Type
REMARK                         _______ _______ _______ _____ _____    ______ ____
ROOT
ATOM      1  O   UNL     1      37.685 -23.124 -14.264  0.00  0.00    -0.271 OA
ATOM      2  N   UNL     1      32.888 -24.485 -14.031  0.00  0.00    +0.392 N 
ATOM      3  N   UNL     1      35.509 -23.678 -14.861  0.00  0.00    -0.281 N 
ATOM      4  C   UNL     1      33.985 -24.401 -13.057  0.00  0.00    -0.055 C 
ATOM      5  C   UNL     1      33.056 -23.473 -15.084  0.00  0.00    -0.055 C 
ATOM      6  C   UNL     1      35.336 -24.606 -13.743  0.00  0.00    +0.071 C 
ATOM      7  C   UNL     1      34.392 -23.654 -15.809  0.00  0.00    +0.071 C 
ATOM      8  C   UNL     1      36.716 -23.000 -15.018  0.00  0.00    +0.270 C 
ATOM      9  H   UNL     1      32.911 -25.409 -14.465  0.00  0.00    -0.079 HD
ENDROOT
BRANCH   2  10
ATOM     10  C   UNL     1      31.596 -24.323 -13.366  0.00  0.00    -0.050 C 
BRANCH  10  13
ATOM     11  O   UNL     1      28.153 -22.046 -16.075  0.00  0.00    -0.435 OA
ATOM     12  O   UNL     1      27.352 -24.119 -17.009  0.00  0.00    -0.435 OA
ATOM     13  C   UNL     1      30.457 -24.306 -14.349  0.00  0.00    -0.040 C 
ATOM     14  C   UNL     1      29.883 -23.089 -14.704  0.00  0.00    +0.034 C 
ATOM     15  C   UNL     1      29.999 -25.515 -14.885  0.00  0.00    -0.003 C 
ATOM     16  C   UNL     1      28.840 -23.124 -15.608  0.00  0.00    +0.176 C 
ATOM     17  C   UNL     1      28.384 -24.307 -16.141  0.00  0.00    +0.176 C 
ATOM     18  C   UNL     1      28.942 -25.521 -15.799  0.00  0.00    +0.040 C 
ATOM     19  C   UNL     1      27.212 -22.684 -16.962  0.00  0.00    +0.429 C 
ENDBRANCH  10  13
ENDBRANCH   2  10
BRANCH   8  20
ATOM     20  C   UNL     1      36.812 -22.058 -16.192  0.00  0.00    +0.290 C 
BRANCH  20  21
ATOM     21  O   UNL     1      36.320 -22.756 -17.309  0.00  0.00    -0.466 OA
BRANCH  21  23
ATOM     22 CL   UNL     1      34.488 -19.574 -21.892  0.00  0.00    -0.082 Cl
ATOM     23  C   UNL     1      35.889 -22.008 -18.383  0.00  0.00    +0.139 C 
ATOM     24  C   UNL     1      34.553 -22.051 -18.751  0.00  0.00    +0.038 C 
ATOM     25  C   UNL     1      36.801 -21.227 -19.078  0.00  0.00    +0.038 C 
ATOM     26  C   UNL     1      34.118 -21.296 -19.840  0.00  0.00    +0.015 C 
ATOM     27  C   UNL     1      36.365 -20.471 -20.167  0.00  0.00    +0.015 C 
ATOM     28  C   UNL     1      35.025 -20.505 -20.548  0.00  0.00    +0.058 C 
ENDBRANCH  21  23
ENDBRANCH  20  21
ENDBRANCH   8  20
TORSDOF 5
ENDMDL
MODEL 5
REMARK VINA RESULT:     -10.9      8.289     11.703
REMARK  Name = 3351
REMARK  5 active torsions:
REMARK  status: ('A' for Active; 'I' for Inactive)
REMARK    1  A    between atoms: N_2  and  C_10
REMARK    2  A    between atoms: C_8  and  C_20
REMARK    3  A    between atoms: C_10  and  C_13
REMARK    4  A    between atoms: C_20  and  O_21
REMARK    5  A    between atoms: O_21  and  C_23
REMARK                            x       y       z     vdW  Elec       q    Type
REMARK                         _______ _______ _______ _____ _____    ______ ____
ROOT
ATOM      1  O   UNL     1      38.212 -23.080 -15.405  0.00  0.00    -0.271 OA
ATOM      2  N   UNL     1      33.489 -24.349 -14.404  0.00  0.00    +0.392 N 
ATOM      3  N   UNL     1      35.927 -23.449 -15.609  0.00  0.00    -0.281 N 
ATOM      4  C   UNL     1      34.769 -24.494 -13.695  0.00  0.00    -0.055 C 
ATOM      5  C   UNL     1      33.502 -23.145 -15.247  0.00  0.00    -0.055 C 
ATOM      6  C   UNL     1      35.929 -24.583 -14.686  0.00  0.00    +0.071 C 
ATOM      7  C   UNL     1      34.641 -23.202 -16.267  0.00  0.00    +0.071 C 
ATOM      8  C   UNL     1      37.118 -22.780 -15.890  0.00  0.00    +0.270 C 
ATOM      9  H   UNL     1      33.359 -25.163 -15.006  0.00  0.00    -0.079 HD
ENDROOT
BRANCH   2  10
ATOM     10  C   UNL     1      32.379 -24.298 -13.454  0.00  0.00    -0.050 C 
BRANCH  10  13
ATOM     11  O   UNL     1      28.950 -22.362 -16.433  0.00  0.00    -0.435 OA
ATOM     12  O   UNL     1      27.447 -24.216 -16.098  0.00  0.00    -0.435 OA
ATOM     13  C   UNL     1      31.044 -24.310 -14.150  0.00  0.00    -0.040 C 
ATOM     14  C   UNL     1      30.699 -23.246 -14.978  0.00  0.00    +0.034 C 
ATOM     15  C   UNL     1      30.178 -25.391 -13.948  0.00  0.00    -0.003 C 
ATOM     16  C   UNL     1      29.465 -23.301 -15.594  0.00  0.00    +0.176 C 
ATOM     17  C   UNL     1      28.607 -24.359 -15.402  0.00  0.00    +0.176 C 
ATOM     18  C   UNL     1      28.935 -25.421 -14.584  0.00  0.00    +0.040 C 
ATOM     19  C   UNL     1      27.671 -22.948 -16.750  0.00  0.00    +0.429 C 
ENDBRANCH  10  13
ENDBRANCH   2  10
BRANCH   8  20
ATOM     20  C   UNL     1      37.030 -21.618 -16.846  0.00  0.00    +0.290 C 
BRANCH  20  21
ATOM     21  O   UNL     1      36.811 -22.164 -18.124  0.00  0.00    -0.466 OA
BRANCH  21  23
ATOM     22 CL   UNL     1      34.802 -18.545 -22.289  0.00  0.00    -0.082 Cl
ATOM     23  C   UNL     1      36.341 -21.316 -19.102  0.00  0.00    +0.139 C 
ATOM     24  C   UNL     1      37.196 -20.379 -19.661  0.00  0.00    +0.038 C 
ATOM     25  C   UNL     1      35.018 -21.414 -19.510  0.00  0.00    +0.038 C 
ATOM     26  C   UNL     1      36.719 -19.519 -20.650  0.00  0.00    +0.015 C 
ATOM     27  C   UNL     1      34.541 -20.554 -20.499  0.00  0.00    +0.015 C 
ATOM     28  C   UNL     1      35.391 -19.607 -21.069  0.00  0.00    +0.058 C 
ENDBRANCH  21  23
ENDBRANCH  20  21
ENDBRANCH   8  20
TORSDOF 5
ENDMDL
MODEL 6
REMARK VINA RESULT:     -10.9      1.632      2.121
REMARK  Name = 3351
REMARK  5 active torsions:
REMARK  status: ('A' for Active; 'I' for Inactive)
REMARK    1  A    between atoms: N_2  and  C_10
REMARK    2  A    between atoms: C_8  and  C_20
REMARK    3  A    between atoms: C_10  and  C_13
REMARK    4  A    between atoms: C_20  and  O_21
REMARK    5  A    between atoms: O_21  and  C_23
REMARK                            x       y       z     vdW  Elec       q    Type
REMARK                         _______ _______ _______ _____ _____    ______ ____
ROOT
ATOM      1  O   UNL     1      35.148 -17.661 -23.607  0.00  0.00    -0.271 OA
ATOM      2  N   UNL     1      33.150 -13.339 -22.111  0.00  0.00    +0.392 N 
ATOM      3  N   UNL     1      34.637 -15.775 -22.350  0.00  0.00    -0.281 N 
ATOM      4  C   UNL     1      33.105 -14.121 -23.355  0.00  0.00    -0.055 C 
ATOM      5  C   UNL     1      33.315 -14.226 -20.951  0.00  0.00    -0.055 C 
ATOM      6  C   UNL     1      34.382 -14.942 -23.525  0.00  0.00    +0.071 C 
ATOM      7  C   UNL     1      34.594 -15.057 -21.074  0.00  0.00    +0.071 C 
ATOM      8  C   UNL     1      35.010 -17.109 -22.513  0.00  0.00    +0.270 C 
ATOM      9  H   UNL     1      33.954 -12.711 -22.154  0.00  0.00    -0.079 HD
ENDROOT
BRANCH   2  10
ATOM     10  C   UNL     1      31.941 -12.528 -21.970  0.00  0.00    -0.050 C 
BRANCH  10  13
ATOM     11  O   UNL     1      34.722  -8.851 -23.738  0.00  0.00    -0.435 OA
ATOM     12  O   UNL     1      32.936  -7.246 -23.531  0.00  0.00    -0.435 OA
ATOM     13  C   UNL     1      32.173 -11.099 -22.381  0.00  0.00    -0.040 C 
ATOM     14  C   UNL     1      33.419 -10.727 -22.875  0.00  0.00    +0.034 C 
ATOM     15  C   UNL     1      31.129 -10.174 -22.256  0.00  0.00    -0.003 C 
ATOM     16  C   UNL     1      33.584  -9.405 -23.238  0.00  0.00    +0.176 C 
ATOM     17  C   UNL     1      32.565  -8.489 -23.120  0.00  0.00    +0.176 C 
ATOM     18  C   UNL     1      31.324  -8.842 -22.631  0.00  0.00    +0.040 C 
ATOM     19  C   UNL     1      34.304  -7.484 -23.922  0.00  0.00    +0.429 C 
ENDBRANCH  10  13
ENDBRANCH   2  10
BRANCH   8  20
ATOM     20  C   UNL     1      35.249 -17.901 -21.252  0.00  0.00    +0.290 C 
BRANCH  20  21
ATOM     21  O   UNL     1      35.271 -19.256 -21.626  0.00  0.00    -0.466 OA
BRANCH  21  23
ATOM     22 CL   UNL     1      33.649 -23.202 -17.591  0.00  0.00    -0.082 Cl
ATOM     23  C   UNL     1      34.891 -20.180 -20.679  0.00  0.00    +0.139 C 
ATOM     24  C   UNL     1      35.863 -20.881 -19.982  0.00  0.00    +0.038 C 
ATOM     25  C   UNL     1      33.542 -20.395 -20.439  0.00  0.00    +0.038 C 
ATOM     26  C   UNL     1      35.478 -21.819 -19.024  0.00  0.00    +0.015 C 
ATOM     27  C   UNL     1      33.157 -21.333 -19.481  0.00  0.00    +0.015 C 
ATOM     28  C   UNL     1      34.124 -22.044 -18.773  0.00  0.00    +0.058 C 
ENDBRANCH  21  23
ENDBRANCH  20  21
ENDBRANCH   8  20
TORSDOF 5
ENDMDL
MODEL 7
REMARK VINA RESULT:     -10.9      4.550      6.637
REMARK  Name = 3351
REMARK  5 active torsions:
REMARK  status: ('A' for Active; 'I' for Inactive)
REMARK    1  A    between atoms: N_2  and  C_10
REMARK    2  A    between atoms: C_8  and  C_20
REMARK    3  A    between atoms: C_10  and  C_13
REMARK    4  A    between atoms: C_20  and  O_21
REMARK    5  A    between atoms: O_21  and  C_23
REMARK                            x       y       z     vdW  Elec       q    Type
REMARK                         _______ _______ _______ _____ _____    ______ ____
ROOT
ATOM      1  O   UNL     1      36.243 -22.421 -18.280  0.00  0.00    -0.271 OA
ATOM      2  N   UNL     1      35.308 -19.010 -21.802  0.00  0.00    +0.392 N 
ATOM      3  N   UNL     1      35.157 -20.878 -19.636  0.00  0.00    -0.281 N 
ATOM      4  C   UNL     1      36.523 -19.664 -21.296  0.00  0.00    -0.055 C 
ATOM      5  C   UNL     1      34.149 -19.904 -21.671  0.00  0.00    -0.055 C 
ATOM      6  C   UNL     1      36.354 -20.060 -19.830  0.00  0.00    +0.071 C 
ATOM      7  C   UNL     1      33.934 -20.312 -20.211  0.00  0.00    +0.071 C 
ATOM      8  C   UNL     1      35.221 -22.026 -18.848  0.00  0.00    +0.270 C 
ATOM      9  H   UNL     1      35.135 -18.174 -21.243  0.00  0.00    -0.079 HD
ENDROOT
BRANCH   2  10
ATOM     10  C   UNL     1      35.486 -18.601 -23.195  0.00  0.00    -0.050 C 
BRANCH  10  13
ATOM     11  O   UNL     1      33.443 -15.124 -26.042  0.00  0.00    -0.435 OA
ATOM     12  O   UNL     1      33.464 -13.494 -24.266  0.00  0.00    -0.435 OA
ATOM     13  C   UNL     1      34.950 -17.218 -23.447  0.00  0.00    -0.040 C 
ATOM     14  C   UNL     1      34.449 -16.902 -24.706  0.00  0.00    +0.034 C 
ATOM     15  C   UNL     1      34.967 -16.279 -22.409  0.00  0.00    -0.003 C 
ATOM     16  C   UNL     1      33.968 -15.621 -24.890  0.00  0.00    +0.176 C 
ATOM     17  C   UNL     1      33.981 -14.691 -23.876  0.00  0.00    +0.176 C 
ATOM     18  C   UNL     1      34.474 -14.989 -22.622  0.00  0.00    +0.040 C 
ATOM     19  C   UNL     1      33.125 -13.776 -25.640  0.00  0.00    +0.429 C 
ENDBRANCH  10  13
ENDBRANCH   2  10
BRANCH   8  20
ATOM     20  C   UNL     1      33.945 -22.816 -18.702  0.00  0.00    +0.290 C 
BRANCH  20  21
ATOM     21  O   UNL     1      34.181 -23.784 -17.710  0.00  0.00    -0.466 OA
BRANCH  21  23
ATOM     22 CL   UNL     1      30.899 -23.517 -12.848  0.00  0.00    -0.082 Cl
ATOM     23  C   UNL     1      33.411 -23.723 -16.570  0.00  0.00    +0.139 C 
ATOM     24  C   UNL     1      32.088 -23.317 -16.663  0.00  0.00    +0.038 C 
ATOM     25  C   UNL     1      33.972 -24.068 -15.349  0.00  0.00    +0.038 C 
ATOM     26  C   UNL     1      31.308 -23.253 -15.508  0.00  0.00    +0.015 C 
ATOM     27  C   UNL     1      33.192 -24.004 -14.194  0.00  0.00    +0.015 C 
ATOM     28  C   UNL     1      31.861 -23.597 -14.273  0.00  0.00    +0.058 C 
ENDBRANCH  21  23
ENDBRANCH  20  21
ENDBRANCH   8  20
TORSDOF 5
ENDMDL
MODEL 8
REMARK VINA RESULT:     -10.8      3.947     10.307
REMARK  Name = 3351
REMARK  5 active torsions:
REMARK  status: ('A' for Active; 'I' for Inactive)
REMARK    1  A    between atoms: N_2  and  C_10
REMARK    2  A    between atoms: C_8  and  C_20
REMARK    3  A    between atoms: C_10  and  C_13
REMARK    4  A    between atoms: C_20  and  O_21
REMARK    5  A    between atoms: O_21  and  C_23
REMARK                            x       y       z     vdW  Elec       q    Type
REMARK                         _______ _______ _______ _____ _____    ______ ____
ROOT
ATOM      1  O   UNL     1      32.430 -13.298 -19.861  0.00  0.00    -0.271 OA
ATOM      2  N   UNL     1      35.265 -16.505 -22.428  0.00  0.00    +0.392 N 
ATOM      3  N   UNL     1      33.789 -14.233 -21.497  0.00  0.00    -0.281 N 
ATOM      4  C   UNL     1      34.634 -16.519 -21.101  0.00  0.00    -0.055 C 
ATOM      5  C   UNL     1      34.472 -15.698 -23.366  0.00  0.00    -0.055 C 
ATOM      6  C   UNL     1      34.495 -15.100 -20.552  0.00  0.00    +0.071 C 
ATOM      7  C   UNL     1      34.322 -14.261 -22.861  0.00  0.00    +0.071 C 
ATOM      8  C   UNL     1      32.784 -13.382 -21.040  0.00  0.00    +0.270 C 
ATOM      9  H   UNL     1      36.190 -16.082 -22.342  0.00  0.00    -0.079 HD
ENDROOT
BRANCH   2  10
ATOM     10  C   UNL     1      35.429 -17.867 -22.934  0.00  0.00    -0.050 C 
BRANCH  10  13
ATOM     11  O   UNL     1      34.123 -21.459 -19.808  0.00  0.00    -0.435 OA
ATOM     12  O   UNL     1      36.320 -21.558 -18.823  0.00  0.00    -0.435 OA
ATOM     13  C   UNL     1      35.705 -18.848 -21.826  0.00  0.00    -0.040 C 
ATOM     14  C   UNL     1      34.683 -19.684 -21.389  0.00  0.00    +0.034 C 
ATOM     15  C   UNL     1      36.984 -18.897 -21.261  0.00  0.00    -0.003 C 
ATOM     16  C   UNL     1      34.983 -20.567 -20.370  0.00  0.00    +0.176 C 
ATOM     17  C   UNL     1      36.238 -20.623 -19.808  0.00  0.00    +0.176 C 
ATOM     18  C   UNL     1      37.261 -19.800 -20.231  0.00  0.00    +0.040 C 
ATOM     19  C   UNL     1      34.977 -22.084 -18.829  0.00  0.00    +0.429 C 
ENDBRANCH  10  13
ENDBRANCH   2  10
BRANCH   8  20
ATOM     20  C   UNL     1      32.102 -12.526 -22.078  0.00  0.00    +0.290 C 
BRANCH  20  21
ATOM     21  O   UNL     1      31.171 -11.727 -21.391  0.00  0.00    -0.466 OA
BRANCH  21  23
ATOM     22 CL   UNL     1      32.278  -5.971 -21.047  0.00  0.00    -0.082 Cl
ATOM     23  C   UNL     1      31.432 -10.378 -21.311  0.00  0.00    +0.139 C 
ATOM     24  C   UNL     1      31.727  -9.814 -20.079  0.00  0.00    +0.038 C 
ATOM     25  C   UNL     1      31.395  -9.607 -22.463  0.00  0.00    +0.038 C 
ATOM     26  C   UNL     1      31.990  -8.446 -19.997  0.00  0.00    +0.015 C 
ATOM     27  C   UNL     1      31.657  -8.239 -22.381  0.00  0.00    +0.015 C 
ATOM     28  C   UNL     1      31.955  -7.658 -21.149  0.00  0.00    +0.058 C 
ENDBRANCH  21  23
ENDBRANCH  20  21
ENDBRANCH   8  20
TORSDOF 5
ENDMDL
MODEL 9
REMARK VINA RESULT:     -10.7      4.285     10.326
REMARK  Name = 3351
REMARK  5 active torsions:
REMARK  status: ('A' for Active; 'I' for Inactive)
REMARK    1  A    between atoms: N_2  and  C_10
REMARK    2  A    between atoms: C_8  and  C_20
REMARK    3  A    between atoms: C_10  and  C_13
REMARK    4  A    between atoms: C_20  and  O_21
REMARK    5  A    between atoms: O_21  and  C_23
REMARK                            x       y       z     vdW  Elec       q    Type
REMARK                         _______ _______ _______ _____ _____    ______ ____
ROOT
ATOM      1  O   UNL     1      33.334 -13.486 -25.398  0.00  0.00    -0.271 OA
ATOM      2  N   UNL     1      34.879 -17.441 -22.774  0.00  0.00    +0.392 N 
ATOM      3  N   UNL     1      33.832 -14.918 -23.638  0.00  0.00    -0.281 N 
ATOM      4  C   UNL     1      34.717 -17.152 -24.206  0.00  0.00    -0.055 C 
ATOM      5  C   UNL     1      35.196 -16.212 -22.033  0.00  0.00    -0.055 C 
ATOM      6  C   UNL     1      33.606 -16.127 -24.429  0.00  0.00    +0.071 C 
ATOM      7  C   UNL     1      34.097 -15.162 -22.217  0.00  0.00    +0.071 C 
ATOM      8  C   UNL     1      33.668 -13.664 -24.223  0.00  0.00    +0.270 C 
ATOM      9  H   UNL     1      33.997 -17.814 -22.419  0.00  0.00    -0.079 HD
ENDROOT
BRANCH   2  10
ATOM     10  C   UNL     1      35.919 -18.448 -22.567  0.00  0.00    -0.050 C 
BRANCH  10  13
ATOM     11  O   UNL     1      32.671 -21.103 -19.963  0.00  0.00    -0.435 OA
ATOM     12  O   UNL     1      34.394 -22.071 -18.583  0.00  0.00    -0.435 OA
ATOM     13  C   UNL     1      35.545 -19.427 -21.486  0.00  0.00    -0.040 C 
ATOM     14  C   UNL     1      34.207 -19.757 -21.301  0.00  0.00    +0.034 C 
ATOM     15  C   UNL     1      36.554 -19.982 -20.690  0.00  0.00    -0.003 C 
ATOM     16  C   UNL     1      33.913 -20.658 -20.298  0.00  0.00    +0.176 C 
ATOM     17  C   UNL     1      34.897 -21.211 -19.510  0.00  0.00    +0.176 C 
ATOM     18  C   UNL     1      36.228 -20.893 -19.681  0.00  0.00    +0.040 C 
ATOM     19  C   UNL     1      32.983 -21.999 -18.877  0.00  0.00    +0.429 C 
ENDBRANCH  10  13
ENDBRANCH   2  10
BRANCH   8  20
ATOM     20  C   UNL     1      33.926 -12.468 -23.341  0.00  0.00    +0.290 C 
BRANCH  20  21
ATOM     21  O   UNL     1      32.679 -11.858 -23.116  0.00  0.00    -0.466 OA
BRANCH  21  23
ATOM     22 CL   UNL     1      32.596  -6.011 -22.578  0.00  0.00    -0.082 Cl
ATOM     23  C   UNL     1      32.660 -10.487 -22.992  0.00  0.00    +0.139 C 
ATOM     24  C   UNL     1      33.812  -9.762 -23.256  0.00  0.00    +0.038 C 
ATOM     25  C   UNL     1      31.488  -9.854 -22.603  0.00  0.00    +0.038 C 
ATOM     26  C   UNL     1      33.793  -8.373 -23.127  0.00  0.00    +0.015 C 
ATOM     27  C   UNL     1      31.469  -8.465 -22.475  0.00  0.00    +0.015 C 
ATOM     28  C   UNL     1      32.620  -7.724 -22.737  0.00  0.00    +0.058 C 
ENDBRANCH  21  23
ENDBRANCH  20  21
ENDBRANCH   8  20
TORSDOF 5
ENDMDL
