MODEL 1
REMARK VINA RESULT:     -12.2      0.000      0.000
REMARK  Name = 11224409
REMARK  8 active torsions:
REMARK  status: ('A' for Active; 'I' for Inactive)
REMARK    1  A    between atoms: C_2  and  N_10
REMARK    2  A    between atoms: C_5  and  C_20
REMARK    3  A    between atoms: C_11  and  C_14
REMARK    4  A    between atoms: C_14  and  N_16
REMARK    5  A    between atoms: C_21  and  C_26
REMARK    6  A    between atoms: C_26  and  N_27
REMARK    7  A    between atoms: N_27  and  C_30
REMARK    8  A    between atoms: C_30  and  C_34
REMARK                            x       y       z     vdW  Elec       q    Type
REMARK                         _______ _______ _______ _____ _____    ______ ____
ROOT
ATOM      1  F   UNL     1      33.199 -22.821 -18.197  0.00  0.00    -0.204 F 
ATOM      2  C   UNL     1      35.768 -23.579 -15.740  0.00  0.00    +0.059 C 
ATOM      3  C   UNL     1      34.544 -23.578 -16.411  0.00  0.00    +0.045 C 
ATOM      4  C   UNL     1      36.828 -22.813 -16.224  0.00  0.00    +0.015 C 
ATOM      5  C   UNL     1      35.442 -22.045 -18.047  0.00  0.00    +0.028 C 
ATOM      6  C   UNL     1      34.382 -22.811 -17.564  0.00  0.00    +0.141 C 
ATOM      7  C   UNL     1      36.666 -22.045 -17.378  0.00  0.00    +0.004 C 
ENDROOT
BRANCH   2  10
ATOM      8  O   UNL     1      36.234 -26.103 -13.157  0.00  0.00    -0.434 OA
ATOM      9  O   UNL     1      36.164 -26.573 -15.375  0.00  0.00    -0.226 OA
ATOM     10  N   UNL     1      35.934 -24.362 -14.563  0.00  0.00    -0.221 N 
ATOM     11  C   UNL     1      36.354 -24.920 -12.356  0.00  0.00    +0.210 C 
ATOM     12  C   UNL     1      35.817 -23.813 -13.239  0.00  0.00    +0.147 C 
ATOM     13  C   UNL     1      36.122 -25.740 -14.481  0.00  0.00    +0.409 C 
BRANCH  11  14
ATOM     14  C   UNL     1      37.816 -24.729 -11.977  0.00  0.00    +0.135 C 
BRANCH  14  16
ATOM     15  O   UNL     1      39.366 -24.379 -14.408  0.00  0.00    -0.275 OA
ATOM     16  N   UNL     1      38.650 -25.698 -12.626  0.00  0.00    -0.301 N 
ATOM     17  C   UNL     1      39.361 -25.443 -13.794  0.00  0.00    +0.223 C 
ATOM     18  C   UNL     1      40.175 -26.626 -14.246  0.00  0.00    +0.095 C 
ATOM     19  H   UNL     1      38.723 -26.594 -12.222  0.00  0.00    +0.150 HD
ENDBRANCH  14  16
ENDBRANCH  11  14
ENDBRANCH   2  10
BRANCH   5  20
ATOM     20  C   UNL     1      35.277 -21.247 -19.243  0.00  0.00    +0.002 C 
ATOM     21  C   UNL     1      34.961 -19.710 -21.550  0.00  0.00    -0.044 C 
ATOM     22  C   UNL     1      36.392 -20.687 -19.867  0.00  0.00    -0.000 C 
ATOM     23  C   UNL     1      34.004 -21.038 -19.774  0.00  0.00    -0.000 C 
ATOM     24  C   UNL     1      36.234 -19.919 -21.021  0.00  0.00    -0.006 C 
ATOM     25  C   UNL     1      33.845 -20.270 -20.926  0.00  0.00    -0.006 C 
BRANCH  21  26
ATOM     26  C   UNL     1      34.792 -18.890 -22.784  0.00  0.00    -0.054 C 
BRANCH  26  27
ATOM     27  N   UNL     1      35.708 -17.748 -22.825  0.00  0.00    +0.390 N 
ATOM     28  H   UNL     1      36.063 -17.637 -23.774  0.00  0.00    -0.083 HD
ATOM     29  H   UNL     1      36.476 -17.921 -22.177  0.00  0.00    -0.083 HD
BRANCH  27  30
ATOM     30  C   UNL     1      35.025 -16.528 -22.425  0.00  0.00    -0.031 C 
BRANCH  30  34
ATOM     31  N   UNL     1      33.579 -14.776 -23.407  0.00  0.00    -0.170 NA
ATOM     32  N   UNL     1      33.134 -14.566 -24.656  0.00  0.00    -0.157 N 
ATOM     33  N   UNL     1      33.497 -15.428 -25.620  0.00  0.00    -0.162 NA
ATOM     34  C   UNL     1      34.304 -15.885 -23.581  0.00  0.00    +0.077 C 
ATOM     35  C   UNL     1      34.253 -16.281 -24.924  0.00  0.00    +0.133 C 
ATOM     36  H   UNL     1      32.553 -13.797 -24.861  0.00  0.00    +0.197 HD
ENDBRANCH  30  34
ENDBRANCH  27  30
ENDBRANCH  26  27
ENDBRANCH  21  26
ENDBRANCH   5  20
TORSDOF 8
ENDMDL
MODEL 2
REMARK VINA RESULT:     -12.1      2.702      4.434
REMARK  Name = 11224409
REMARK  8 active torsions:
REMARK  status: ('A' for Active; 'I' for Inactive)
REMARK    1  A    between atoms: C_2  and  N_10
REMARK    2  A    between atoms: C_5  and  C_20
REMARK    3  A    between atoms: C_11  and  C_14
REMARK    4  A    between atoms: C_14  and  N_16
REMARK    5  A    between atoms: C_21  and  C_26
REMARK    6  A    between atoms: C_26  and  N_27
REMARK    7  A    between atoms: N_27  and  C_30
REMARK    8  A    between atoms: C_30  and  C_34
REMARK                            x       y       z     vdW  Elec       q    Type
REMARK                         _______ _______ _______ _____ _____    ______ ____
ROOT
ATOM      1  F   UNL     1      32.462 -20.451 -20.450  0.00  0.00    -0.204 F 
ATOM      2  C   UNL     1      34.874 -22.097 -18.286  0.00  0.00    +0.059 C 
ATOM      3  C   UNL     1      33.658 -21.717 -18.857  0.00  0.00    +0.045 C 
ATOM      4  C   UNL     1      36.069 -21.566 -18.774  0.00  0.00    +0.015 C 
ATOM      5  C   UNL     1      34.832 -20.276 -20.400  0.00  0.00    +0.028 C 
ATOM      6  C   UNL     1      33.638 -20.806 -19.913  0.00  0.00    +0.141 C 
ATOM      7  C   UNL     1      36.048 -20.656 -19.832  0.00  0.00    +0.004 C 
ENDROOT
BRANCH   2  10
ATOM      8  O   UNL     1      35.530 -24.202 -15.389  0.00  0.00    -0.434 OA
ATOM      9  O   UNL     1      36.970 -22.620 -16.145  0.00  0.00    -0.226 OA
ATOM     10  N   UNL     1      34.895 -23.025 -17.208  0.00  0.00    -0.221 N 
ATOM     11  C   UNL     1      34.160 -24.549 -15.628  0.00  0.00    +0.210 C 
ATOM     12  C   UNL     1      33.877 -24.024 -17.020  0.00  0.00    +0.147 C 
ATOM     13  C   UNL     1      35.897 -23.197 -16.256  0.00  0.00    +0.409 C 
BRANCH  11  14
ATOM     14  C   UNL     1      33.295 -23.903 -14.555  0.00  0.00    +0.135 C 
BRANCH  14  16
ATOM     15  O   UNL     1      31.757 -25.491 -12.672  0.00  0.00    -0.275 OA
ATOM     16  N   UNL     1      31.927 -24.313 -14.675  0.00  0.00    -0.301 N 
ATOM     17  C   UNL     1      31.266 -25.078 -13.720  0.00  0.00    +0.223 C 
ATOM     18  C   UNL     1      29.830 -25.345 -14.084  0.00  0.00    +0.095 C 
ATOM     19  H   UNL     1      31.428 -24.039 -15.479  0.00  0.00    +0.150 HD
ENDBRANCH  14  16
ENDBRANCH  11  14
ENDBRANCH   2  10
BRANCH   5  20
ATOM     20  C   UNL     1      34.816 -19.332 -21.497  0.00  0.00    +0.002 C 
ATOM     21  C   UNL     1      34.782 -17.510 -23.609  0.00  0.00    -0.044 C 
ATOM     22  C   UNL     1      34.315 -19.716 -22.740  0.00  0.00    -0.000 C 
ATOM     23  C   UNL     1      35.299 -18.036 -21.309  0.00  0.00    -0.000 C 
ATOM     24  C   UNL     1      34.298 -18.805 -23.797  0.00  0.00    -0.006 C 
ATOM     25  C   UNL     1      35.283 -17.126 -22.365  0.00  0.00    -0.006 C 
BRANCH  21  26
ATOM     26  C   UNL     1      34.762 -16.536 -24.738  0.00  0.00    -0.054 C 
BRANCH  26  27
ATOM     27  N   UNL     1      33.625 -15.617 -24.663  0.00  0.00    +0.390 N 
ATOM     28  H   UNL     1      32.914 -16.013 -24.049  0.00  0.00    -0.083 HD
ATOM     29  H   UNL     1      33.248 -15.485 -25.601  0.00  0.00    -0.083 HD
BRANCH  27  30
ATOM     30  C   UNL     1      34.042 -14.326 -24.141  0.00  0.00    -0.031 C 
BRANCH  30  34
ATOM     31  N   UNL     1      32.185 -13.146 -23.007  0.00  0.00    -0.170 NA
ATOM     32  N   UNL     1      31.816 -13.068 -21.719  0.00  0.00    -0.157 N 
ATOM     33  N   UNL     1      32.543 -13.728 -20.802  0.00  0.00    -0.162 NA
ATOM     34  C   UNL     1      33.258 -13.938 -22.915  0.00  0.00    +0.077 C 
ATOM     35  C   UNL     1      33.476 -14.290 -21.576  0.00  0.00    +0.133 C 
ATOM     36  H   UNL     1      31.031 -12.537 -21.451  0.00  0.00    +0.197 HD
ENDBRANCH  30  34
ENDBRANCH  27  30
ENDBRANCH  26  27
ENDBRANCH  21  26
ENDBRANCH   5  20
TORSDOF 8
ENDMDL
MODEL 3
REMARK VINA RESULT:     -11.9      8.338     14.473
REMARK  Name = 11224409
REMARK  8 active torsions:
REMARK  status: ('A' for Active; 'I' for Inactive)
REMARK    1  A    between atoms: C_2  and  N_10
REMARK    2  A    between atoms: C_5  and  C_20
REMARK    3  A    between atoms: C_11  and  C_14
REMARK    4  A    between atoms: C_14  and  N_16
REMARK    5  A    between atoms: C_21  and  C_26
REMARK    6  A    between atoms: C_26  and  N_27
REMARK    7  A    between atoms: N_27  and  C_30
REMARK    8  A    between atoms: C_30  and  C_34
REMARK                            x       y       z     vdW  Elec       q    Type
REMARK                         _______ _______ _______ _____ _____    ______ ____
ROOT
ATOM      1  F   UNL     1      31.504 -13.097 -21.244  0.00  0.00    -0.204 F 
ATOM      2  C   UNL     1      32.251  -9.668 -22.191  0.00  0.00    +0.059 C 
ATOM      3  C   UNL     1      31.664 -10.762 -21.552  0.00  0.00    +0.045 C 
ATOM      4  C   UNL     1      33.250  -9.871 -23.142  0.00  0.00    +0.015 C 
ATOM      5  C   UNL     1      33.077 -12.259 -22.817  0.00  0.00    +0.028 C 
ATOM      6  C   UNL     1      32.077 -12.057 -21.866  0.00  0.00    +0.141 C 
ATOM      7  C   UNL     1      33.664 -11.166 -23.456  0.00  0.00    +0.004 C 
ENDROOT
BRANCH   2  10
ATOM      8  O   UNL     1      31.391  -6.436 -20.752  0.00  0.00    -0.434 OA
ATOM      9  O   UNL     1      32.344  -8.123 -19.572  0.00  0.00    -0.226 OA
ATOM     10  N   UNL     1      31.829  -8.347 -21.871  0.00  0.00    -0.221 N 
ATOM     11  C   UNL     1      31.161  -6.147 -22.137  0.00  0.00    +0.210 C 
ATOM     12  C   UNL     1      31.128  -7.506 -22.803  0.00  0.00    +0.147 C 
ATOM     13  C   UNL     1      31.916  -7.704 -20.639  0.00  0.00    +0.409 C 
BRANCH  11  14
ATOM     14  C   UNL     1      32.286  -5.256 -22.647  0.00  0.00    +0.135 C 
BRANCH  14  16
ATOM     15  O   UNL     1      34.815  -6.594 -23.143  0.00  0.00    -0.275 OA
ATOM     16  N   UNL     1      32.790  -5.726 -23.903  0.00  0.00    -0.301 N 
ATOM     17  C   UNL     1      34.020  -6.360 -24.050  0.00  0.00    +0.223 C 
ATOM     18  C   UNL     1      34.293  -6.773 -25.472  0.00  0.00    +0.095 C 
ATOM     19  H   UNL     1      32.236  -5.593 -24.706  0.00  0.00    +0.150 HD
ENDBRANCH  14  16
ENDBRANCH  11  14
ENDBRANCH   2  10
BRANCH   5  20
ATOM     20  C   UNL     1      33.508 -13.600 -23.146  0.00  0.00    +0.002 C 
ATOM     21  C   UNL     1      34.342 -16.185 -23.781  0.00  0.00    -0.044 C 
ATOM     22  C   UNL     1      33.122 -14.181 -24.354  0.00  0.00    -0.000 C 
ATOM     23  C   UNL     1      34.312 -14.313 -22.255  0.00  0.00    -0.000 C 
ATOM     24  C   UNL     1      33.540 -15.473 -24.672  0.00  0.00    -0.006 C 
ATOM     25  C   UNL     1      34.728 -15.605 -22.572  0.00  0.00    -0.006 C 
BRANCH  21  26
ATOM     26  C   UNL     1      34.789 -17.567 -24.121  0.00  0.00    -0.054 C 
BRANCH  26  27
ATOM     27  N   UNL     1      35.564 -18.184 -23.044  0.00  0.00    +0.390 N 
ATOM     28  H   UNL     1      35.814 -17.470 -22.359  0.00  0.00    -0.083 HD
ATOM     29  H   UNL     1      36.405 -18.602 -23.442  0.00  0.00    -0.083 HD
BRANCH  27  30
ATOM     30  C   UNL     1      34.792 -19.226 -22.386  0.00  0.00    -0.031 C 
BRANCH  30  34
ATOM     31  N   UNL     1      36.614 -19.183 -20.712  0.00  0.00    -0.170 NA
ATOM     32  N   UNL     1      36.867 -19.937 -19.631  0.00  0.00    -0.157 N 
ATOM     33  N   UNL     1      36.015 -20.931 -19.329  0.00  0.00    -0.162 NA
ATOM     34  C   UNL     1      35.484 -19.744 -21.153  0.00  0.00    +0.077 C 
ATOM     35  C   UNL     1      35.121 -20.806 -20.313  0.00  0.00    +0.133 C 
ATOM     36  H   UNL     1      37.659 -19.766 -19.072  0.00  0.00    +0.197 HD
ENDBRANCH  30  34
ENDBRANCH  27  30
ENDBRANCH  26  27
ENDBRANCH  21  26
ENDBRANCH   5  20
TORSDOF 8
ENDMDL
MODEL 4
REMARK VINA RESULT:     -11.8      4.469     11.385
REMARK  Name = 11224409
REMARK  8 active torsions:
REMARK  status: ('A' for Active; 'I' for Inactive)
REMARK    1  A    between atoms: C_2  and  N_10
REMARK    2  A    between atoms: C_5  and  C_20
REMARK    3  A    between atoms: C_11  and  C_14
REMARK    4  A    between atoms: C_14  and  N_16
REMARK    5  A    between atoms: C_21  and  C_26
REMARK    6  A    between atoms: C_26  and  N_27
REMARK    7  A    between atoms: N_27  and  C_30
REMARK    8  A    between atoms: C_30  and  C_34
REMARK                            x       y       z     vdW  Elec       q    Type
REMARK                         _______ _______ _______ _____ _____    ______ ____
ROOT
ATOM      1  F   UNL     1      32.704 -21.137 -19.982  0.00  0.00    -0.204 F 
ATOM      2  C   UNL     1      34.919 -19.037 -21.956  0.00  0.00    +0.059 C 
ATOM      3  C   UNL     1      33.762 -19.671 -21.501  0.00  0.00    +0.045 C 
ATOM      4  C   UNL     1      36.137 -19.267 -21.317  0.00  0.00    +0.015 C 
ATOM      5  C   UNL     1      35.043 -20.765 -19.769  0.00  0.00    +0.028 C 
ATOM      6  C   UNL     1      33.825 -20.535 -20.408  0.00  0.00    +0.141 C 
ATOM      7  C   UNL     1      36.200 -20.131 -20.223  0.00  0.00    +0.004 C 
ENDROOT
BRANCH   2  10
ATOM      8  O   UNL     1      34.429 -17.290 -25.113  0.00  0.00    -0.434 OA
ATOM      9  O   UNL     1      33.710 -19.406 -24.723  0.00  0.00    -0.226 OA
ATOM     10  N   UNL     1      34.855 -18.156 -23.072  0.00  0.00    -0.221 N 
ATOM     11  C   UNL     1      34.927 -16.206 -24.317  0.00  0.00    +0.210 C 
ATOM     12  C   UNL     1      35.513 -16.877 -23.093  0.00  0.00    +0.147 C 
ATOM     13  C   UNL     1      34.269 -18.399 -24.312  0.00  0.00    +0.409 C 
BRANCH  11  14
ATOM     14  C   UNL     1      33.774 -15.266 -23.992  0.00  0.00    +0.135 C 
BRANCH  14  16
ATOM     15  O   UNL     1      32.219 -13.186 -22.693  0.00  0.00    -0.275 OA
ATOM     16  N   UNL     1      33.749 -14.940 -22.596  0.00  0.00    -0.301 N 
ATOM     17  C   UNL     1      32.970 -13.922 -22.058  0.00  0.00    +0.223 C 
ATOM     18  C   UNL     1      33.114 -13.810 -20.563  0.00  0.00    +0.095 C 
ATOM     19  H   UNL     1      34.316 -15.466 -21.986  0.00  0.00    +0.150 HD
ENDBRANCH  14  16
ENDBRANCH  11  14
ENDBRANCH   2  10
BRANCH   5  20
ATOM     20  C   UNL     1      35.113 -21.661 -18.635  0.00  0.00    +0.002 C 
ATOM     21  C   UNL     1      35.247 -23.389 -16.450  0.00  0.00    -0.044 C 
ATOM     22  C   UNL     1      34.004 -22.432 -18.286  0.00  0.00    -0.000 C 
ATOM     23  C   UNL     1      36.289 -21.755 -17.891  0.00  0.00    -0.000 C 
ATOM     24  C   UNL     1      34.071 -23.297 -17.194  0.00  0.00    -0.006 C 
ATOM     25  C   UNL     1      36.357 -22.618 -16.798  0.00  0.00    -0.006 C 
BRANCH  21  26
ATOM     26  C   UNL     1      35.319 -24.315 -15.282  0.00  0.00    -0.054 C 
BRANCH  26  27
ATOM     27  N   UNL     1      36.664 -24.384 -14.706  0.00  0.00    +0.390 N 
ATOM     28  H   UNL     1      36.653 -23.961 -13.778  0.00  0.00    -0.083 HD
ATOM     29  H   UNL     1      37.308 -23.881 -15.316  0.00  0.00    -0.083 HD
BRANCH  27  30
ATOM     30  C   UNL     1      37.105 -25.765 -14.596  0.00  0.00    -0.031 C 
BRANCH  30  34
ATOM     31  N   UNL     1      39.189 -27.044 -14.218  0.00  0.00    -0.170 NA
ATOM     32  N   UNL     1      40.476 -26.672 -14.133  0.00  0.00    -0.157 N 
ATOM     33  N   UNL     1      40.777 -25.370 -14.266  0.00  0.00    -0.162 NA
ATOM     34  C   UNL     1      38.598 -25.865 -14.430  0.00  0.00    +0.077 C 
ATOM     35  C   UNL     1      39.563 -24.848 -14.458  0.00  0.00    +0.133 C 
ATOM     36  H   UNL     1      41.183 -27.339 -13.975  0.00  0.00    +0.197 HD
ENDBRANCH  30  34
ENDBRANCH  27  30
ENDBRANCH  26  27
ENDBRANCH  21  26
ENDBRANCH   5  20
TORSDOF 8
ENDMDL
MODEL 5
REMARK VINA RESULT:     -11.8      4.562     11.486
REMARK  Name = 11224409
REMARK  8 active torsions:
REMARK  status: ('A' for Active; 'I' for Inactive)
REMARK    1  A    between atoms: C_2  and  N_10
REMARK    2  A    between atoms: C_5  and  C_20
REMARK    3  A    between atoms: C_11  and  C_14
REMARK    4  A    between atoms: C_14  and  N_16
REMARK    5  A    between atoms: C_21  and  C_26
REMARK    6  A    between atoms: C_26  and  N_27
REMARK    7  A    between atoms: N_27  and  C_30
REMARK    8  A    between atoms: C_30  and  C_34
REMARK                            x       y       z     vdW  Elec       q    Type
REMARK                         _______ _______ _______ _____ _____    ______ ____
ROOT
ATOM      1  F   UNL     1      37.000 -21.127 -19.761  0.00  0.00    -0.204 F 
ATOM      2  C   UNL     1      34.625 -19.413 -21.914  0.00  0.00    +0.059 C 
ATOM      3  C   UNL     1      35.832 -19.867 -21.380  0.00  0.00    +0.045 C 
ATOM      4  C   UNL     1      33.418 -19.794 -21.328  0.00  0.00    +0.015 C 
ATOM      5  C   UNL     1      34.624 -21.080 -19.676  0.00  0.00    +0.028 C 
ATOM      6  C   UNL     1      35.831 -20.699 -20.261  0.00  0.00    +0.141 C 
ATOM      7  C   UNL     1      33.416 -20.628 -20.209  0.00  0.00    +0.004 C 
ENDROOT
BRANCH   2  10
ATOM      8  O   UNL     1      34.235 -17.713 -25.110  0.00  0.00    -0.434 OA
ATOM      9  O   UNL     1      33.288 -19.718 -24.629  0.00  0.00    -0.226 OA
ATOM     10  N   UNL     1      34.626 -18.563 -23.056  0.00  0.00    -0.221 N 
ATOM     11  C   UNL     1      34.882 -16.672 -24.366  0.00  0.00    +0.210 C 
ATOM     12  C   UNL     1      35.427 -17.372 -23.139  0.00  0.00    +0.147 C 
ATOM     13  C   UNL     1      33.974 -18.772 -24.269  0.00  0.00    +0.409 C 
BRANCH  11  14
ATOM     14  C   UNL     1      33.858 -15.595 -24.037  0.00  0.00    +0.135 C 
BRANCH  14  16
ATOM     15  O   UNL     1      32.492 -13.377 -22.752  0.00  0.00    -0.275 OA
ATOM     16  N   UNL     1      33.957 -15.187 -22.666  0.00  0.00    -0.301 N 
ATOM     17  C   UNL     1      33.263 -14.106 -22.133  0.00  0.00    +0.223 C 
ATOM     18  C   UNL     1      33.530 -13.914 -20.664  0.00  0.00    +0.095 C 
ATOM     19  H   UNL     1      34.550 -15.700 -22.070  0.00  0.00    +0.150 HD
ENDBRANCH  14  16
ENDBRANCH  11  14
ENDBRANCH   2  10
BRANCH   5  20
ATOM     20  C   UNL     1      34.618 -21.943 -18.515  0.00  0.00    +0.002 C 
ATOM     21  C   UNL     1      34.608 -23.610 -16.279  0.00  0.00    -0.044 C 
ATOM     22  C   UNL     1      33.500 -22.728 -18.235  0.00  0.00    -0.000 C 
ATOM     23  C   UNL     1      35.732 -21.992 -17.676  0.00  0.00    -0.000 C 
ATOM     24  C   UNL     1      33.495 -23.562 -17.117  0.00  0.00    -0.006 C 
ATOM     25  C   UNL     1      35.727 -22.825 -16.558  0.00  0.00    -0.006 C 
BRANCH  21  26
ATOM     26  C   UNL     1      34.602 -24.502 -15.083  0.00  0.00    -0.054 C 
BRANCH  26  27
ATOM     27  N   UNL     1      34.708 -23.755 -13.829  0.00  0.00    +0.390 N 
ATOM     28  H   UNL     1      33.936 -23.092 -13.768  0.00  0.00    -0.083 HD
ATOM     29  H   UNL     1      35.600 -23.262 -13.815  0.00  0.00    -0.083 HD
BRANCH  27  30
ATOM     30  C   UNL     1      34.655 -24.656 -12.688  0.00  0.00    -0.031 C 
BRANCH  30  34
ATOM     31  N   UNL     1      35.518 -24.756 -10.371  0.00  0.00    -0.170 NA
ATOM     32  N   UNL     1      36.531 -24.126  -9.756  0.00  0.00    -0.157 N 
ATOM     33  N   UNL     1      37.270 -23.256 -10.464  0.00  0.00    -0.162 NA
ATOM     34  C   UNL     1      35.611 -24.242 -11.601  0.00  0.00    +0.077 C 
ATOM     35  C   UNL     1      36.675 -23.331 -11.657  0.00  0.00    +0.133 C 
ATOM     36  H   UNL     1      36.728 -24.298  -8.806  0.00  0.00    +0.197 HD
ENDBRANCH  30  34
ENDBRANCH  27  30
ENDBRANCH  26  27
ENDBRANCH  21  26
ENDBRANCH   5  20
TORSDOF 8
ENDMDL
MODEL 6
REMARK VINA RESULT:     -11.8      4.546     11.465
REMARK  Name = 11224409
REMARK  8 active torsions:
REMARK  status: ('A' for Active; 'I' for Inactive)
REMARK    1  A    between atoms: C_2  and  N_10
REMARK    2  A    between atoms: C_5  and  C_20
REMARK    3  A    between atoms: C_11  and  C_14
REMARK    4  A    between atoms: C_14  and  N_16
REMARK    5  A    between atoms: C_21  and  C_26
REMARK    6  A    between atoms: C_26  and  N_27
REMARK    7  A    between atoms: N_27  and  C_30
REMARK    8  A    between atoms: C_30  and  C_34
REMARK                            x       y       z     vdW  Elec       q    Type
REMARK                         _______ _______ _______ _____ _____    ______ ____
ROOT
ATOM      1  F   UNL     1      32.713 -21.111 -19.866  0.00  0.00    -0.204 F 
ATOM      2  C   UNL     1      34.922 -19.120 -21.955  0.00  0.00    +0.059 C 
ATOM      3  C   UNL     1      33.763 -19.709 -21.449  0.00  0.00    +0.045 C 
ATOM      4  C   UNL     1      36.153 -19.374 -21.351  0.00  0.00    +0.015 C 
ATOM      5  C   UNL     1      35.067 -20.806 -19.737  0.00  0.00    +0.028 C 
ATOM      6  C   UNL     1      33.836 -20.553 -20.340  0.00  0.00    +0.141 C 
ATOM      7  C   UNL     1      36.227 -20.217 -20.242  0.00  0.00    +0.004 C 
ENDROOT
BRANCH   2  10
ATOM      8  O   UNL     1      34.388 -17.427 -25.134  0.00  0.00    -0.434 OA
ATOM      9  O   UNL     1      33.640 -19.521 -24.684  0.00  0.00    -0.226 OA
ATOM     10  N   UNL     1      34.847 -18.260 -23.086  0.00  0.00    -0.221 N 
ATOM     11  C   UNL     1      34.924 -16.337 -24.373  0.00  0.00    +0.210 C 
ATOM     12  C   UNL     1      35.528 -16.994 -23.150  0.00  0.00    +0.147 C 
ATOM     13  C   UNL     1      34.227 -18.516 -24.307  0.00  0.00    +0.409 C 
BRANCH  11  14
ATOM     14  C   UNL     1      33.797 -15.369 -24.039  0.00  0.00    +0.135 C 
BRANCH  14  16
ATOM     15  O   UNL     1      32.274 -13.270 -22.734  0.00  0.00    -0.275 OA
ATOM     16  N   UNL     1      33.806 -15.023 -22.648  0.00  0.00    -0.301 N 
ATOM     17  C   UNL     1      33.040 -13.996 -22.106  0.00  0.00    +0.223 C 
ATOM     18  C   UNL     1      33.220 -13.864 -20.618  0.00  0.00    +0.095 C 
ATOM     19  H   UNL     1      34.386 -15.541 -22.044  0.00  0.00    +0.150 HD
ENDBRANCH  14  16
ENDBRANCH  11  14
ENDBRANCH   2  10
BRANCH   5  20
ATOM     20  C   UNL     1      35.148 -21.681 -18.587  0.00  0.00    +0.002 C 
ATOM     21  C   UNL     1      35.302 -23.364 -16.368  0.00  0.00    -0.044 C 
ATOM     22  C   UNL     1      36.304 -21.704 -17.808  0.00  0.00    -0.000 C 
ATOM     23  C   UNL     1      34.068 -22.500 -18.256  0.00  0.00    -0.000 C 
ATOM     24  C   UNL     1      36.382 -22.545 -16.698  0.00  0.00    -0.006 C 
ATOM     25  C   UNL     1      34.145 -23.342 -17.147  0.00  0.00    -0.006 C 
BRANCH  21  26
ATOM     26  C   UNL     1      35.385 -24.264 -15.181  0.00  0.00    -0.054 C 
BRANCH  26  27
ATOM     27  N   UNL     1      35.392 -23.522 -13.919  0.00  0.00    +0.390 N 
ATOM     28  H   UNL     1      34.623 -23.849 -13.334  0.00  0.00    -0.083 HD
ATOM     29  H   UNL     1      35.285 -22.529 -14.121  0.00  0.00    -0.083 HD
BRANCH  27  30
ATOM     30  C   UNL     1      36.647 -23.723 -13.212  0.00  0.00    -0.031 C 
BRANCH  30  34
ATOM     31  N   UNL     1      37.103 -23.188 -10.839  0.00  0.00    -0.170 NA
ATOM     32  N   UNL     1      36.616 -23.683  -9.691  0.00  0.00    -0.157 N 
ATOM     33  N   UNL     1      35.701 -24.664  -9.753  0.00  0.00    -0.162 NA
ATOM     34  C   UNL     1      36.434 -23.920 -11.735  0.00  0.00    +0.077 C 
ATOM     35  C   UNL     1      35.583 -24.817 -11.075  0.00  0.00    +0.133 C 
ATOM     36  H   UNL     1      36.924 -23.336  -8.822  0.00  0.00    +0.197 HD
ENDBRANCH  30  34
ENDBRANCH  27  30
ENDBRANCH  26  27
ENDBRANCH  21  26
ENDBRANCH   5  20
TORSDOF 8
ENDMDL
MODEL 7
REMARK VINA RESULT:     -11.8      4.412     11.260
REMARK  Name = 11224409
REMARK  8 active torsions:
REMARK  status: ('A' for Active; 'I' for Inactive)
REMARK    1  A    between atoms: C_2  and  N_10
REMARK    2  A    between atoms: C_5  and  C_20
REMARK    3  A    between atoms: C_11  and  C_14
REMARK    4  A    between atoms: C_14  and  N_16
REMARK    5  A    between atoms: C_21  and  C_26
REMARK    6  A    between atoms: C_26  and  N_27
REMARK    7  A    between atoms: N_27  and  C_30
REMARK    8  A    between atoms: C_30  and  C_34
REMARK                            x       y       z     vdW  Elec       q    Type
REMARK                         _______ _______ _______ _____ _____    ______ ____
ROOT
ATOM      1  F   UNL     1      36.972 -21.251 -19.599  0.00  0.00    -0.204 F 
ATOM      2  C   UNL     1      34.664 -19.464 -21.765  0.00  0.00    +0.059 C 
ATOM      3  C   UNL     1      35.854 -19.946 -21.218  0.00  0.00    +0.045 C 
ATOM      4  C   UNL     1      33.441 -19.835 -21.207  0.00  0.00    +0.015 C 
ATOM      5  C   UNL     1      34.596 -21.166 -19.556  0.00  0.00    +0.028 C 
ATOM      6  C   UNL     1      35.820 -20.796 -20.113  0.00  0.00    +0.141 C 
ATOM      7  C   UNL     1      33.406 -20.686 -20.103  0.00  0.00    +0.004 C 
ENDROOT
BRANCH   2  10
ATOM      8  O   UNL     1      34.404 -17.730 -24.956  0.00  0.00    -0.434 OA
ATOM      9  O   UNL     1      33.523 -19.784 -24.567  0.00  0.00    -0.226 OA
ATOM     10  N   UNL     1      34.700 -18.596 -22.893  0.00  0.00    -0.221 N 
ATOM     11  C   UNL     1      34.951 -16.673 -24.157  0.00  0.00    +0.210 C 
ATOM     12  C   UNL     1      35.448 -17.367 -22.907  0.00  0.00    +0.147 C 
ATOM     13  C   UNL     1      34.139 -18.814 -24.149  0.00  0.00    +0.409 C 
BRANCH  11  14
ATOM     14  C   UNL     1      33.858 -15.650 -23.881  0.00  0.00    +0.135 C 
BRANCH  14  16
ATOM     15  O   UNL     1      32.427 -13.400 -22.732  0.00  0.00    -0.275 OA
ATOM     16  N   UNL     1      33.919 -15.177 -22.530  0.00  0.00    -0.301 N 
ATOM     17  C   UNL     1      33.195 -14.085 -22.063  0.00  0.00    +0.223 C 
ATOM     18  C   UNL     1      33.427 -13.820 -20.599  0.00  0.00    +0.095 C 
ATOM     19  H   UNL     1      34.507 -15.651 -21.897  0.00  0.00    +0.150 HD
ENDBRANCH  14  16
ENDBRANCH  11  14
ENDBRANCH   2  10
BRANCH   5  20
ATOM     20  C   UNL     1      34.555 -22.048 -18.409  0.00  0.00    +0.002 C 
ATOM     21  C   UNL     1      34.476 -23.747 -16.198  0.00  0.00    -0.044 C 
ATOM     22  C   UNL     1      35.650 -22.125 -17.549  0.00  0.00    -0.000 C 
ATOM     23  C   UNL     1      33.420 -22.822 -18.163  0.00  0.00    -0.000 C 
ATOM     24  C   UNL     1      35.611 -22.974 -16.443  0.00  0.00    -0.006 C 
ATOM     25  C   UNL     1      33.381 -23.672 -17.059  0.00  0.00    -0.006 C 
BRANCH  21  26
ATOM     26  C   UNL     1      34.434 -24.655 -15.015  0.00  0.00    -0.054 C 
BRANCH  26  27
ATOM     27  N   UNL     1      35.730 -24.753 -14.341  0.00  0.00    +0.390 N 
ATOM     28  H   UNL     1      35.593 -24.649 -13.336  0.00  0.00    -0.083 HD
ATOM     29  H   UNL     1      36.340 -24.016 -14.693  0.00  0.00    -0.083 HD
BRANCH  27  30
ATOM     30  C   UNL     1      36.351 -26.041 -14.607  0.00  0.00    -0.031 C 
BRANCH  30  34
ATOM     31  N   UNL     1      38.536 -27.121 -14.177  0.00  0.00    -0.170 NA
ATOM     32  N   UNL     1      39.777 -26.628 -14.045  0.00  0.00    -0.157 N 
ATOM     33  N   UNL     1      39.956 -25.301 -14.153  0.00  0.00    -0.162 NA
ATOM     34  C   UNL     1      37.841 -26.000 -14.393  0.00  0.00    +0.077 C 
ATOM     35  C   UNL     1      38.703 -24.895 -14.378  0.00  0.00    +0.133 C 
ATOM     36  H   UNL     1      40.540 -27.226 -13.873  0.00  0.00    +0.197 HD
ENDBRANCH  30  34
ENDBRANCH  27  30
ENDBRANCH  26  27
ENDBRANCH  21  26
ENDBRANCH   5  20
TORSDOF 8
ENDMDL
MODEL 8
REMARK VINA RESULT:     -11.7      7.645     13.677
REMARK  Name = 11224409
REMARK  8 active torsions:
REMARK  status: ('A' for Active; 'I' for Inactive)
REMARK    1  A    between atoms: C_2  and  N_10
REMARK    2  A    between atoms: C_5  and  C_20
REMARK    3  A    between atoms: C_11  and  C_14
REMARK    4  A    between atoms: C_14  and  N_16
REMARK    5  A    between atoms: C_21  and  C_26
REMARK    6  A    between atoms: C_26  and  N_27
REMARK    7  A    between atoms: N_27  and  C_30
REMARK    8  A    between atoms: C_30  and  C_34
REMARK                            x       y       z     vdW  Elec       q    Type
REMARK                         _______ _______ _______ _____ _____    ______ ____
ROOT
ATOM      1  F   UNL     1      32.144 -14.060 -20.344  0.00  0.00    -0.204 F 
ATOM      2  C   UNL     1      32.453 -11.067 -22.384  0.00  0.00    +0.059 C 
ATOM      3  C   UNL     1      32.016 -11.950 -21.395  0.00  0.00    +0.045 C 
ATOM      4  C   UNL     1      33.451 -11.460 -23.276  0.00  0.00    +0.015 C 
ATOM      5  C   UNL     1      33.573 -13.615 -22.192  0.00  0.00    +0.028 C 
ATOM      6  C   UNL     1      32.575 -13.224 -21.300  0.00  0.00    +0.141 C 
ATOM      7  C   UNL     1      34.012 -12.734 -23.180  0.00  0.00    +0.004 C 
ENDROOT
BRANCH   2  10
ATOM      8  O   UNL     1      31.069  -7.726 -21.963  0.00  0.00    -0.434 OA
ATOM      9  O   UNL     1      31.828  -8.997 -20.245  0.00  0.00    -0.226 OA
ATOM     10  N   UNL     1      31.881  -9.767 -22.482  0.00  0.00    -0.221 N 
ATOM     11  C   UNL     1      31.150  -7.770 -23.394  0.00  0.00    +0.210 C 
ATOM     12  C   UNL     1      31.364  -9.234 -23.713  0.00  0.00    +0.147 C 
ATOM     13  C   UNL     1      31.635  -8.869 -21.446  0.00  0.00    +0.409 C 
BRANCH  11  14
ATOM     14  C   UNL     1      32.301  -6.883 -23.848  0.00  0.00    +0.135 C 
BRANCH  14  16
ATOM     15  O   UNL     1      34.721  -7.328 -22.306  0.00  0.00    -0.275 OA
ATOM     16  N   UNL     1      33.442  -7.665 -24.223  0.00  0.00    -0.301 N 
ATOM     17  C   UNL     1      34.565  -7.825 -23.418  0.00  0.00    +0.223 C 
ATOM     18  C   UNL     1      35.604  -8.716 -24.043  0.00  0.00    +0.095 C 
ATOM     19  H   UNL     1      33.430  -8.114 -25.100  0.00  0.00    +0.150 HD
ENDBRANCH  14  16
ENDBRANCH  11  14
ENDBRANCH   2  10
BRANCH   5  20
ATOM     20  C   UNL     1      34.156 -14.936 -22.097  0.00  0.00    +0.002 C 
ATOM     21  C   UNL     1      35.279 -17.483 -21.913  0.00  0.00    -0.044 C 
ATOM     22  C   UNL     1      34.525 -15.448 -20.853  0.00  0.00    -0.000 C 
ATOM     23  C   UNL     1      34.349 -15.699 -23.249  0.00  0.00    -0.000 C 
ATOM     24  C   UNL     1      35.086 -16.722 -20.761  0.00  0.00    -0.006 C 
ATOM     25  C   UNL     1      34.911 -16.972 -23.158  0.00  0.00    -0.006 C 
BRANCH  21  26
ATOM     26  C   UNL     1      35.879 -18.845 -21.814  0.00  0.00    -0.054 C 
BRANCH  26  27
ATOM     27  N   UNL     1      35.468 -19.549 -20.597  0.00  0.00    +0.390 N 
ATOM     28  H   UNL     1      35.415 -18.883 -19.827  0.00  0.00    -0.083 HD
ATOM     29  H   UNL     1      36.154 -20.274 -20.391  0.00  0.00    -0.083 HD
BRANCH  27  30
ATOM     30  C   UNL     1      34.167 -20.173 -20.780  0.00  0.00    -0.031 C 
BRANCH  30  34
ATOM     31  N   UNL     1      32.688 -21.461 -19.270  0.00  0.00    -0.170 NA
ATOM     32  N   UNL     1      32.922 -22.475 -18.423  0.00  0.00    -0.157 N 
ATOM     33  N   UNL     1      34.177 -22.941 -18.312  0.00  0.00    -0.162 NA
ATOM     34  C   UNL     1      33.914 -21.250 -19.758  0.00  0.00    +0.077 C 
ATOM     35  C   UNL     1      34.819 -22.148 -19.175  0.00  0.00    +0.133 C 
ATOM     36  H   UNL     1      32.191 -22.868 -17.894  0.00  0.00    +0.197 HD
ENDBRANCH  30  34
ENDBRANCH  27  30
ENDBRANCH  26  27
ENDBRANCH  21  26
ENDBRANCH   5  20
TORSDOF 8
ENDMDL
MODEL 9
REMARK VINA RESULT:     -11.4      8.363     14.496
REMARK  Name = 11224409
REMARK  8 active torsions:
REMARK  status: ('A' for Active; 'I' for Inactive)
REMARK    1  A    between atoms: C_2  and  N_10
REMARK    2  A    between atoms: C_5  and  C_20
REMARK    3  A    between atoms: C_11  and  C_14
REMARK    4  A    between atoms: C_14  and  N_16
REMARK    5  A    between atoms: C_21  and  C_26
REMARK    6  A    between atoms: C_26  and  N_27
REMARK    7  A    between atoms: N_27  and  C_30
REMARK    8  A    between atoms: C_30  and  C_34
REMARK                            x       y       z     vdW  Elec       q    Type
REMARK                         _______ _______ _______ _____ _____    ______ ____
ROOT
ATOM      1  F   UNL     1      32.023 -14.056 -20.610  0.00  0.00    -0.204 F 
ATOM      2  C   UNL     1      32.515 -11.040 -22.578  0.00  0.00    +0.059 C 
ATOM      3  C   UNL     1      31.991 -11.933 -21.642  0.00  0.00    +0.045 C 
ATOM      4  C   UNL     1      33.586 -11.425 -23.385  0.00  0.00    +0.015 C 
ATOM      5  C   UNL     1      33.608 -13.594 -22.321  0.00  0.00    +0.028 C 
ATOM      6  C   UNL     1      32.538 -13.210 -21.515  0.00  0.00    +0.141 C 
ATOM      7  C   UNL     1      34.133 -12.702 -23.257  0.00  0.00    +0.004 C 
ENDROOT
BRANCH   2  10
ATOM      8  O   UNL     1      31.095  -7.705 -22.237  0.00  0.00    -0.434 OA
ATOM      9  O   UNL     1      31.670  -9.012 -20.475  0.00  0.00    -0.226 OA
ATOM     10  N   UNL     1      31.957  -9.737 -22.709  0.00  0.00    -0.221 N 
ATOM     11  C   UNL     1      31.326  -7.720 -23.652  0.00  0.00    +0.210 C 
ATOM     12  C   UNL     1      31.572  -9.178 -23.977  0.00  0.00    +0.147 C 
ATOM     13  C   UNL     1      31.604  -8.859 -21.686  0.00  0.00    +0.409 C 
BRANCH  11  14
ATOM     14  C   UNL     1      32.518  -6.826 -23.965  0.00  0.00    +0.135 C 
BRANCH  14  16
ATOM     15  O   UNL     1      32.058  -4.462 -22.342  0.00  0.00    -0.275 OA
ATOM     16  N   UNL     1      32.094  -5.533 -24.412  0.00  0.00    -0.301 N 
ATOM     17  C   UNL     1      31.897  -4.451 -23.560  0.00  0.00    +0.223 C 
ATOM     18  C   UNL     1      31.475  -3.205 -24.294  0.00  0.00    +0.095 C 
ATOM     19  H   UNL     1      31.931  -5.403 -25.375  0.00  0.00    +0.150 HD
ENDBRANCH  14  16
ENDBRANCH  11  14
ENDBRANCH   2  10
BRANCH   5  20
ATOM     20  C   UNL     1      34.179 -14.918 -22.192  0.00  0.00    +0.002 C 
ATOM     21  C   UNL     1      35.280 -17.469 -21.944  0.00  0.00    -0.044 C 
ATOM     22  C   UNL     1      34.361 -15.712 -23.324  0.00  0.00    -0.000 C 
ATOM     23  C   UNL     1      34.547 -15.400 -20.936  0.00  0.00    -0.000 C 
ATOM     24  C   UNL     1      34.913 -16.987 -23.200  0.00  0.00    -0.006 C 
ATOM     25  C   UNL     1      35.097 -16.675 -20.811  0.00  0.00    -0.006 C 
BRANCH  21  26
ATOM     26  C   UNL     1      35.869 -18.832 -21.812  0.00  0.00    -0.054 C 
BRANCH  26  27
ATOM     27  N   UNL     1      35.435 -19.512 -20.590  0.00  0.00    +0.390 N 
ATOM     28  H   UNL     1      35.355 -18.829 -19.837  0.00  0.00    -0.083 HD
ATOM     29  H   UNL     1      36.124 -20.224 -20.348  0.00  0.00    -0.083 HD
BRANCH  27  30
ATOM     30  C   UNL     1      34.147 -20.156 -20.790  0.00  0.00    -0.031 C 
BRANCH  30  34
ATOM     31  N   UNL     1      32.675 -21.440 -19.271  0.00  0.00    -0.170 NA
ATOM     32  N   UNL     1      32.910 -22.463 -18.434  0.00  0.00    -0.157 N 
ATOM     33  N   UNL     1      34.162 -22.941 -18.342  0.00  0.00    -0.162 NA
ATOM     34  C   UNL     1      33.897 -21.238 -19.773  0.00  0.00    +0.077 C 
ATOM     35  C   UNL     1      34.800 -22.149 -19.208  0.00  0.00    +0.133 C 
ATOM     36  H   UNL     1      32.182 -22.853 -17.898  0.00  0.00    +0.197 HD
ENDBRANCH  30  34
ENDBRANCH  27  30
ENDBRANCH  26  27
ENDBRANCH  21  26
ENDBRANCH   5  20
TORSDOF 8
ENDMDL
