MODEL 1
REMARK VINA RESULT:     -11.4      0.000      0.000
REMARK  Name = 25113181
REMARK  3 active torsions:
REMARK  status: ('A' for Active; 'I' for Inactive)
REMARK    1  A    between atoms: C_14  and  C_19
REMARK    2  A    between atoms: C_17  and  C_30
REMARK    3  A    between atoms: C_22  and  O_25
REMARK                            x       y       z     vdW  Elec       q    Type
REMARK                         _______ _______ _______ _____ _____    ______ ____
ROOT
ATOM      1  N   UNL     1      30.859 -24.030 -15.125  0.00  0.00    -0.290 N 
ATOM      2  N   UNL     1      28.487 -23.700 -16.683  0.00  0.00    +0.388 N 
ATOM      3  N   UNL     1      33.224 -23.828 -15.065  0.00  0.00    -0.392 NA
ATOM      4  N   UNL     1      33.220 -25.003 -12.547  0.00  0.00    -0.263 NA
ATOM      5  C   UNL     1      30.733 -22.890 -16.042  0.00  0.00    +0.070 C 
ATOM      6  C   UNL     1      30.017 -25.189 -15.435  0.00  0.00    +0.070 C 
ATOM      7  C   UNL     1      29.261 -22.529 -16.251  0.00  0.00    -0.056 C 
ATOM      8  C   UNL     1      28.567 -24.754 -15.665  0.00  0.00    -0.056 C 
ATOM      9  C   UNL     1      32.082 -24.216 -14.471  0.00  0.00    +0.184 C 
ATOM     10  C   UNL     1      27.094 -23.332 -16.933  0.00  0.00    -0.101 C 
ATOM     11  C   UNL     1      34.376 -24.026 -14.399  0.00  0.00    +0.131 C 
ATOM     12  C   UNL     1      32.079 -24.795 -13.230  0.00  0.00    +0.199 C 
ATOM     13  C   UNL     1      34.373 -24.621 -13.124  0.00  0.00    +0.084 C 
ATOM     14  C   UNL     1      35.589 -23.644 -14.966  0.00  0.00    +0.097 C 
ATOM     15  C   UNL     1      35.584 -24.813 -12.463  0.00  0.00    +0.078 C 
ATOM     16  C   UNL     1      36.795 -23.839 -14.295  0.00  0.00    -0.015 C 
ATOM     17  C   UNL     1      36.793 -24.425 -13.039  0.00  0.00    +0.052 C 
ATOM     18  H   UNL     1      28.883 -24.053 -17.555  0.00  0.00    -0.080 HD
ENDROOT
BRANCH  14  19
ATOM     19  C   UNL     1      35.630 -23.025 -16.279  0.00  0.00    -0.009 C 
ATOM     20  C   UNL     1      34.552 -23.167 -17.152  0.00  0.00    +0.033 C 
ATOM     21  C   UNL     1      36.749 -22.288 -16.667  0.00  0.00    -0.003 C 
ATOM     22  C   UNL     1      34.592 -22.572 -18.412  0.00  0.00    +0.133 C 
ATOM     23  C   UNL     1      36.789 -21.693 -17.928  0.00  0.00    +0.003 C 
ATOM     24  C   UNL     1      35.711 -21.834 -18.800  0.00  0.00    +0.037 C 
BRANCH  22  25
ATOM     25  O   UNL     1      33.539 -22.709 -19.264  0.00  0.00    -0.506 OA
ATOM     26  H   UNL     1      32.989 -21.974 -19.452  0.00  0.00    +0.292 HD
ENDBRANCH  22  25
ENDBRANCH  14  19
BRANCH  17  30
ATOM     27  F   UNL     1      39.153 -24.807 -13.129  0.00  0.00    -0.166 F 
ATOM     28  F   UNL     1      38.413 -23.607 -11.482  0.00  0.00    -0.166 F 
ATOM     29  F   UNL     1      38.045 -25.750 -11.511  0.00  0.00    -0.166 F 
ATOM     30  C   UNL     1      38.074 -24.640 -12.308  0.00  0.00    +0.415 C 
ENDBRANCH  17  30
TORSDOF 3
ENDMDL
MODEL 2
REMARK VINA RESULT:      -9.1      2.502      5.460
REMARK  Name = 25113181
REMARK  3 active torsions:
REMARK  status: ('A' for Active; 'I' for Inactive)
REMARK    1  A    between atoms: C_14  and  C_19
REMARK    2  A    between atoms: C_17  and  C_30
REMARK    3  A    between atoms: C_22  and  O_25
REMARK                            x       y       z     vdW  Elec       q    Type
REMARK                         _______ _______ _______ _____ _____    ______ ____
ROOT
ATOM      1  N   UNL     1      36.280 -21.699 -18.163  0.00  0.00    -0.290 N 
ATOM      2  N   UNL     1      35.513 -20.175 -20.454  0.00  0.00    +0.388 N 
ATOM      3  N   UNL     1      35.550 -22.798 -16.190  0.00  0.00    -0.392 NA
ATOM      4  N   UNL     1      38.203 -23.298 -15.534  0.00  0.00    -0.263 NA
ATOM      5  C   UNL     1      35.021 -21.996 -18.857  0.00  0.00    +0.070 C 
ATOM      6  C   UNL     1      36.803 -20.342 -18.352  0.00  0.00    +0.070 C 
ATOM      7  C   UNL     1      35.106 -21.580 -20.327  0.00  0.00    -0.056 C 
ATOM      8  C   UNL     1      36.830 -19.978 -19.839  0.00  0.00    -0.056 C 
ATOM      9  C   UNL     1      36.559 -22.391 -16.980  0.00  0.00    +0.184 C 
ATOM     10  C   UNL     1      35.538 -19.772 -21.860  0.00  0.00    -0.101 C 
ATOM     11  C   UNL     1      35.864 -23.460 -15.062  0.00  0.00    +0.131 C 
ATOM     12  C   UNL     1      37.867 -22.638 -16.657  0.00  0.00    +0.199 C 
ATOM     13  C   UNL     1      37.208 -23.714 -14.730  0.00  0.00    +0.084 C 
ATOM     14  C   UNL     1      34.860 -23.905 -14.206  0.00  0.00    +0.097 C 
ATOM     15  C   UNL     1      37.498 -24.401 -13.555  0.00  0.00    +0.078 C 
ATOM     16  C   UNL     1      35.161 -24.593 -13.031  0.00  0.00    -0.015 C 
ATOM     17  C   UNL     1      36.485 -24.843 -12.705  0.00  0.00    +0.052 C 
ATOM     18  H   UNL     1      34.832 -19.590 -19.969  0.00  0.00    -0.080 HD
ENDROOT
BRANCH  14  19
ATOM     19  C   UNL     1      33.461 -23.663 -14.516  0.00  0.00    -0.009 C 
ATOM     20  C   UNL     1      33.080 -23.351 -15.821  0.00  0.00    +0.033 C 
ATOM     21  C   UNL     1      32.501 -23.745 -13.509  0.00  0.00    -0.003 C 
ATOM     22  C   UNL     1      31.737 -23.120 -16.117  0.00  0.00    +0.133 C 
ATOM     23  C   UNL     1      31.157 -23.514 -13.806  0.00  0.00    +0.003 C 
ATOM     24  C   UNL     1      30.775 -23.202 -15.110  0.00  0.00    +0.037 C 
BRANCH  22  25
ATOM     25  O   UNL     1      31.363 -22.817 -17.391  0.00  0.00    -0.506 OA
ATOM     26  H   UNL     1      32.000 -22.511 -18.006  0.00  0.00    +0.292 HD
ENDBRANCH  22  25
ENDBRANCH  14  19
BRANCH  17  30
ATOM     27  F   UNL     1      35.831 -25.553 -10.516  0.00  0.00    -0.166 F 
ATOM     28  F   UNL     1      37.090 -26.903 -11.653  0.00  0.00    -0.166 F 
ATOM     29  F   UNL     1      37.929 -25.073 -10.830  0.00  0.00    -0.166 F 
ATOM     30  C   UNL     1      36.824 -25.578 -11.454  0.00  0.00    +0.415 C 
ENDBRANCH  17  30
TORSDOF 3
ENDMDL
