MODEL 1
REMARK VINA RESULT:     -11.8      0.000      0.000
REMARK  Name = 25109292
REMARK  3 active torsions:
REMARK  status: ('A' for Active; 'I' for Inactive)
REMARK    1  A    between atoms: C_3  and  S_20
REMARK    2  A    between atoms: C_7  and  C_10
REMARK    3  A    between atoms: S_20  and  C_23
REMARK                            x       y       z     vdW  Elec       q    Type
REMARK                         _______ _______ _______ _____ _____    ______ ____
ROOT
ATOM      1  O   UNL     1      34.647 -23.196 -16.703  0.00  0.00    -0.425 OA
ATOM      2  N   UNL     1      36.861 -22.715 -16.634  0.00  0.00    -0.368 NA
ATOM      3  C   UNL     1      36.686 -24.892 -13.601  0.00  0.00    +0.091 C 
ATOM      4  C   UNL     1      36.536 -23.534 -15.580  0.00  0.00    +0.153 C 
ATOM      5  C   UNL     1      35.182 -23.830 -15.619  0.00  0.00    +0.174 C 
ATOM      6  C   UNL     1      37.318 -24.073 -14.549  0.00  0.00    +0.107 C 
ATOM      7  C   UNL     1      35.714 -22.552 -17.256  0.00  0.00    +0.282 C 
ATOM      8  C   UNL     1      35.314 -25.165 -13.677  0.00  0.00    +0.018 C 
ATOM      9  C   UNL     1      34.521 -24.636 -14.701  0.00  0.00    +0.041 C 
ENDROOT
BRANCH   7  10
ATOM     10  C   UNL     1      35.420 -21.787 -18.443  0.00  0.00    +0.066 C 
ATOM     11  C   UNL     1      36.143 -20.257 -20.191  0.00  0.00    +0.000 C 
ATOM     12  C   UNL     1      34.846 -20.299 -20.755  0.00  0.00    +0.000 C 
ATOM     13  C   UNL     1      36.414 -21.006 -19.035  0.00  0.00    +0.006 C 
ATOM     14  C   UNL     1      34.145 -21.829 -18.998  0.00  0.00    +0.006 C 
ATOM     15  C   UNL     1      33.857 -21.090 -20.147  0.00  0.00    +0.000 C 
ATOM     16  C   UNL     1      37.132 -19.467 -20.800  0.00  0.00    +0.000 C 
ATOM     17  C   UNL     1      34.575 -19.550 -21.912  0.00  0.00    +0.000 C 
ATOM     18  C   UNL     1      36.844 -18.728 -21.948  0.00  0.00    +0.000 C 
ATOM     19  C   UNL     1      35.569 -18.769 -22.502  0.00  0.00    +0.000 C 
ENDBRANCH   7  10
BRANCH   3  20
ATOM     20  S   UNL     1      37.630 -25.582 -12.301  0.00  0.00    +0.005 S 
ATOM     21  O   UNL     1      36.719 -26.307 -11.426  0.00  0.00    -0.169 OA
ATOM     22  O   UNL     1      38.785 -26.261 -12.867  0.00  0.00    -0.169 OA
BRANCH  20  23
ATOM     23  C   UNL     1      38.241 -24.172 -11.407  0.00  0.00    +0.156 C 
ATOM     24  C   UNL     1      37.128 -23.206 -11.065  0.00  0.00    +0.028 C 
ENDBRANCH  20  23
ENDBRANCH   3  20
TORSDOF 3
ENDMDL
MODEL 2
REMARK VINA RESULT:     -10.7      8.405     12.035
REMARK  Name = 25109292
REMARK  3 active torsions:
REMARK  status: ('A' for Active; 'I' for Inactive)
REMARK    1  A    between atoms: C_3  and  S_20
REMARK    2  A    between atoms: C_7  and  C_10
REMARK    3  A    between atoms: S_20  and  C_23
REMARK                            x       y       z     vdW  Elec       q    Type
REMARK                         _______ _______ _______ _____ _____    ______ ____
ROOT
ATOM      1  O   UNL     1      33.568 -13.566 -24.337  0.00  0.00    -0.425 OA
ATOM      2  N   UNL     1      34.459 -13.646 -22.254  0.00  0.00    -0.368 NA
ATOM      3  C   UNL     1      34.855 -17.253 -23.150  0.00  0.00    +0.091 C 
ATOM      4  C   UNL     1      34.491 -14.900 -22.816  0.00  0.00    +0.153 C 
ATOM      5  C   UNL     1      33.947 -14.855 -24.090  0.00  0.00    +0.174 C 
ATOM      6  C   UNL     1      34.961 -16.126 -22.322  0.00  0.00    +0.107 C 
ATOM      7  C   UNL     1      33.908 -12.909 -23.193  0.00  0.00    +0.282 C 
ATOM      8  C   UNL     1      34.297 -17.164 -24.432  0.00  0.00    +0.018 C 
ATOM      9  C   UNL     1      33.825 -15.948 -24.939  0.00  0.00    +0.041 C 
ENDROOT
BRANCH   7  10
ATOM     10  C   UNL     1      33.609 -11.497 -23.186  0.00  0.00    +0.066 C 
ATOM     11  C   UNL     1      34.334  -9.193 -23.477  0.00  0.00    +0.000 C 
ATOM     12  C   UNL     1      33.024  -8.750 -23.174  0.00  0.00    +0.000 C 
ATOM     13  C   UNL     1      34.610 -10.570 -23.479  0.00  0.00    +0.006 C 
ATOM     14  C   UNL     1      32.322 -11.062 -22.888  0.00  0.00    +0.006 C 
ATOM     15  C   UNL     1      32.029  -9.697 -22.881  0.00  0.00    +0.000 C 
ATOM     16  C   UNL     1      35.329  -8.246 -23.770  0.00  0.00    +0.000 C 
ATOM     17  C   UNL     1      32.748  -7.373 -23.172  0.00  0.00    +0.000 C 
ATOM     18  C   UNL     1      35.037  -6.882 -23.763  0.00  0.00    +0.000 C 
ATOM     19  C   UNL     1      33.750  -6.447 -23.464  0.00  0.00    +0.000 C 
ENDBRANCH   7  10
BRANCH   3  20
ATOM     20  S   UNL     1      35.429 -18.799 -22.568  0.00  0.00    +0.005 S 
ATOM     21  O   UNL     1      34.922 -19.828 -23.464  0.00  0.00    -0.169 OA
ATOM     22  O   UNL     1      36.858 -18.702 -22.311  0.00  0.00    -0.169 OA
BRANCH  20  23
ATOM     23  C   UNL     1      34.629 -19.000 -20.993  0.00  0.00    +0.156 C 
ATOM     24  C   UNL     1      34.590 -20.452 -20.573  0.00  0.00    +0.028 C 
ENDBRANCH  20  23
ENDBRANCH   3  20
TORSDOF 3
ENDMDL
MODEL 3
REMARK VINA RESULT:     -10.5      9.927     14.287
REMARK  Name = 25109292
REMARK  3 active torsions:
REMARK  status: ('A' for Active; 'I' for Inactive)
REMARK    1  A    between atoms: C_3  and  S_20
REMARK    2  A    between atoms: C_7  and  C_10
REMARK    3  A    between atoms: S_20  and  C_23
REMARK                            x       y       z     vdW  Elec       q    Type
REMARK                         _______ _______ _______ _____ _____    ______ ____
ROOT
ATOM      1  O   UNL     1      32.392 -12.924 -22.493  0.00  0.00    -0.425 OA
ATOM      2  N   UNL     1      34.173 -12.084 -23.615  0.00  0.00    -0.368 NA
ATOM      3  C   UNL     1      32.477  -8.855 -22.798  0.00  0.00    +0.091 C 
ATOM      4  C   UNL     1      33.367 -11.053 -23.195  0.00  0.00    +0.153 C 
ATOM      5  C   UNL     1      32.276 -11.563 -22.509  0.00  0.00    +0.174 C 
ATOM      6  C   UNL     1      33.481  -9.664 -23.351  0.00  0.00    +0.107 C 
ATOM      7  C   UNL     1      33.550 -13.154 -23.173  0.00  0.00    +0.282 C 
ATOM      8  C   UNL     1      31.390  -9.412 -22.112  0.00  0.00    +0.018 C 
ATOM      9  C   UNL     1      31.263 -10.795 -21.948  0.00  0.00    +0.041 C 
ENDROOT
BRANCH   7  10
ATOM     10  C   UNL     1      33.916 -14.543 -23.307  0.00  0.00    +0.066 C 
ATOM     11  C   UNL     1      34.836 -16.577 -22.339  0.00  0.00    +0.000 C 
ATOM     12  C   UNL     1      34.627 -17.247 -23.567  0.00  0.00    +0.000 C 
ATOM     13  C   UNL     1      34.475 -15.225 -22.225  0.00  0.00    +0.006 C 
ATOM     14  C   UNL     1      33.711 -15.202 -24.514  0.00  0.00    +0.006 C 
ATOM     15  C   UNL     1      34.064 -16.546 -24.646  0.00  0.00    +0.000 C 
ATOM     16  C   UNL     1      35.399 -17.278 -21.260  0.00  0.00    +0.000 C 
ATOM     17  C   UNL     1      34.988 -18.600 -23.681  0.00  0.00    +0.000 C 
ATOM     18  C   UNL     1      35.752 -18.621 -21.392  0.00  0.00    +0.000 C 
ATOM     19  C   UNL     1      35.547 -19.280 -22.600  0.00  0.00    +0.000 C 
ENDBRANCH   7  10
BRANCH   3  20
ATOM     20  S   UNL     1      32.586  -7.118 -22.972  0.00  0.00    +0.005 S 
ATOM     21  O   UNL     1      31.247  -6.612 -23.234  0.00  0.00    -0.169 OA
ATOM     22  O   UNL     1      33.359  -6.582 -21.862  0.00  0.00    -0.169 OA
BRANCH  20  23
ATOM     23  C   UNL     1      33.557  -6.884 -24.443  0.00  0.00    +0.156 C 
ATOM     24  C   UNL     1      34.924  -6.321 -24.122  0.00  0.00    +0.028 C 
ENDBRANCH  20  23
ENDBRANCH   3  20
TORSDOF 3
ENDMDL
MODEL 4
REMARK VINA RESULT:     -10.4      1.016      1.493
REMARK  Name = 25109292
REMARK  3 active torsions:
REMARK  status: ('A' for Active; 'I' for Inactive)
REMARK    1  A    between atoms: C_3  and  S_20
REMARK    2  A    between atoms: C_7  and  C_10
REMARK    3  A    between atoms: S_20  and  C_23
REMARK                            x       y       z     vdW  Elec       q    Type
REMARK                         _______ _______ _______ _____ _____    ______ ____
ROOT
ATOM      1  O   UNL     1      36.839 -22.482 -17.128  0.00  0.00    -0.425 OA
ATOM      2  N   UNL     1      34.718 -22.968 -16.495  0.00  0.00    -0.368 NA
ATOM      3  C   UNL     1      36.516 -24.583 -13.645  0.00  0.00    +0.091 C 
ATOM      4  C   UNL     1      35.600 -23.476 -15.572  0.00  0.00    +0.153 C 
ATOM      5  C   UNL     1      36.899 -23.180 -15.956  0.00  0.00    +0.174 C 
ATOM      6  C   UNL     1      35.391 -24.196 -14.387  0.00  0.00    +0.107 C 
ATOM      7  C   UNL     1      35.503 -22.397 -17.382  0.00  0.00    +0.282 C 
ATOM      8  C   UNL     1      37.812 -24.265 -14.069  0.00  0.00    +0.018 C 
ATOM      9  C   UNL     1      38.037 -23.546 -15.248  0.00  0.00    +0.041 C 
ENDROOT
BRANCH   7  10
ATOM     10  C   UNL     1      35.153 -21.691 -18.590  0.00  0.00    +0.066 C 
ATOM     11  C   UNL     1      35.791 -20.250 -20.444  0.00  0.00    +0.000 C 
ATOM     12  C   UNL     1      34.469 -20.319 -20.943  0.00  0.00    +0.000 C 
ATOM     13  C   UNL     1      36.117 -20.941 -19.266  0.00  0.00    +0.006 C 
ATOM     14  C   UNL     1      33.853 -21.760 -19.082  0.00  0.00    +0.006 C 
ATOM     15  C   UNL     1      33.511 -21.078 -20.251  0.00  0.00    +0.000 C 
ATOM     16  C   UNL     1      36.748 -19.491 -21.136  0.00  0.00    +0.000 C 
ATOM     17  C   UNL     1      34.143 -19.628 -22.122  0.00  0.00    +0.000 C 
ATOM     18  C   UNL     1      36.406 -18.810 -22.304  0.00  0.00    +0.000 C 
ATOM     19  C   UNL     1      35.107 -18.878 -22.796  0.00  0.00    +0.000 C 
ENDBRANCH   7  10
BRANCH   3  20
ATOM     20  S   UNL     1      36.294 -25.482 -12.161  0.00  0.00    +0.005 S 
ATOM     21  O   UNL     1      34.909 -25.319 -11.745  0.00  0.00    -0.169 OA
ATOM     22  O   UNL     1      36.845 -26.818 -12.334  0.00  0.00    -0.169 OA
BRANCH  20  23
ATOM     23  C   UNL     1      37.324 -24.643 -10.980  0.00  0.00    +0.156 C 
ATOM     24  C   UNL     1      36.867 -23.217 -10.760  0.00  0.00    +0.028 C 
ENDBRANCH  20  23
ENDBRANCH   3  20
TORSDOF 3
ENDMDL
MODEL 5
REMARK VINA RESULT:     -10.4     11.170     15.556
REMARK  Name = 25109292
REMARK  3 active torsions:
REMARK  status: ('A' for Active; 'I' for Inactive)
REMARK    1  A    between atoms: C_3  and  S_20
REMARK    2  A    between atoms: C_7  and  C_10
REMARK    3  A    between atoms: S_20  and  C_23
REMARK                            x       y       z     vdW  Elec       q    Type
REMARK                         _______ _______ _______ _____ _____    ______ ____
ROOT
ATOM      1  O   UNL     1      34.506 -10.751 -23.639  0.00  0.00    -0.425 OA
ATOM      2  N   UNL     1      32.339 -10.971 -23.009  0.00  0.00    -0.368 NA
ATOM      3  C   UNL     1      32.650  -7.271 -22.589  0.00  0.00    +0.091 C 
ATOM      4  C   UNL     1      32.706  -9.649 -22.937  0.00  0.00    +0.153 C 
ATOM      5  C   UNL     1      34.031  -9.511 -23.322  0.00  0.00    +0.174 C 
ATOM      6  C   UNL     1      31.987  -8.506 -22.559  0.00  0.00    +0.107 C 
ATOM      7  C   UNL     1      33.435 -11.566 -23.426  0.00  0.00    +0.282 C 
ATOM      8  C   UNL     1      33.991  -7.175 -22.984  0.00  0.00    +0.018 C 
ATOM      9  C   UNL     1      34.721  -8.306 -23.365  0.00  0.00    +0.041 C 
ENDROOT
BRANCH   7  10
ATOM     10  C   UNL     1      33.668 -12.965 -23.692  0.00  0.00    +0.066 C 
ATOM     11  C   UNL     1      34.453 -15.145 -22.948  0.00  0.00    +0.000 C 
ATOM     12  C   UNL     1      34.120 -15.688 -24.212  0.00  0.00    +0.000 C 
ATOM     13  C   UNL     1      34.222 -13.781 -22.705  0.00  0.00    +0.006 C 
ATOM     14  C   UNL     1      33.339 -13.500 -24.934  0.00  0.00    +0.006 C 
ATOM     15  C   UNL     1      33.563 -14.853 -25.194  0.00  0.00    +0.000 C 
ATOM     16  C   UNL     1      35.010 -15.980 -21.966  0.00  0.00    +0.000 C 
ATOM     17  C   UNL     1      34.351 -17.052 -24.455  0.00  0.00    +0.000 C 
ATOM     18  C   UNL     1      35.233 -17.332 -22.226  0.00  0.00    +0.000 C 
ATOM     19  C   UNL     1      34.906 -17.866 -23.468  0.00  0.00    +0.000 C 
ENDBRANCH   7  10
BRANCH   3  20
ATOM     20  S   UNL     1      31.785  -5.823 -22.124  0.00  0.00    +0.005 S 
ATOM     21  O   UNL     1      30.400  -6.193 -21.876  0.00  0.00    -0.169 OA
ATOM     22  O   UNL     1      32.546  -5.132 -21.094  0.00  0.00    -0.169 OA
BRANCH  20  23
ATOM     23  C   UNL     1      31.827  -4.801 -23.578  0.00  0.00    +0.156 C 
ATOM     24  C   UNL     1      31.940  -3.335 -23.222  0.00  0.00    +0.028 C 
ENDBRANCH  20  23
ENDBRANCH   3  20
TORSDOF 3
ENDMDL
MODEL 6
REMARK VINA RESULT:     -10.2      2.228      3.678
REMARK  Name = 25109292
REMARK  3 active torsions:
REMARK  status: ('A' for Active; 'I' for Inactive)
REMARK    1  A    between atoms: C_3  and  S_20
REMARK    2  A    between atoms: C_7  and  C_10
REMARK    3  A    between atoms: S_20  and  C_23
REMARK                            x       y       z     vdW  Elec       q    Type
REMARK                         _______ _______ _______ _____ _____    ______ ____
ROOT
ATOM      1  O   UNL     1      36.361 -20.629 -19.217  0.00  0.00    -0.425 OA
ATOM      2  N   UNL     1      34.297 -21.560 -19.322  0.00  0.00    -0.368 NA
ATOM      3  C   UNL     1      35.511 -23.286 -16.238  0.00  0.00    +0.091 C 
ATOM      4  C   UNL     1      34.968 -22.054 -18.230  0.00  0.00    +0.153 C 
ATOM      5  C   UNL     1      36.231 -21.487 -18.162  0.00  0.00    +0.174 C 
ATOM      6  C   UNL     1      34.586 -22.979 -17.247  0.00  0.00    +0.107 C 
ATOM      7  C   UNL     1      35.164 -20.730 -19.860  0.00  0.00    +0.282 C 
ATOM      8  C   UNL     1      36.778 -22.691 -16.207  0.00  0.00    +0.018 C 
ATOM      9  C   UNL     1      37.173 -21.765 -17.180  0.00  0.00    +0.041 C 
ENDROOT
BRANCH   7  10
ATOM     10  C   UNL     1      35.030 -19.909 -21.039  0.00  0.00    +0.066 C 
ATOM     11  C   UNL     1      34.987 -17.707 -22.073  0.00  0.00    +0.000 C 
ATOM     12  C   UNL     1      34.772 -18.312 -23.334  0.00  0.00    +0.000 C 
ATOM     13  C   UNL     1      35.114 -18.520 -20.935  0.00  0.00    +0.006 C 
ATOM     14  C   UNL     1      34.819 -20.503 -22.279  0.00  0.00    +0.006 C 
ATOM     15  C   UNL     1      34.690 -19.711 -23.421  0.00  0.00    +0.000 C 
ATOM     16  C   UNL     1      35.068 -16.308 -21.986  0.00  0.00    +0.000 C 
ATOM     17  C   UNL     1      34.645 -17.499 -24.473  0.00  0.00    +0.000 C 
ATOM     18  C   UNL     1      34.940 -15.516 -23.128  0.00  0.00    +0.000 C 
ATOM     19  C   UNL     1      34.728 -16.110 -24.368  0.00  0.00    +0.000 C 
ENDBRANCH   7  10
BRANCH   3  20
ATOM     20  S   UNL     1      35.071 -24.436 -14.996  0.00  0.00    +0.005 S 
ATOM     21  O   UNL     1      33.640 -24.311 -14.761  0.00  0.00    -0.169 OA
ATOM     22  O   UNL     1      35.638 -25.733 -15.334  0.00  0.00    -0.169 OA
BRANCH  20  23
ATOM     23  C   UNL     1      35.918 -23.859 -13.544  0.00  0.00    +0.156 C 
ATOM     24  C   UNL     1      35.151 -24.196 -12.284  0.00  0.00    +0.028 C 
ENDBRANCH  20  23
ENDBRANCH   3  20
TORSDOF 3
ENDMDL
MODEL 7
REMARK VINA RESULT:     -10.0     10.210     14.454
REMARK  Name = 25109292
REMARK  3 active torsions:
REMARK  status: ('A' for Active; 'I' for Inactive)
REMARK    1  A    between atoms: C_3  and  S_20
REMARK    2  A    between atoms: C_7  and  C_10
REMARK    3  A    between atoms: S_20  and  C_23
REMARK                            x       y       z     vdW  Elec       q    Type
REMARK                         _______ _______ _______ _____ _____    ______ ____
ROOT
ATOM      1  O   UNL     1      34.733 -11.897 -23.812  0.00  0.00    -0.425 OA
ATOM      2  N   UNL     1      32.684 -12.052 -22.856  0.00  0.00    -0.368 NA
ATOM      3  C   UNL     1      33.013  -8.330 -22.828  0.00  0.00    +0.091 C 
ATOM      4  C   UNL     1      33.043 -10.730 -22.960  0.00  0.00    +0.153 C 
ATOM      5  C   UNL     1      34.296 -10.632 -23.544  0.00  0.00    +0.174 C 
ATOM      6  C   UNL     1      32.374  -9.555 -22.587  0.00  0.00    +0.107 C 
ATOM      7  C   UNL     1      33.713 -12.687 -23.371  0.00  0.00    +0.282 C 
ATOM      8  C   UNL     1      34.281  -8.274 -23.421  0.00  0.00    +0.018 C 
ATOM      9  C   UNL     1      34.960  -9.438 -23.798  0.00  0.00    +0.041 C 
ENDROOT
BRANCH   7  10
ATOM     10  C   UNL     1      33.921 -14.105 -23.539  0.00  0.00    +0.066 C 
ATOM     11  C   UNL     1      34.734 -16.228 -22.672  0.00  0.00    +0.000 C 
ATOM     12  C   UNL     1      34.321 -16.865 -23.866  0.00  0.00    +0.000 C 
ATOM     13  C   UNL     1      34.527 -14.847 -22.524  0.00  0.00    +0.006 C 
ATOM     14  C   UNL     1      33.514 -14.732 -24.712  0.00  0.00    +0.006 C 
ATOM     15  C   UNL     1      33.713 -16.104 -24.877  0.00  0.00    +0.000 C 
ATOM     16  C   UNL     1      35.342 -16.989 -21.661  0.00  0.00    +0.000 C 
ATOM     17  C   UNL     1      34.529 -18.246 -24.014  0.00  0.00    +0.000 C 
ATOM     18  C   UNL     1      35.541 -18.360 -21.825  0.00  0.00    +0.000 C 
ATOM     19  C   UNL     1      35.136 -18.987 -22.999  0.00  0.00    +0.000 C 
ENDBRANCH   7  10
BRANCH   3  20
ATOM     20  S   UNL     1      32.209  -6.843 -22.376  0.00  0.00    +0.005 S 
ATOM     21  O   UNL     1      33.208  -5.786 -22.356  0.00  0.00    -0.169 OA
ATOM     22  O   UNL     1      31.011  -6.692 -23.188  0.00  0.00    -0.169 OA
BRANCH  20  23
ATOM     23  C   UNL     1      31.673  -7.124 -20.705  0.00  0.00    +0.156 C 
ATOM     24  C   UNL     1      32.847  -7.224 -19.755  0.00  0.00    +0.028 C 
ENDBRANCH  20  23
ENDBRANCH   3  20
TORSDOF 3
ENDMDL
MODEL 8
REMARK VINA RESULT:      -9.9      3.452      8.720
REMARK  Name = 25109292
REMARK  3 active torsions:
REMARK  status: ('A' for Active; 'I' for Inactive)
REMARK    1  A    between atoms: C_3  and  S_20
REMARK    2  A    between atoms: C_7  and  C_10
REMARK    3  A    between atoms: S_20  and  C_23
REMARK                            x       y       z     vdW  Elec       q    Type
REMARK                         _______ _______ _______ _____ _____    ______ ____
ROOT
ATOM      1  O   UNL     1      34.528 -22.565 -17.592  0.00  0.00    -0.425 OA
ATOM      2  N   UNL     1      36.686 -21.881 -17.712  0.00  0.00    -0.368 NA
ATOM      3  C   UNL     1      35.380 -20.081 -20.716  0.00  0.00    +0.091 C 
ATOM      4  C   UNL     1      35.972 -21.332 -18.750  0.00  0.00    +0.153 C 
ATOM      5  C   UNL     1      34.651 -21.749 -18.680  0.00  0.00    +0.174 C 
ATOM      6  C   UNL     1      36.358 -20.475 -19.791  0.00  0.00    +0.107 C 
ATOM      7  C   UNL     1      35.786 -22.593 -17.069  0.00  0.00    +0.282 C 
ATOM      8  C   UNL     1      34.057 -20.526 -20.609  0.00  0.00    +0.018 C 
ATOM      9  C   UNL     1      33.656 -21.379 -19.576  0.00  0.00    +0.041 C 
ENDROOT
BRANCH   7  10
ATOM     10  C   UNL     1      35.939 -23.402 -15.885  0.00  0.00    +0.066 C 
ATOM     11  C   UNL     1      37.378 -24.570 -14.308  0.00  0.00    +0.000 C 
ATOM     12  C   UNL     1      36.235 -24.977 -13.578  0.00  0.00    +0.000 C 
ATOM     13  C   UNL     1      37.212 -23.783 -15.459  0.00  0.00    +0.006 C 
ATOM     14  C   UNL     1      34.816 -23.802 -15.167  0.00  0.00    +0.006 C 
ATOM     15  C   UNL     1      34.961 -24.585 -14.021  0.00  0.00    +0.000 C 
ATOM     16  C   UNL     1      38.651 -24.963 -13.866  0.00  0.00    +0.000 C 
ATOM     17  C   UNL     1      36.400 -25.764 -12.427  0.00  0.00    +0.000 C 
ATOM     18  C   UNL     1      38.796 -25.745 -12.720  0.00  0.00    +0.000 C 
ATOM     19  C   UNL     1      37.674 -26.145 -12.003  0.00  0.00    +0.000 C 
ENDBRANCH   7  10
BRANCH   3  20
ATOM     20  S   UNL     1      35.826 -19.013 -22.028  0.00  0.00    +0.005 S 
ATOM     21  O   UNL     1      37.279 -18.938 -22.066  0.00  0.00    -0.169 OA
ATOM     22  O   UNL     1      35.089 -19.402 -23.221  0.00  0.00    -0.169 OA
BRANCH  20  23
ATOM     23  C   UNL     1      35.207 -17.423 -21.528  0.00  0.00    +0.156 C 
ATOM     24  C   UNL     1      35.021 -16.503 -22.714  0.00  0.00    +0.028 C 
ENDBRANCH  20  23
ENDBRANCH   3  20
TORSDOF 3
ENDMDL
MODEL 9
REMARK VINA RESULT:      -9.9      0.979      1.797
REMARK  Name = 25109292
REMARK  3 active torsions:
REMARK  status: ('A' for Active; 'I' for Inactive)
REMARK    1  A    between atoms: C_3  and  S_20
REMARK    2  A    between atoms: C_7  and  C_10
REMARK    3  A    between atoms: S_20  and  C_23
REMARK                            x       y       z     vdW  Elec       q    Type
REMARK                         _______ _______ _______ _____ _____    ______ ____
ROOT
ATOM      1  O   UNL     1      34.828 -22.451 -17.539  0.00  0.00    -0.425 OA
ATOM      2  N   UNL     1      37.006 -22.217 -16.953  0.00  0.00    -0.368 NA
ATOM      3  C   UNL     1      35.942 -24.487 -14.182  0.00  0.00    +0.091 C 
ATOM      4  C   UNL     1      36.374 -23.040 -16.052  0.00  0.00    +0.153 C 
ATOM      5  C   UNL     1      35.042 -23.185 -16.407  0.00  0.00    +0.174 C 
ATOM      6  C   UNL     1      36.848 -23.704 -14.911  0.00  0.00    +0.107 C 
ATOM      7  C   UNL     1      36.049 -21.905 -17.800  0.00  0.00    +0.282 C 
ATOM      8  C   UNL     1      34.603 -24.607 -14.575  0.00  0.00    +0.018 C 
ATOM      9  C   UNL     1      34.116 -23.952 -15.711  0.00  0.00    +0.041 C 
ENDROOT
BRANCH   7  10
ATOM     10  C   UNL     1      36.106 -21.063 -18.970  0.00  0.00    +0.066 C 
ATOM     11  C   UNL     1      35.046 -20.167 -20.969  0.00  0.00    +0.000 C 
ATOM     12  C   UNL     1      36.217 -19.422 -21.247  0.00  0.00    +0.000 C 
ATOM     13  C   UNL     1      35.007 -20.983 -19.827  0.00  0.00    +0.006 C 
ATOM     14  C   UNL     1      37.256 -20.330 -19.243  0.00  0.00    +0.006 C 
ATOM     15  C   UNL     1      37.314 -19.515 -20.375  0.00  0.00    +0.000 C 
ATOM     16  C   UNL     1      33.950 -20.075 -21.841  0.00  0.00    +0.000 C 
ATOM     17  C   UNL     1      36.257 -18.606 -22.389  0.00  0.00    +0.000 C 
ATOM     18  C   UNL     1      34.007 -19.259 -22.972  0.00  0.00    +0.000 C 
ATOM     19  C   UNL     1      35.158 -18.527 -23.245  0.00  0.00    +0.000 C 
ENDBRANCH   7  10
BRANCH   3  20
ATOM     20  S   UNL     1      36.498 -25.330 -12.753  0.00  0.00    +0.005 S 
ATOM     21  O   UNL     1      35.396 -25.367 -11.802  0.00  0.00    -0.169 OA
ATOM     22  O   UNL     1      37.146 -26.567 -13.159  0.00  0.00    -0.169 OA
BRANCH  20  23
ATOM     23  C   UNL     1      37.763 -24.274 -12.085  0.00  0.00    +0.156 C 
ATOM     24  C   UNL     1      37.171 -23.155 -11.257  0.00  0.00    +0.028 C 
ENDBRANCH  20  23
ENDBRANCH   3  20
TORSDOF 3
ENDMDL
