MODEL 1
REMARK VINA RESULT:     -12.8      0.000      0.000
REMARK  Name = 204109
REMARK  5 active torsions:
REMARK  status: ('A' for Active; 'I' for Inactive)
REMARK    1  A    between atoms: C_1  and  C_20
REMARK    2  A    between atoms: C_9  and  O_11
REMARK    3  A    between atoms: O_11  and  C_12
REMARK    4  A    between atoms: C_12  and  C_14
REMARK    5  A    between atoms: C_20  and  C_25
REMARK                            x       y       z     vdW  Elec       q    Type
REMARK                         _______ _______ _______ _____ _____    ______ ____
ROOT
ATOM      1  C   UNL     1      35.857 -18.986 -21.386  0.00  0.00    -0.021 C 
ATOM      2  C   UNL     1      34.476 -20.574 -20.165  0.00  0.00    -0.000 C 
ATOM      3  C   UNL     1      34.605 -19.521 -21.084  0.00  0.00    -0.004 C 
ATOM      4  C   UNL     1      35.637 -21.093 -19.543  0.00  0.00    +0.003 C 
ATOM      5  C   UNL     1      36.998 -19.497 -20.774  0.00  0.00    -0.004 C 
ATOM      6  C   UNL     1      36.890 -20.545 -19.858  0.00  0.00    -0.000 C 
ATOM      7  C   UNL     1      35.510 -22.147 -18.624  0.00  0.00    +0.037 C 
ATOM      8  C   UNL     1      33.224 -21.124 -19.849  0.00  0.00    +0.003 C 
ATOM      9  C   UNL     1      34.256 -22.682 -18.322  0.00  0.00    +0.139 C 
ATOM     10  C   UNL     1      33.115 -22.171 -18.934  0.00  0.00    +0.037 C 
ENDROOT
BRANCH   9  11
ATOM     11  O   UNL     1      34.148 -23.704 -17.429  0.00  0.00    -0.471 OA
BRANCH  11  12
ATOM     12  C   UNL     1      34.258 -23.373 -16.046  0.00  0.00    +0.234 C 
BRANCH  12  14
ATOM     13  F   UNL     1      34.304 -24.986 -13.726  0.00  0.00    -0.204 F 
ATOM     14  C   UNL     1      33.026 -23.735 -15.288  0.00  0.00    +0.049 C 
ATOM     15  C   UNL     1      33.115 -24.536 -14.149  0.00  0.00    +0.140 C 
ATOM     16  C   UNL     1      31.783 -23.273 -15.721  0.00  0.00    +0.002 C 
ATOM     17  C   UNL     1      31.960 -24.872 -13.442  0.00  0.00    +0.029 C 
ATOM     18  C   UNL     1      30.628 -23.610 -15.014  0.00  0.00    -0.000 C 
ATOM     19  C   UNL     1      30.717 -24.409 -13.874  0.00  0.00    +0.002 C 
ENDBRANCH  12  14
ENDBRANCH  11  12
ENDBRANCH   9  11
BRANCH   1  20
ATOM     20  C   UNL     1      35.974 -17.867 -22.365  0.00  0.00    +0.047 C 
BRANCH  20  25
ATOM     21  S   UNL     1      34.232 -17.525 -24.479  0.00  0.00    -0.048 S 
ATOM     22  O   UNL     1      34.876 -15.223 -21.449  0.00  0.00    -0.274 OA
ATOM     23  O   UNL     1      33.711 -15.384 -25.914  0.00  0.00    -0.263 OA
ATOM     24  N   UNL     1      34.267 -15.100 -23.675  0.00  0.00    -0.246 N 
ATOM     25  C   UNL     1      34.618 -17.262 -22.720  0.00  0.00    +0.137 C 
ATOM     26  C   UNL     1      34.611 -15.764 -22.516  0.00  0.00    +0.239 C 
ATOM     27  C   UNL     1      34.023 -15.820 -24.816  0.00  0.00    +0.279 C 
ATOM     28  H   UNL     1      34.197 -14.118 -23.684  0.00  0.00    +0.158 HD
ENDBRANCH  20  25
ENDBRANCH   1  20
TORSDOF 5
ENDMDL
MODEL 2
REMARK VINA RESULT:     -12.5      4.647      9.875
REMARK  Name = 204109
REMARK  5 active torsions:
REMARK  status: ('A' for Active; 'I' for Inactive)
REMARK    1  A    between atoms: C_1  and  C_20
REMARK    2  A    between atoms: C_9  and  O_11
REMARK    3  A    between atoms: O_11  and  C_12
REMARK    4  A    between atoms: C_12  and  C_14
REMARK    5  A    between atoms: C_20  and  C_25
REMARK                            x       y       z     vdW  Elec       q    Type
REMARK                         _______ _______ _______ _____ _____    ______ ____
ROOT
ATOM      1  C   UNL     1      33.753 -22.561 -18.406  0.00  0.00    -0.021 C 
ATOM      2  C   UNL     1      35.344 -21.118 -19.548  0.00  0.00    -0.000 C 
ATOM      3  C   UNL     1      35.067 -22.166 -18.655  0.00  0.00    -0.004 C 
ATOM      4  C   UNL     1      34.272 -20.461 -20.197  0.00  0.00    +0.003 C 
ATOM      5  C   UNL     1      32.699 -21.915 -19.045  0.00  0.00    -0.004 C 
ATOM      6  C   UNL     1      32.955 -20.872 -19.936  0.00  0.00    -0.000 C 
ATOM      7  C   UNL     1      34.549 -19.413 -21.090  0.00  0.00    +0.037 C 
ATOM      8  C   UNL     1      36.661 -20.707 -19.810  0.00  0.00    +0.003 C 
ATOM      9  C   UNL     1      35.864 -19.018 -21.338  0.00  0.00    +0.139 C 
ATOM     10  C   UNL     1      36.918 -19.664 -20.700  0.00  0.00    +0.037 C 
ENDROOT
BRANCH   9  11
ATOM     11  O   UNL     1      36.117 -18.001 -22.207  0.00  0.00    -0.471 OA
BRANCH  11  12
ATOM     12  C   UNL     1      35.123 -17.726 -23.193  0.00  0.00    +0.234 C 
BRANCH  12  14
ATOM     13  F   UNL     1      33.808 -16.443 -25.340  0.00  0.00    -0.204 F 
ATOM     14  C   UNL     1      34.644 -16.315 -23.121  0.00  0.00    +0.049 C 
ATOM     15  C   UNL     1      34.002 -15.738 -24.216  0.00  0.00    +0.140 C 
ATOM     16  C   UNL     1      34.841 -15.573 -21.957  0.00  0.00    +0.002 C 
ATOM     17  C   UNL     1      33.554 -14.418 -24.147  0.00  0.00    +0.029 C 
ATOM     18  C   UNL     1      34.394 -14.253 -21.887  0.00  0.00    -0.000 C 
ATOM     19  C   UNL     1      33.751 -13.676 -22.982  0.00  0.00    +0.002 C 
ENDBRANCH  12  14
ENDBRANCH  11  12
ENDBRANCH   9  11
BRANCH   1  20
ATOM     20  C   UNL     1      33.477 -23.677 -17.455  0.00  0.00    +0.047 C 
BRANCH  20  25
ATOM     21  S   UNL     1      33.864 -24.070 -14.750  0.00  0.00    -0.048 S 
ATOM     22  O   UNL     1      30.668 -22.996 -16.629  0.00  0.00    -0.274 OA
ATOM     23  O   UNL     1      32.341 -25.279 -12.980  0.00  0.00    -0.263 OA
ATOM     24  N   UNL     1      31.311 -24.169 -14.743  0.00  0.00    -0.246 N 
ATOM     25  C   UNL     1      33.017 -23.174 -16.088  0.00  0.00    +0.137 C 
ATOM     26  C   UNL     1      31.540 -23.420 -15.878  0.00  0.00    +0.239 C 
ATOM     27  C   UNL     1      32.376 -24.610 -14.002  0.00  0.00    +0.279 C 
ATOM     28  H   UNL     1      30.391 -24.385 -14.467  0.00  0.00    +0.158 HD
ENDBRANCH  20  25
ENDBRANCH   1  20
TORSDOF 5
ENDMDL
MODEL 3
REMARK VINA RESULT:     -12.5      1.816      2.682
REMARK  Name = 204109
REMARK  5 active torsions:
REMARK  status: ('A' for Active; 'I' for Inactive)
REMARK    1  A    between atoms: C_1  and  C_20
REMARK    2  A    between atoms: C_9  and  O_11
REMARK    3  A    between atoms: O_11  and  C_12
REMARK    4  A    between atoms: C_12  and  C_14
REMARK    5  A    between atoms: C_20  and  C_25
REMARK                            x       y       z     vdW  Elec       q    Type
REMARK                         _______ _______ _______ _____ _____    ______ ____
ROOT
ATOM      1  C   UNL     1      35.891 -19.167 -21.341  0.00  0.00    -0.021 C 
ATOM      2  C   UNL     1      34.523 -20.706 -20.045  0.00  0.00    -0.000 C 
ATOM      3  C   UNL     1      34.643 -19.702 -21.019  0.00  0.00    -0.004 C 
ATOM      4  C   UNL     1      35.686 -21.176 -19.389  0.00  0.00    +0.003 C 
ATOM      5  C   UNL     1      37.034 -19.629 -20.696  0.00  0.00    -0.004 C 
ATOM      6  C   UNL     1      36.934 -20.628 -19.726  0.00  0.00    -0.000 C 
ATOM      7  C   UNL     1      35.566 -22.181 -18.416  0.00  0.00    +0.037 C 
ATOM      8  C   UNL     1      33.275 -21.255 -19.707  0.00  0.00    +0.003 C 
ATOM      9  C   UNL     1      34.318 -22.715 -18.093  0.00  0.00    +0.139 C 
ATOM     10  C   UNL     1      33.175 -22.253 -18.738  0.00  0.00    +0.037 C 
ENDROOT
BRANCH   9  11
ATOM     11  O   UNL     1      34.218 -23.689 -17.147  0.00  0.00    -0.471 OA
BRANCH  11  12
ATOM     12  C   UNL     1      34.500 -23.318 -15.799  0.00  0.00    +0.234 C 
BRANCH  12  14
ATOM     13  F   UNL     1      37.087 -22.208 -15.548  0.00  0.00    -0.204 F 
ATOM     14  C   UNL     1      35.657 -24.079 -15.244  0.00  0.00    +0.049 C 
ATOM     15  C   UNL     1      36.910 -23.474 -15.146  0.00  0.00    +0.140 C 
ATOM     16  C   UNL     1      35.483 -25.397 -14.823  0.00  0.00    +0.002 C 
ATOM     17  C   UNL     1      37.990 -24.188 -14.625  0.00  0.00    +0.029 C 
ATOM     18  C   UNL     1      36.563 -26.111 -14.303  0.00  0.00    -0.000 C 
ATOM     19  C   UNL     1      37.816 -25.507 -14.203  0.00  0.00    +0.002 C 
ENDBRANCH  12  14
ENDBRANCH  11  12
ENDBRANCH   9  11
BRANCH   1  20
ATOM     20  C   UNL     1      35.999 -18.101 -22.378  0.00  0.00    +0.047 C 
BRANCH  20  25
ATOM     21  S   UNL     1      34.254 -17.664 -24.473  0.00  0.00    -0.048 S 
ATOM     22  O   UNL     1      34.928 -15.482 -21.361  0.00  0.00    -0.274 OA
ATOM     23  O   UNL     1      33.750 -15.466 -25.826  0.00  0.00    -0.263 OA
ATOM     24  N   UNL     1      34.314 -15.271 -23.579  0.00  0.00    -0.246 N 
ATOM     25  C   UNL     1      34.647 -17.470 -22.707  0.00  0.00    +0.137 C 
ATOM     26  C   UNL     1      34.655 -15.981 -22.447  0.00  0.00    +0.239 C 
ATOM     27  C   UNL     1      34.060 -15.945 -24.745  0.00  0.00    +0.279 C 
ATOM     28  H   UNL     1      34.253 -14.289 -23.551  0.00  0.00    +0.158 HD
ENDBRANCH  20  25
ENDBRANCH   1  20
TORSDOF 5
ENDMDL
MODEL 4
REMARK VINA RESULT:     -12.4      1.339      2.359
REMARK  Name = 204109
REMARK  5 active torsions:
REMARK  status: ('A' for Active; 'I' for Inactive)
REMARK    1  A    between atoms: C_1  and  C_20
REMARK    2  A    between atoms: C_9  and  O_11
REMARK    3  A    between atoms: O_11  and  C_12
REMARK    4  A    between atoms: C_12  and  C_14
REMARK    5  A    between atoms: C_20  and  C_25
REMARK                            x       y       z     vdW  Elec       q    Type
REMARK                         _______ _______ _______ _____ _____    ______ ____
ROOT
ATOM      1  C   UNL     1      35.035 -20.572 -20.491  0.00  0.00    -0.021 C 
ATOM      2  C   UNL     1      35.394 -21.825 -18.436  0.00  0.00    -0.000 C 
ATOM      3  C   UNL     1      35.888 -21.043 -19.493  0.00  0.00    -0.004 C 
ATOM      4  C   UNL     1      34.014 -22.134 -18.392  0.00  0.00    +0.003 C 
ATOM      5  C   UNL     1      33.678 -20.877 -20.447  0.00  0.00    -0.004 C 
ATOM      6  C   UNL     1      33.168 -21.652 -19.404  0.00  0.00    -0.000 C 
ATOM      7  C   UNL     1      33.519 -22.916 -17.335  0.00  0.00    +0.037 C 
ATOM      8  C   UNL     1      36.239 -22.307 -17.423  0.00  0.00    +0.003 C 
ATOM      9  C   UNL     1      34.373 -23.387 -16.337  0.00  0.00    +0.139 C 
ATOM     10  C   UNL     1      35.730 -23.082 -16.381  0.00  0.00    +0.037 C 
ENDROOT
BRANCH   9  11
ATOM     11  O   UNL     1      33.879 -24.143 -15.318  0.00  0.00    -0.471 OA
BRANCH  11  12
ATOM     12  C   UNL     1      32.975 -23.507 -14.417  0.00  0.00    +0.234 C 
BRANCH  12  14
ATOM     13  F   UNL     1      32.029 -25.834 -13.121  0.00  0.00    -0.204 F 
ATOM     14  C   UNL     1      31.581 -24.013 -14.578  0.00  0.00    +0.049 C 
ATOM     15  C   UNL     1      31.175 -25.169 -13.911  0.00  0.00    +0.140 C 
ATOM     16  C   UNL     1      30.685 -23.329 -15.397  0.00  0.00    +0.002 C 
ATOM     17  C   UNL     1      29.870 -25.639 -14.063  0.00  0.00    +0.029 C 
ATOM     18  C   UNL     1      29.380 -23.799 -15.550  0.00  0.00    -0.000 C 
ATOM     19  C   UNL     1      28.973 -24.954 -14.883  0.00  0.00    +0.002 C 
ENDBRANCH  12  14
ENDBRANCH  11  12
ENDBRANCH   9  11
BRANCH   1  20
ATOM     20  C   UNL     1      35.577 -19.743 -21.605  0.00  0.00    +0.047 C 
BRANCH  20  25
ATOM     21  S   UNL     1      34.411 -18.710 -23.885  0.00  0.00    -0.048 S 
ATOM     22  O   UNL     1      35.333 -16.925 -20.589  0.00  0.00    -0.274 OA
ATOM     23  O   UNL     1      34.892 -16.463 -25.163  0.00  0.00    -0.263 OA
ATOM     24  N   UNL     1      35.156 -16.495 -22.854  0.00  0.00    -0.246 N 
ATOM     25  C   UNL     1      34.586 -18.680 -22.074  0.00  0.00    +0.137 C 
ATOM     26  C   UNL     1      35.066 -17.288 -21.729  0.00  0.00    +0.239 C 
ATOM     27  C   UNL     1      34.859 -17.029 -24.080  0.00  0.00    +0.279 C 
ATOM     28  H   UNL     1      35.433 -15.553 -22.777  0.00  0.00    +0.158 HD
ENDBRANCH  20  25
ENDBRANCH   1  20
TORSDOF 5
ENDMDL
MODEL 5
REMARK VINA RESULT:     -12.4      4.586      9.688
REMARK  Name = 204109
REMARK  5 active torsions:
REMARK  status: ('A' for Active; 'I' for Inactive)
REMARK    1  A    between atoms: C_1  and  C_20
REMARK    2  A    between atoms: C_9  and  O_11
REMARK    3  A    between atoms: O_11  and  C_12
REMARK    4  A    between atoms: C_12  and  C_14
REMARK    5  A    between atoms: C_20  and  C_25
REMARK                            x       y       z     vdW  Elec       q    Type
REMARK                         _______ _______ _______ _____ _____    ______ ____
ROOT
ATOM      1  C   UNL     1      33.808 -23.049 -17.530  0.00  0.00    -0.021 C 
ATOM      2  C   UNL     1      33.716 -21.484 -19.391  0.00  0.00    -0.000 C 
ATOM      3  C   UNL     1      33.075 -22.342 -18.483  0.00  0.00    -0.004 C 
ATOM      4  C   UNL     1      35.123 -21.341 -19.330  0.00  0.00    +0.003 C 
ATOM      5  C   UNL     1      35.191 -22.908 -17.471  0.00  0.00    -0.004 C 
ATOM      6  C   UNL     1      35.846 -22.059 -18.364  0.00  0.00    -0.000 C 
ATOM      7  C   UNL     1      35.765 -20.482 -20.237  0.00  0.00    +0.037 C 
ATOM      8  C   UNL     1      32.994 -20.765 -20.356  0.00  0.00    +0.003 C 
ATOM      9  C   UNL     1      35.031 -19.775 -21.190  0.00  0.00    +0.139 C 
ATOM     10  C   UNL     1      33.648 -19.916 -21.249  0.00  0.00    +0.037 C 
ENDROOT
BRANCH   9  11
ATOM     11  O   UNL     1      35.668 -18.946 -22.063  0.00  0.00    -0.471 OA
BRANCH  11  12
ATOM     12  C   UNL     1      35.794 -17.577 -21.683  0.00  0.00    +0.234 C 
BRANCH  12  14
ATOM     13  F   UNL     1      34.848 -15.037 -20.883  0.00  0.00    -0.204 F 
ATOM     14  C   UNL     1      35.032 -16.675 -22.593  0.00  0.00    +0.049 C 
ATOM     15  C   UNL     1      34.592 -15.432 -22.138  0.00  0.00    +0.140 C 
ATOM     16  C   UNL     1      34.760 -17.076 -23.901  0.00  0.00    +0.002 C 
ATOM     17  C   UNL     1      33.879 -14.589 -22.992  0.00  0.00    +0.029 C 
ATOM     18  C   UNL     1      34.047 -16.234 -24.755  0.00  0.00    -0.000 C 
ATOM     19  C   UNL     1      33.607 -14.990 -24.301  0.00  0.00    +0.002 C 
ENDBRANCH  12  14
ENDBRANCH  11  12
ENDBRANCH   9  11
BRANCH   1  20
ATOM     20  C   UNL     1      33.110 -23.956 -16.574  0.00  0.00    +0.047 C 
BRANCH  20  25
ATOM     21  S   UNL     1      32.762 -23.903 -13.836  0.00  0.00    -0.048 S 
ATOM     22  O   UNL     1      30.286 -22.927 -16.631  0.00  0.00    -0.274 OA
ATOM     23  O   UNL     1      30.714 -24.665 -12.374  0.00  0.00    -0.263 OA
ATOM     24  N   UNL     1      30.295 -23.801 -14.490  0.00  0.00    -0.246 N 
ATOM     25  C   UNL     1      32.388 -23.190 -15.468  0.00  0.00    +0.137 C 
ATOM     26  C   UNL     1      30.887 -23.280 -15.623  0.00  0.00    +0.239 C 
ATOM     27  C   UNL     1      31.082 -24.188 -13.437  0.00  0.00    +0.279 C 
ATOM     28  H   UNL     1      29.317 -23.894 -14.439  0.00  0.00    +0.158 HD
ENDBRANCH  20  25
ENDBRANCH   1  20
TORSDOF 5
ENDMDL
MODEL 6
REMARK VINA RESULT:     -12.0      4.953     10.081
REMARK  Name = 204109
REMARK  5 active torsions:
REMARK  status: ('A' for Active; 'I' for Inactive)
REMARK    1  A    between atoms: C_1  and  C_20
REMARK    2  A    between atoms: C_9  and  O_11
REMARK    3  A    between atoms: O_11  and  C_12
REMARK    4  A    between atoms: C_12  and  C_14
REMARK    5  A    between atoms: C_20  and  C_25
REMARK                            x       y       z     vdW  Elec       q    Type
REMARK                         _______ _______ _______ _____ _____    ______ ____
ROOT
ATOM      1  C   UNL     1      34.664 -23.643 -16.260  0.00  0.00    -0.021 C 
ATOM      2  C   UNL     1      35.255 -22.212 -18.137  0.00  0.00    -0.000 C 
ATOM      3  C   UNL     1      35.624 -22.963 -17.009  0.00  0.00    -0.004 C 
ATOM      4  C   UNL     1      33.891 -22.149 -18.509  0.00  0.00    +0.003 C 
ATOM      5  C   UNL     1      33.323 -23.580 -16.626  0.00  0.00    -0.004 C 
ATOM      6  C   UNL     1      32.937 -22.840 -17.744  0.00  0.00    -0.000 C 
ATOM      7  C   UNL     1      33.521 -21.399 -19.637  0.00  0.00    +0.037 C 
ATOM      8  C   UNL     1      36.209 -21.522 -18.903  0.00  0.00    +0.003 C 
ATOM      9  C   UNL     1      34.483 -20.719 -20.387  0.00  0.00    +0.139 C 
ATOM     10  C   UNL     1      35.824 -20.782 -20.020  0.00  0.00    +0.037 C 
ENDROOT
BRANCH   9  11
ATOM     11  O   UNL     1      34.109 -19.996 -21.478  0.00  0.00    -0.471 OA
BRANCH  11  12
ATOM     12  C   UNL     1      35.149 -19.524 -22.332  0.00  0.00    +0.234 C 
BRANCH  12  14
ATOM     13  F   UNL     1      35.456 -17.258 -20.672  0.00  0.00    -0.204 F 
ATOM     14  C   UNL     1      34.893 -18.134 -22.805  0.00  0.00    +0.049 C 
ATOM     15  C   UNL     1      35.062 -17.056 -21.937  0.00  0.00    +0.140 C 
ATOM     16  C   UNL     1      34.482 -17.912 -24.119  0.00  0.00    +0.002 C 
ATOM     17  C   UNL     1      34.822 -15.756 -22.383  0.00  0.00    +0.029 C 
ATOM     18  C   UNL     1      34.240 -16.612 -24.566  0.00  0.00    -0.000 C 
ATOM     19  C   UNL     1      34.411 -15.534 -23.698  0.00  0.00    +0.002 C 
ENDBRANCH  12  14
ENDBRANCH  11  12
ENDBRANCH   9  11
BRANCH   1  20
ATOM     20  C   UNL     1      35.074 -24.435 -15.065  0.00  0.00    +0.047 C 
BRANCH  20  25
ATOM     21  S   UNL     1      36.978 -23.585 -13.255  0.00  0.00    -0.048 S 
ATOM     22  O   UNL     1      33.216 -24.249 -12.709  0.00  0.00    -0.274 OA
ATOM     23  O   UNL     1      37.406 -24.332 -10.772  0.00  0.00    -0.263 OA
ATOM     24  N   UNL     1      35.221 -24.344 -11.564  0.00  0.00    -0.246 N 
ATOM     25  C   UNL     1      35.249 -23.565 -13.822  0.00  0.00    +0.137 C 
ATOM     26  C   UNL     1      34.430 -24.087 -12.663  0.00  0.00    +0.239 C 
ATOM     27  C   UNL     1      36.575 -24.149 -11.648  0.00  0.00    +0.279 C 
ATOM     28  H   UNL     1      34.818 -24.666 -10.725  0.00  0.00    +0.158 HD
ENDBRANCH  20  25
ENDBRANCH   1  20
TORSDOF 5
ENDMDL
MODEL 7
REMARK VINA RESULT:     -11.9      4.706     10.002
REMARK  Name = 204109
REMARK  5 active torsions:
REMARK  status: ('A' for Active; 'I' for Inactive)
REMARK    1  A    between atoms: C_1  and  C_20
REMARK    2  A    between atoms: C_9  and  O_11
REMARK    3  A    between atoms: O_11  and  C_12
REMARK    4  A    between atoms: C_12  and  C_14
REMARK    5  A    between atoms: C_20  and  C_25
REMARK                            x       y       z     vdW  Elec       q    Type
REMARK                         _______ _______ _______ _____ _____    ______ ____
ROOT
ATOM      1  C   UNL     1      35.056 -19.314 -21.763  0.00  0.00    -0.021 C 
ATOM      2  C   UNL     1      34.838 -16.905 -21.500  0.00  0.00    -0.000 C 
ATOM      3  C   UNL     1      35.007 -18.184 -20.946  0.00  0.00    -0.004 C 
ATOM      4  C   UNL     1      34.717 -16.770 -22.904  0.00  0.00    +0.003 C 
ATOM      5  C   UNL     1      34.936 -19.181 -23.143  0.00  0.00    -0.004 C 
ATOM      6  C   UNL     1      34.769 -17.917 -23.712  0.00  0.00    -0.000 C 
ATOM      7  C   UNL     1      34.548 -15.491 -23.458  0.00  0.00    +0.037 C 
ATOM      8  C   UNL     1      34.787 -15.757 -20.693  0.00  0.00    +0.003 C 
ATOM      9  C   UNL     1      34.499 -14.361 -22.640  0.00  0.00    +0.139 C 
ATOM     10  C   UNL     1      34.619 -14.494 -21.260  0.00  0.00    +0.037 C 
ENDROOT
BRANCH   9  11
ATOM     11  O   UNL     1      34.336 -13.127 -23.193  0.00  0.00    -0.471 OA
BRANCH  11  12
ATOM     12  C   UNL     1      33.005 -12.733 -23.522  0.00  0.00    +0.234 C 
BRANCH  12  14
ATOM     13  F   UNL     1      31.616 -13.384 -21.148  0.00  0.00    -0.204 F 
ATOM     14  C   UNL     1      32.482 -11.701 -22.581  0.00  0.00    +0.049 C 
ATOM     15  C   UNL     1      31.804 -12.087 -21.426  0.00  0.00    +0.140 C 
ATOM     16  C   UNL     1      32.672 -10.348 -22.861  0.00  0.00    +0.002 C 
ATOM     17  C   UNL     1      31.316 -11.118 -20.547  0.00  0.00    +0.029 C 
ATOM     18  C   UNL     1      32.183  -9.379 -21.983  0.00  0.00    -0.000 C 
ATOM     19  C   UNL     1      31.506  -9.764 -20.826  0.00  0.00    +0.002 C 
ENDBRANCH  12  14
ENDBRANCH  11  12
ENDBRANCH   9  11
BRANCH   1  20
ATOM     20  C   UNL     1      35.236 -20.665 -21.158  0.00  0.00    +0.047 C 
BRANCH  20  25
ATOM     21  S   UNL     1      35.428 -22.058 -18.781  0.00  0.00    -0.048 S 
ATOM     22  O   UNL     1      32.310 -20.544 -20.479  0.00  0.00    -0.274 OA
ATOM     23  O   UNL     1      33.896 -23.957 -17.804  0.00  0.00    -0.263 OA
ATOM     24  N   UNL     1      32.910 -22.315 -19.120  0.00  0.00    -0.246 N 
ATOM     25  C   UNL     1      34.610 -20.767 -19.769  0.00  0.00    +0.137 C 
ATOM     26  C   UNL     1      33.154 -21.170 -19.848  0.00  0.00    +0.239 C 
ATOM     27  C   UNL     1      33.948 -22.941 -18.481  0.00  0.00    +0.279 C 
ATOM     28  H   UNL     1      31.998 -22.681 -19.060  0.00  0.00    +0.158 HD
ENDBRANCH  20  25
ENDBRANCH   1  20
TORSDOF 5
ENDMDL
MODEL 8
REMARK VINA RESULT:     -11.9      5.004      7.703
REMARK  Name = 204109
REMARK  5 active torsions:
REMARK  status: ('A' for Active; 'I' for Inactive)
REMARK    1  A    between atoms: C_1  and  C_20
REMARK    2  A    between atoms: C_9  and  O_11
REMARK    3  A    between atoms: O_11  and  C_12
REMARK    4  A    between atoms: C_12  and  C_14
REMARK    5  A    between atoms: C_20  and  C_25
REMARK                            x       y       z     vdW  Elec       q    Type
REMARK                         _______ _______ _______ _____ _____    ______ ____
ROOT
ATOM      1  C   UNL     1      32.144 -12.195 -21.725  0.00  0.00    -0.021 C 
ATOM      2  C   UNL     1      33.584 -14.105 -22.171  0.00  0.00    -0.000 C 
ATOM      3  C   UNL     1      32.918 -12.948 -22.608  0.00  0.00    -0.004 C 
ATOM      4  C   UNL     1      33.463 -14.502 -20.818  0.00  0.00    +0.003 C 
ATOM      5  C   UNL     1      32.025 -12.586 -20.395  0.00  0.00    -0.004 C 
ATOM      6  C   UNL     1      32.681 -13.732 -19.942  0.00  0.00    -0.000 C 
ATOM      7  C   UNL     1      34.129 -15.659 -20.380  0.00  0.00    +0.037 C 
ATOM      8  C   UNL     1      34.367 -14.875 -23.046  0.00  0.00    +0.003 C 
ATOM      9  C   UNL     1      34.903 -16.413 -21.264  0.00  0.00    +0.139 C 
ATOM     10  C   UNL     1      35.022 -16.021 -22.594  0.00  0.00    +0.037 C 
ENDROOT
BRANCH   9  11
ATOM     11  O   UNL     1      35.543 -17.531 -20.825  0.00  0.00    -0.471 OA
BRANCH  11  12
ATOM     12  C   UNL     1      35.351 -18.727 -21.577  0.00  0.00    +0.234 C 
BRANCH  12  14
ATOM     13  F   UNL     1      37.193 -20.327 -20.150  0.00  0.00    -0.204 F 
ATOM     14  C   UNL     1      34.932 -19.867 -20.712  0.00  0.00    +0.049 C 
ATOM     15  C   UNL     1      35.890 -20.620 -20.033  0.00  0.00    +0.140 C 
ATOM     16  C   UNL     1      33.580 -20.180 -20.583  0.00  0.00    +0.002 C 
ATOM     17  C   UNL     1      35.495 -21.686 -19.224  0.00  0.00    +0.029 C 
ATOM     18  C   UNL     1      33.184 -21.247 -19.774  0.00  0.00    -0.000 C 
ATOM     19  C   UNL     1      34.142 -21.999 -19.094  0.00  0.00    +0.002 C 
ENDBRANCH  12  14
ENDBRANCH  11  12
ENDBRANCH   9  11
BRANCH   1  20
ATOM     20  C   UNL     1      31.444 -10.969 -22.207  0.00  0.00    +0.047 C 
BRANCH  20  25
ATOM     21  S   UNL     1      32.040  -8.798 -20.608  0.00  0.00    -0.048 S 
ATOM     22  O   UNL     1      32.076  -9.079 -24.457  0.00  0.00    -0.274 OA
ATOM     23  O   UNL     1      31.359  -6.272 -20.862  0.00  0.00    -0.263 OA
ATOM     24  N   UNL     1      31.690  -7.522 -22.793  0.00  0.00    -0.246 N 
ATOM     25  C   UNL     1      32.333  -9.729 -22.144  0.00  0.00    +0.137 C 
ATOM     26  C   UNL     1      32.025  -8.771 -23.272  0.00  0.00    +0.239 C 
ATOM     27  C   UNL     1      31.639  -7.311 -21.440  0.00  0.00    +0.279 C 
ATOM     28  H   UNL     1      31.488  -6.788 -23.417  0.00  0.00    +0.158 HD
ENDBRANCH  20  25
ENDBRANCH   1  20
TORSDOF 5
ENDMDL
MODEL 9
REMARK VINA RESULT:     -11.8      4.268      6.993
REMARK  Name = 204109
REMARK  5 active torsions:
REMARK  status: ('A' for Active; 'I' for Inactive)
REMARK    1  A    between atoms: C_1  and  C_20
REMARK    2  A    between atoms: C_9  and  O_11
REMARK    3  A    between atoms: O_11  and  C_12
REMARK    4  A    between atoms: C_12  and  C_14
REMARK    5  A    between atoms: C_20  and  C_25
REMARK                            x       y       z     vdW  Elec       q    Type
REMARK                         _______ _______ _______ _____ _____    ______ ____
ROOT
ATOM      1  C   UNL     1      33.547 -12.985 -23.440  0.00  0.00    -0.021 C 
ATOM      2  C   UNL     1      34.015 -15.322 -23.928  0.00  0.00    -0.000 C 
ATOM      3  C   UNL     1      33.523 -14.066 -24.320  0.00  0.00    -0.004 C 
ATOM      4  C   UNL     1      34.539 -15.482 -22.624  0.00  0.00    +0.003 C 
ATOM      5  C   UNL     1      34.063 -13.143 -22.157  0.00  0.00    -0.004 C 
ATOM      6  C   UNL     1      34.557 -14.383 -21.750  0.00  0.00    -0.000 C 
ATOM      7  C   UNL     1      35.032 -16.737 -22.231  0.00  0.00    +0.037 C 
ATOM      8  C   UNL     1      33.999 -16.422 -24.802  0.00  0.00    +0.003 C 
ATOM      9  C   UNL     1      35.008 -17.819 -23.112  0.00  0.00    +0.139 C 
ATOM     10  C   UNL     1      34.492 -17.661 -24.395  0.00  0.00    +0.037 C 
ENDROOT
BRANCH   9  11
ATOM     11  O   UNL     1      35.490 -19.030 -22.718  0.00  0.00    -0.471 OA
BRANCH  11  12
ATOM     12  C   UNL     1      35.918 -19.149 -21.363  0.00  0.00    +0.234 C 
BRANCH  12  14
ATOM     13  F   UNL     1      37.027 -21.195 -19.759  0.00  0.00    -0.204 F 
ATOM     14  C   UNL     1      35.083 -20.119 -20.598  0.00  0.00    +0.049 C 
ATOM     15  C   UNL     1      35.691 -21.107 -19.824  0.00  0.00    +0.140 C 
ATOM     16  C   UNL     1      33.692 -20.037 -20.659  0.00  0.00    +0.002 C 
ATOM     17  C   UNL     1      34.907 -22.013 -19.109  0.00  0.00    +0.029 C 
ATOM     18  C   UNL     1      32.908 -20.944 -19.945  0.00  0.00    -0.000 C 
ATOM     19  C   UNL     1      33.515 -21.931 -19.169  0.00  0.00    +0.002 C 
ENDBRANCH  12  14
ENDBRANCH  11  12
ENDBRANCH   9  11
BRANCH   1  20
ATOM     20  C   UNL     1      33.020 -11.659 -23.873  0.00  0.00    +0.047 C 
BRANCH  20  25
ATOM     21  S   UNL     1      31.357 -10.108 -22.308  0.00  0.00    -0.048 S 
ATOM     22  O   UNL     1      34.925  -9.352 -23.572  0.00  0.00    -0.274 OA
ATOM     23  O   UNL     1      30.839  -7.533 -22.424  0.00  0.00    -0.263 OA
ATOM     24  N   UNL     1      32.962  -8.257 -23.030  0.00  0.00    -0.246 N 
ATOM     25  C   UNL     1      33.044 -10.628 -22.747  0.00  0.00    +0.137 C 
ATOM     26  C   UNL     1      33.768  -9.368 -23.168  0.00  0.00    +0.239 C 
ATOM     27  C   UNL     1      31.672  -8.410 -22.595  0.00  0.00    +0.279 C 
ATOM     28  H   UNL     1      33.311  -7.361 -23.244  0.00  0.00    +0.158 HD
ENDBRANCH  20  25
ENDBRANCH   1  20
TORSDOF 5
ENDMDL
