MODEL 1
REMARK VINA RESULT:     -11.6      0.000      0.000
REMARK  Name = 56832738
REMARK  10 active torsions:
REMARK  status: ('A' for Active; 'I' for Inactive)
REMARK    1  A    between atoms: C_2  and  C_11
REMARK    2  A    between atoms: C_5  and  C_25
REMARK    3  A    between atoms: C_10  and  C_22
REMARK    4  A    between atoms: C_12  and  O_16
REMARK    5  A    between atoms: C_13  and  O_18
REMARK    6  A    between atoms: C_14  and  O_20
REMARK    7  A    between atoms: C_22  and  O_23
REMARK    8  A    between atoms: C_25  and  C_27
REMARK    9  A    between atoms: C_32  and  O_33
REMARK   10  A    between atoms: O_33  and  C_34
REMARK                            x       y       z     vdW  Elec       q    Type
REMARK                         _______ _______ _______ _____ _____    ______ ____
ROOT
ATOM      1 CL   UNL     1      30.716 -22.748 -16.899  0.00  0.00    -0.083 Cl
ATOM      2  C   UNL     1      34.378 -23.948 -14.547  0.00  0.00    +0.031 C 
ATOM      3  C   UNL     1      34.387 -24.062 -15.937  0.00  0.00    -0.003 C 
ATOM      4  C   UNL     1      33.245 -23.465 -13.894  0.00  0.00    +0.001 C 
ATOM      5  C   UNL     1      33.261 -23.694 -16.673  0.00  0.00    -0.007 C 
ATOM      6  C   UNL     1      32.119 -23.097 -14.630  0.00  0.00    +0.011 C 
ATOM      7  C   UNL     1      32.127 -23.211 -16.021  0.00  0.00    +0.054 C 
ENDROOT
BRANCH   2  11
ATOM      8  O   UNL     1      35.258 -24.797 -12.421  0.00  0.00    -0.326 OA
ATOM      9  O   UNL     1      36.478 -23.209 -13.596  0.00  0.00    -0.326 OA
ATOM     10  C   UNL     1      36.469 -24.567 -11.691  0.00  0.00    +0.176 C 
ATOM     11  C   UNL     1      35.602 -24.348 -13.746  0.00  0.00    +0.235 C 
ATOM     12  C   UNL     1      37.476 -25.678 -12.088  0.00  0.00    +0.169 C 
ATOM     13  C   UNL     1      36.412 -25.485 -14.410  0.00  0.00    +0.196 C 
ATOM     14  C   UNL     1      37.695 -25.794 -13.612  0.00  0.00    +0.172 C 
ATOM     15  C   UNL     1      36.844 -23.186 -12.210  0.00  0.00    +0.177 C 
BRANCH  12  16
ATOM     16  O   UNL     1      36.969 -26.930 -11.615  0.00  0.00    -0.379 OA
ATOM     17  H   UNL     1      37.710 -27.518 -11.400  0.00  0.00    +0.211 HD
ENDBRANCH  12  16
BRANCH  13  18
ATOM     18  O   UNL     1      35.616 -26.668 -14.477  0.00  0.00    -0.377 OA
ATOM     19  H   UNL     1      36.195 -27.445 -14.514  0.00  0.00    +0.211 HD
ENDBRANCH  13  18
BRANCH  14  20
ATOM     20  O   UNL     1      38.707 -24.869 -14.013  0.00  0.00    -0.379 OA
ATOM     21  H   UNL     1      38.754 -24.842 -14.981  0.00  0.00    +0.211 HD
ENDBRANCH  14  20
BRANCH  10  22
ATOM     22  C   UNL     1      36.170 -24.559 -10.197  0.00  0.00    +0.169 C 
BRANCH  22  23
ATOM     23  O   UNL     1      35.176 -25.533  -9.931  0.00  0.00    -0.379 OA
ATOM     24  H   UNL     1      34.298 -25.125  -9.996  0.00  0.00    +0.211 HD
ENDBRANCH  22  23
ENDBRANCH  10  22
ENDBRANCH   2  11
BRANCH   5  25
ATOM     25  C   UNL     1      33.309 -23.832 -18.161  0.00  0.00    +0.054 C 
BRANCH  25  27
ATOM     26  F   UNL     1      37.002 -21.010 -19.664  0.00  0.00    -0.201 F 
ATOM     27  C   UNL     1      33.830 -22.602 -18.873  0.00  0.00    -0.015 C 
ATOM     28  C   UNL     1      35.203 -22.365 -18.944  0.00  0.00    +0.029 C 
ATOM     29  C   UNL     1      32.937 -21.704 -19.458  0.00  0.00    -0.001 C 
ATOM     30  C   UNL     1      35.682 -21.232 -19.599  0.00  0.00    +0.174 C 
ATOM     31  C   UNL     1      33.416 -20.571 -20.113  0.00  0.00    +0.039 C 
ATOM     32  C   UNL     1      34.789 -20.334 -20.184  0.00  0.00    +0.166 C 
BRANCH  32  33
ATOM     33  O   UNL     1      35.256 -19.227 -20.824  0.00  0.00    -0.473 OA
BRANCH  33  34
ATOM     34  C   UNL     1      35.004 -19.134 -22.226  0.00  0.00    +0.206 C 
ATOM     35  C   UNL     1      35.175 -17.694 -22.662  0.00  0.00    +0.051 C 
ENDBRANCH  33  34
ENDBRANCH  32  33
ENDBRANCH  25  27
ENDBRANCH   5  25
TORSDOF 10
ENDMDL
MODEL 2
REMARK VINA RESULT:     -10.9      0.931      2.367
REMARK  Name = 56832738
REMARK  10 active torsions:
REMARK  status: ('A' for Active; 'I' for Inactive)
REMARK    1  A    between atoms: C_2  and  C_11
REMARK    2  A    between atoms: C_5  and  C_25
REMARK    3  A    between atoms: C_10  and  C_22
REMARK    4  A    between atoms: C_12  and  O_16
REMARK    5  A    between atoms: C_13  and  O_18
REMARK    6  A    between atoms: C_14  and  O_20
REMARK    7  A    between atoms: C_22  and  O_23
REMARK    8  A    between atoms: C_25  and  C_27
REMARK    9  A    between atoms: C_32  and  O_33
REMARK   10  A    between atoms: O_33  and  C_34
REMARK                            x       y       z     vdW  Elec       q    Type
REMARK                         _______ _______ _______ _____ _____    ______ ____
ROOT
ATOM      1 CL   UNL     1      30.996 -22.730 -16.671  0.00  0.00    -0.083 Cl
ATOM      2  C   UNL     1      34.671 -24.342 -14.602  0.00  0.00    +0.031 C 
ATOM      3  C   UNL     1      34.592 -24.384 -15.994  0.00  0.00    -0.003 C 
ATOM      4  C   UNL     1      33.621 -23.804 -13.860  0.00  0.00    +0.001 C 
ATOM      5  C   UNL     1      33.462 -23.888 -16.643  0.00  0.00    -0.007 C 
ATOM      6  C   UNL     1      32.490 -23.308 -14.509  0.00  0.00    +0.011 C 
ATOM      7  C   UNL     1      32.410 -23.350 -15.902  0.00  0.00    +0.054 C 
ENDROOT
BRANCH   2  11
ATOM      8  O   UNL     1      37.099 -24.187 -14.292  0.00  0.00    -0.326 OA
ATOM      9  O   UNL     1      36.083 -26.274 -14.233  0.00  0.00    -0.326 OA
ATOM     10  C   UNL     1      38.123 -25.150 -14.010  0.00  0.00    +0.176 C 
ATOM     11  C   UNL     1      35.900 -24.881 -13.896  0.00  0.00    +0.235 C 
ATOM     12  C   UNL     1      38.333 -25.175 -12.474  0.00  0.00    +0.169 C 
ATOM     13  C   UNL     1      35.806 -24.774 -12.356  0.00  0.00    +0.196 C 
ATOM     14  C   UNL     1      37.033 -25.417 -11.678  0.00  0.00    +0.172 C 
ATOM     15  C   UNL     1      37.473 -26.410 -14.561  0.00  0.00    +0.177 C 
BRANCH  12  16
ATOM     16  O   UNL     1      38.870 -23.910 -12.075  0.00  0.00    -0.379 OA
ATOM     17  H   UNL     1      39.567 -23.644 -12.695  0.00  0.00    +0.211 HD
ENDBRANCH  12  16
BRANCH  13  18
ATOM     18  O   UNL     1      35.735 -23.401 -11.973  0.00  0.00    -0.377 OA
ATOM     19  H   UNL     1      34.821 -23.179 -11.737  0.00  0.00    +0.211 HD
ENDBRANCH  13  18
BRANCH  14  20
ATOM     20  O   UNL     1      36.801 -26.822 -11.572  0.00  0.00    -0.379 OA
ATOM     21  H   UNL     1      36.678 -27.198 -12.458  0.00  0.00    +0.211 HD
ENDBRANCH  14  20
BRANCH  10  22
ATOM     22  C   UNL     1      39.393 -24.779 -14.766  0.00  0.00    +0.169 C 
BRANCH  22  23
ATOM     23  O   UNL     1      40.510 -25.097 -13.955  0.00  0.00    -0.379 OA
ATOM     24  H   UNL     1      40.202 -25.451 -13.106  0.00  0.00    +0.211 HD
ENDBRANCH  22  23
ENDBRANCH  10  22
ENDBRANCH   2  11
BRANCH   5  25
ATOM     25  C   UNL     1      33.415 -23.953 -18.136  0.00  0.00    +0.054 C 
BRANCH  25  27
ATOM     26  F   UNL     1      37.036 -20.997 -19.556  0.00  0.00    -0.201 F 
ATOM     27  C   UNL     1      33.905 -22.693 -18.818  0.00  0.00    -0.015 C 
ATOM     28  C   UNL     1      35.271 -22.417 -18.876  0.00  0.00    +0.029 C 
ATOM     29  C   UNL     1      32.990 -21.808 -19.388  0.00  0.00    -0.001 C 
ATOM     30  C   UNL     1      35.722 -21.257 -19.504  0.00  0.00    +0.174 C 
ATOM     31  C   UNL     1      33.441 -20.648 -20.016  0.00  0.00    +0.039 C 
ATOM     32  C   UNL     1      34.807 -20.372 -20.074  0.00  0.00    +0.166 C 
BRANCH  32  33
ATOM     33  O   UNL     1      35.246 -19.238 -20.687  0.00  0.00    -0.473 OA
BRANCH  33  34
ATOM     34  C   UNL     1      35.056 -19.149 -22.099  0.00  0.00    +0.206 C 
ATOM     35  C   UNL     1      35.168 -17.700 -22.520  0.00  0.00    +0.051 C 
ENDBRANCH  33  34
ENDBRANCH  32  33
ENDBRANCH  25  27
ENDBRANCH   5  25
TORSDOF 10
ENDMDL
MODEL 3
REMARK VINA RESULT:     -10.3      3.125      4.891
REMARK  Name = 56832738
REMARK  10 active torsions:
REMARK  status: ('A' for Active; 'I' for Inactive)
REMARK    1  A    between atoms: C_2  and  C_11
REMARK    2  A    between atoms: C_5  and  C_25
REMARK    3  A    between atoms: C_10  and  C_22
REMARK    4  A    between atoms: C_12  and  O_16
REMARK    5  A    between atoms: C_13  and  O_18
REMARK    6  A    between atoms: C_14  and  O_20
REMARK    7  A    between atoms: C_22  and  O_23
REMARK    8  A    between atoms: C_25  and  C_27
REMARK    9  A    between atoms: C_32  and  O_33
REMARK   10  A    between atoms: O_33  and  C_34
REMARK                            x       y       z     vdW  Elec       q    Type
REMARK                         _______ _______ _______ _____ _____    ______ ____
ROOT
ATOM      1 CL   UNL     1      37.149 -22.254 -17.326  0.00  0.00    -0.083 Cl
ATOM      2  C   UNL     1      33.246 -23.442 -15.391  0.00  0.00    +0.031 C 
ATOM      3  C   UNL     1      33.370 -23.498 -16.779  0.00  0.00    -0.003 C 
ATOM      4  C   UNL     1      34.324 -23.023 -14.611  0.00  0.00    +0.001 C 
ATOM      5  C   UNL     1      34.571 -23.134 -17.387  0.00  0.00    -0.007 C 
ATOM      6  C   UNL     1      35.525 -22.659 -15.219  0.00  0.00    +0.011 C 
ATOM      7  C   UNL     1      35.649 -22.714 -16.608  0.00  0.00    +0.054 C 
ENDROOT
BRANCH   2  11
ATOM      8  O   UNL     1      31.049 -24.502 -15.647  0.00  0.00    -0.326 OA
ATOM      9  O   UNL     1      31.259 -22.656 -14.253  0.00  0.00    -0.326 OA
ATOM     10  C   UNL     1      29.765 -24.268 -15.056  0.00  0.00    +0.176 C 
ATOM     11  C   UNL     1      31.941 -23.838 -14.730  0.00  0.00    +0.235 C 
ATOM     12  C   UNL     1      29.631 -25.213 -13.834  0.00  0.00    +0.169 C 
ATOM     13  C   UNL     1      32.138 -24.789 -13.527  0.00  0.00    +0.196 C 
ATOM     14  C   UNL     1      30.796 -25.089 -12.829  0.00  0.00    +0.172 C 
ATOM     15  C   UNL     1      29.898 -22.799 -14.683  0.00  0.00    +0.177 C 
BRANCH  12  16
ATOM     16  O   UNL     1      29.598 -26.561 -14.313  0.00  0.00    -0.379 OA
ATOM     17  H   UNL     1      28.719 -26.939 -14.155  0.00  0.00    +0.211 HD
ENDBRANCH  12  16
BRANCH  13  18
ATOM     18  O   UNL     1      32.710 -26.018 -13.974  0.00  0.00    -0.377 OA
ATOM     19  H   UNL     1      32.650 -26.069 -14.941  0.00  0.00    +0.211 HD
ENDBRANCH  13  18
BRANCH  14  20
ATOM     20  O   UNL     1      30.518 -24.028 -11.915  0.00  0.00    -0.379 OA
ATOM     21  H   UNL     1      29.607 -24.108 -11.594  0.00  0.00    +0.211 HD
ENDBRANCH  14  20
BRANCH  10  22
ATOM     22  C   UNL     1      28.676 -24.501 -16.096  0.00  0.00    +0.169 C 
BRANCH  22  23
ATOM     23  O   UNL     1      28.583 -23.351 -16.918  0.00  0.00    -0.379 OA
ATOM     24  H   UNL     1      27.734 -23.358 -17.388  0.00  0.00    +0.211 HD
ENDBRANCH  22  23
ENDBRANCH  10  22
ENDBRANCH   2  11
BRANCH   5  25
ATOM     25  C   UNL     1      34.663 -23.207 -18.878  0.00  0.00    +0.054 C 
BRANCH  25  27
ATOM     26  F   UNL     1      37.257 -19.479 -20.678  0.00  0.00    -0.201 F 
ATOM     27  C   UNL     1      34.744 -21.853 -19.552  0.00  0.00    -0.015 C 
ATOM     28  C   UNL     1      35.987 -21.275 -19.811  0.00  0.00    +0.029 C 
ATOM     29  C   UNL     1      33.575 -21.184 -19.913  0.00  0.00    -0.001 C 
ATOM     30  C   UNL     1      36.060 -20.029 -20.432  0.00  0.00    +0.174 C 
ATOM     31  C   UNL     1      33.648 -19.938 -20.534  0.00  0.00    +0.039 C 
ATOM     32  C   UNL     1      34.891 -19.360 -20.793  0.00  0.00    +0.166 C 
BRANCH  32  33
ATOM     33  O   UNL     1      34.961 -18.142 -21.399  0.00  0.00    -0.473 OA
BRANCH  33  34
ATOM     34  C   UNL     1      35.045 -18.131 -22.823  0.00  0.00    +0.206 C 
ATOM     35  C   UNL     1      34.938 -16.702 -23.311  0.00  0.00    +0.051 C 
ENDBRANCH  33  34
ENDBRANCH  32  33
ENDBRANCH  25  27
ENDBRANCH   5  25
TORSDOF 10
ENDMDL
MODEL 4
REMARK VINA RESULT:     -10.3      1.239      2.331
REMARK  Name = 56832738
REMARK  10 active torsions:
REMARK  status: ('A' for Active; 'I' for Inactive)
REMARK    1  A    between atoms: C_2  and  C_11
REMARK    2  A    between atoms: C_5  and  C_25
REMARK    3  A    between atoms: C_10  and  C_22
REMARK    4  A    between atoms: C_12  and  O_16
REMARK    5  A    between atoms: C_13  and  O_18
REMARK    6  A    between atoms: C_14  and  O_20
REMARK    7  A    between atoms: C_22  and  O_23
REMARK    8  A    between atoms: C_25  and  C_27
REMARK    9  A    between atoms: C_32  and  O_33
REMARK   10  A    between atoms: O_33  and  C_34
REMARK                            x       y       z     vdW  Elec       q    Type
REMARK                         _______ _______ _______ _____ _____    ______ ____
ROOT
ATOM      1 CL   UNL     1      30.480 -22.714 -16.512  0.00  0.00    -0.083 Cl
ATOM      2  C   UNL     1      34.475 -23.927 -14.791  0.00  0.00    +0.031 C 
ATOM      3  C   UNL     1      34.291 -23.935 -16.174  0.00  0.00    -0.003 C 
ATOM      4  C   UNL     1      33.429 -23.544 -13.951  0.00  0.00    +0.001 C 
ATOM      5  C   UNL     1      33.061 -23.562 -16.716  0.00  0.00    -0.007 C 
ATOM      6  C   UNL     1      32.200 -23.171 -14.493  0.00  0.00    +0.011 C 
ATOM      7  C   UNL     1      32.015 -23.179 -15.876  0.00  0.00    +0.054 C 
ENDROOT
BRANCH   2  11
ATOM      8  O   UNL     1      36.504 -25.282 -15.034  0.00  0.00    -0.326 OA
ATOM      9  O   UNL     1      35.605 -24.960 -12.917  0.00  0.00    -0.326 OA
ATOM     10  C   UNL     1      37.371 -25.939 -14.101  0.00  0.00    +0.176 C 
ATOM     11  C   UNL     1      35.811 -24.332 -14.202  0.00  0.00    +0.235 C 
ATOM     12  C   UNL     1      38.540 -24.971 -13.785  0.00  0.00    +0.169 C 
ATOM     13  C   UNL     1      36.768 -23.134 -13.995  0.00  0.00    +0.196 C 
ATOM     14  C   UNL     1      38.075 -23.578 -13.309  0.00  0.00    +0.172 C 
ATOM     15  C   UNL     1      36.414 -26.145 -12.936  0.00  0.00    +0.177 C 
BRANCH  12  16
ATOM     16  O   UNL     1      39.313 -24.799 -14.976  0.00  0.00    -0.379 OA
ATOM     17  H   UNL     1      39.131 -23.925 -15.356  0.00  0.00    +0.211 HD
ENDBRANCH  12  16
BRANCH  13  18
ATOM     18  O   UNL     1      37.086 -22.550 -15.258  0.00  0.00    -0.377 OA
ATOM     19  H   UNL     1      37.435 -21.655 -15.121  0.00  0.00    +0.211 HD
ENDBRANCH  13  18
BRANCH  14  20
ATOM     20  O   UNL     1      37.851 -23.613 -11.899  0.00  0.00    -0.379 OA
ATOM     21  H   UNL     1      38.659 -23.341 -11.436  0.00  0.00    +0.211 HD
ENDBRANCH  14  20
BRANCH  10  22
ATOM     22  C   UNL     1      37.850 -27.259 -14.692  0.00  0.00    +0.169 C 
BRANCH  22  23
ATOM     23  O   UNL     1      37.037 -27.575 -15.808  0.00  0.00    -0.379 OA
ATOM     24  H   UNL     1      36.451 -28.315 -15.582  0.00  0.00    +0.211 HD
ENDBRANCH  22  23
ENDBRANCH  10  22
ENDBRANCH   2  11
BRANCH   5  25
ATOM     25  C   UNL     1      32.904 -23.585 -18.202  0.00  0.00    +0.054 C 
BRANCH  25  27
ATOM     26  F   UNL     1      37.019 -21.356 -19.602  0.00  0.00    -0.201 F 
ATOM     27  C   UNL     1      33.624 -22.457 -18.912  0.00  0.00    -0.015 C 
ATOM     28  C   UNL     1      35.018 -22.423 -18.933  0.00  0.00    +0.029 C 
ATOM     29  C   UNL     1      32.892 -21.452 -19.543  0.00  0.00    -0.001 C 
ATOM     30  C   UNL     1      35.680 -21.384 -19.586  0.00  0.00    +0.174 C 
ATOM     31  C   UNL     1      33.553 -20.413 -20.196  0.00  0.00    +0.039 C 
ATOM     32  C   UNL     1      34.948 -20.378 -20.217  0.00  0.00    +0.166 C 
BRANCH  32  33
ATOM     33  O   UNL     1      35.593 -19.363 -20.854  0.00  0.00    -0.473 OA
BRANCH  33  34
ATOM     34  C   UNL     1      35.068 -18.952 -22.116  0.00  0.00    +0.206 C 
ATOM     35  C   UNL     1      35.385 -17.487 -22.328  0.00  0.00    +0.051 C 
ENDBRANCH  33  34
ENDBRANCH  32  33
ENDBRANCH  25  27
ENDBRANCH   5  25
TORSDOF 10
ENDMDL
MODEL 5
REMARK VINA RESULT:      -9.5      3.202      5.256
REMARK  Name = 56832738
REMARK  10 active torsions:
REMARK  status: ('A' for Active; 'I' for Inactive)
REMARK    1  A    between atoms: C_2  and  C_11
REMARK    2  A    between atoms: C_5  and  C_25
REMARK    3  A    between atoms: C_10  and  C_22
REMARK    4  A    between atoms: C_12  and  O_16
REMARK    5  A    between atoms: C_13  and  O_18
REMARK    6  A    between atoms: C_14  and  O_20
REMARK    7  A    between atoms: C_22  and  O_23
REMARK    8  A    between atoms: C_25  and  C_27
REMARK    9  A    between atoms: C_32  and  O_33
REMARK   10  A    between atoms: O_33  and  C_34
REMARK                            x       y       z     vdW  Elec       q    Type
REMARK                         _______ _______ _______ _____ _____    ______ ____
ROOT
ATOM      1 CL   UNL     1      35.537 -21.167 -19.437  0.00  0.00    -0.083 Cl
ATOM      2  C   UNL     1      36.675 -23.226 -15.584  0.00  0.00    +0.031 C 
ATOM      3  C   UNL     1      35.384 -23.379 -16.089  0.00  0.00    -0.003 C 
ATOM      4  C   UNL     1      37.604 -22.444 -16.269  0.00  0.00    +0.001 C 
ATOM      5  C   UNL     1      35.022 -22.747 -17.279  0.00  0.00    -0.007 C 
ATOM      6  C   UNL     1      37.242 -21.813 -17.459  0.00  0.00    +0.011 C 
ATOM      7  C   UNL     1      35.951 -21.964 -17.965  0.00  0.00    +0.054 C 
ENDROOT
BRANCH   2  11
ATOM      8  O   UNL     1      35.947 -24.556 -13.656  0.00  0.00    -0.326 OA
ATOM      9  O   UNL     1      37.583 -22.935 -13.359  0.00  0.00    -0.326 OA
ATOM     10  C   UNL     1      36.357 -24.614 -12.284  0.00  0.00    +0.176 C 
ATOM     11  C   UNL     1      37.069 -23.913 -14.291  0.00  0.00    +0.235 C 
ATOM     12  C   UNL     1      37.411 -25.744 -12.156  0.00  0.00    +0.169 C 
ATOM     13  C   UNL     1      38.155 -24.996 -14.490  0.00  0.00    +0.196 C 
ATOM     14  C   UNL     1      38.592 -25.600 -13.140  0.00  0.00    +0.172 C 
ATOM     15  C   UNL     1      36.933 -23.216 -12.112  0.00  0.00    +0.177 C 
BRANCH  12  16
ATOM     16  O   UNL     1      36.762 -26.992 -12.420  0.00  0.00    -0.379 OA
ATOM     17  H   UNL     1      37.407 -27.713 -12.349  0.00  0.00    +0.211 HD
ENDBRANCH  12  16
BRANCH  13  18
ATOM     18  O   UNL     1      37.647 -26.040 -15.319  0.00  0.00    -0.377 OA
ATOM     19  H   UNL     1      38.346 -26.694 -15.480  0.00  0.00    +0.211 HD
ENDBRANCH  13  18
BRANCH  14  20
ATOM     20  O   UNL     1      39.581 -24.746 -12.565  0.00  0.00    -0.379 OA
ATOM     21  H   UNL     1      39.654 -23.935 -13.092  0.00  0.00    +0.211 HD
ENDBRANCH  14  20
BRANCH  10  22
ATOM     22  C   UNL     1      35.140 -24.848 -11.398  0.00  0.00    +0.169 C 
BRANCH  22  23
ATOM     23  O   UNL     1      35.565 -25.489 -10.208  0.00  0.00    -0.379 OA
ATOM     24  H   UNL     1      36.299 -24.990  -9.817  0.00  0.00    +0.211 HD
ENDBRANCH  22  23
ENDBRANCH  10  22
ENDBRANCH   2  11
BRANCH   5  25
ATOM     25  C   UNL     1      33.628 -22.934 -17.786  0.00  0.00    +0.054 C 
BRANCH  25  27
ATOM     26  F   UNL     1      29.090 -22.759 -15.986  0.00  0.00    -0.201 F 
ATOM     27  C   UNL     1      32.621 -23.254 -16.702  0.00  0.00    -0.015 C 
ATOM     28  C   UNL     1      31.292 -22.852 -16.843  0.00  0.00    +0.029 C 
ATOM     29  C   UNL     1      33.022 -23.949 -15.561  0.00  0.00    -0.001 C 
ATOM     30  C   UNL     1      30.365 -23.147 -15.844  0.00  0.00    +0.174 C 
ATOM     31  C   UNL     1      32.095 -24.244 -14.563  0.00  0.00    +0.039 C 
ATOM     32  C   UNL     1      30.766 -23.843 -14.704  0.00  0.00    +0.166 C 
BRANCH  32  33
ATOM     33  O   UNL     1      29.862 -24.131 -13.727  0.00  0.00    -0.473 OA
BRANCH  33  34
ATOM     34  C   UNL     1      29.736 -25.500 -13.344  0.00  0.00    +0.206 C 
ATOM     35  C   UNL     1      28.985 -26.246 -14.426  0.00  0.00    +0.051 C 
ENDBRANCH  33  34
ENDBRANCH  32  33
ENDBRANCH  25  27
ENDBRANCH   5  25
TORSDOF 10
ENDMDL
MODEL 6
REMARK VINA RESULT:      -8.9     10.626     16.896
REMARK  Name = 56832738
REMARK  10 active torsions:
REMARK  status: ('A' for Active; 'I' for Inactive)
REMARK    1  A    between atoms: C_2  and  C_11
REMARK    2  A    between atoms: C_5  and  C_25
REMARK    3  A    between atoms: C_10  and  C_22
REMARK    4  A    between atoms: C_12  and  O_16
REMARK    5  A    between atoms: C_13  and  O_18
REMARK    6  A    between atoms: C_14  and  O_20
REMARK    7  A    between atoms: C_22  and  O_23
REMARK    8  A    between atoms: C_25  and  C_27
REMARK    9  A    between atoms: C_32  and  O_33
REMARK   10  A    between atoms: O_33  and  C_34
REMARK                            x       y       z     vdW  Elec       q    Type
REMARK                         _______ _______ _______ _____ _____    ______ ____
ROOT
ATOM      1 CL   UNL     1      31.621 -10.762 -18.157  0.00  0.00    -0.083 Cl
ATOM      2  C   UNL     1      32.321  -8.313 -21.885  0.00  0.00    +0.031 C 
ATOM      3  C   UNL     1      31.891  -9.634 -22.001  0.00  0.00    -0.003 C 
ATOM      4  C   UNL     1      32.530  -7.756 -20.623  0.00  0.00    +0.001 C 
ATOM      5  C   UNL     1      31.672 -10.400 -20.856  0.00  0.00    -0.007 C 
ATOM      6  C   UNL     1      32.310  -8.522 -19.478  0.00  0.00    +0.011 C 
ATOM      7  C   UNL     1      31.880  -9.844 -19.594  0.00  0.00    +0.054 C 
ENDROOT
BRANCH   2  11
ATOM      8  O   UNL     1      32.831  -6.101 -22.813  0.00  0.00    -0.326 OA
ATOM      9  O   UNL     1      31.379  -7.503 -23.963  0.00  0.00    -0.326 OA
ATOM     10  C   UNL     1      32.456  -5.426 -24.021  0.00  0.00    +0.176 C 
ATOM     11  C   UNL     1      32.560  -7.481 -23.129  0.00  0.00    +0.235 C 
ATOM     12  C   UNL     1      33.575  -5.678 -25.065  0.00  0.00    +0.169 C 
ATOM     13  C   UNL     1      33.748  -7.989 -23.977  0.00  0.00    +0.196 C 
ATOM     14  C   UNL     1      33.895  -7.173 -25.276  0.00  0.00    +0.172 C 
ATOM     15  C   UNL     1      31.150  -6.138 -24.339  0.00  0.00    +0.177 C 
BRANCH  12  16
ATOM     16  O   UNL     1      34.765  -5.027 -24.611  0.00  0.00    -0.379 OA
ATOM     17  H   UNL     1      35.485  -5.192 -25.240  0.00  0.00    +0.211 HD
ENDBRANCH  12  16
BRANCH  13  18
ATOM     18  O   UNL     1      34.957  -7.880 -23.225  0.00  0.00    -0.377 OA
ATOM     19  H   UNL     1      35.092  -8.691 -22.710  0.00  0.00    +0.211 HD
ENDBRANCH  13  18
BRANCH  14  20
ATOM     20  O   UNL     1      33.000  -7.713 -26.249  0.00  0.00    -0.379 OA
ATOM     21  H   UNL     1      32.565  -8.500 -25.886  0.00  0.00    +0.211 HD
ENDBRANCH  14  20
BRANCH  10  22
ATOM     22  C   UNL     1      32.249  -3.945 -23.734  0.00  0.00    +0.169 C 
BRANCH  22  23
ATOM     23  O   UNL     1      30.878  -3.727 -23.452  0.00  0.00    -0.379 OA
ATOM     24  H   UNL     1      30.370  -4.519 -23.687  0.00  0.00    +0.211 HD
ENDBRANCH  22  23
ENDBRANCH  10  22
ENDBRANCH   2  11
BRANCH   5  25
ATOM     25  C   UNL     1      31.213 -11.813 -21.024  0.00  0.00    +0.054 C 
BRANCH  25  27
ATOM     26  F   UNL     1      34.512 -15.318 -20.190  0.00  0.00    -0.201 F 
ATOM     27  C   UNL     1      32.296 -12.754 -21.508  0.00  0.00    -0.015 C 
ATOM     28  C   UNL     1      32.920 -13.621 -20.611  0.00  0.00    +0.029 C 
ATOM     29  C   UNL     1      32.671 -12.753 -22.851  0.00  0.00    -0.001 C 
ATOM     30  C   UNL     1      33.917 -14.487 -21.057  0.00  0.00    +0.174 C 
ATOM     31  C   UNL     1      33.668 -13.619 -23.298  0.00  0.00    +0.039 C 
ATOM     32  C   UNL     1      34.292 -14.486 -22.400  0.00  0.00    +0.166 C 
BRANCH  32  33
ATOM     33  O   UNL     1      35.266 -15.331 -22.837  0.00  0.00    -0.473 OA
BRANCH  33  34
ATOM     34  C   UNL     1      34.887 -16.315 -23.799  0.00  0.00    +0.206 C 
ATOM     35  C   UNL     1      34.919 -17.680 -23.144  0.00  0.00    +0.051 C 
ENDBRANCH  33  34
ENDBRANCH  32  33
ENDBRANCH  25  27
ENDBRANCH   5  25
TORSDOF 10
ENDMDL
MODEL 7
REMARK VINA RESULT:      -8.8      3.734      7.449
REMARK  Name = 56832738
REMARK  10 active torsions:
REMARK  status: ('A' for Active; 'I' for Inactive)
REMARK    1  A    between atoms: C_2  and  C_11
REMARK    2  A    between atoms: C_5  and  C_25
REMARK    3  A    between atoms: C_10  and  C_22
REMARK    4  A    between atoms: C_12  and  O_16
REMARK    5  A    between atoms: C_13  and  O_18
REMARK    6  A    between atoms: C_14  and  O_20
REMARK    7  A    between atoms: C_22  and  O_23
REMARK    8  A    between atoms: C_25  and  C_27
REMARK    9  A    between atoms: C_32  and  O_33
REMARK   10  A    between atoms: O_33  and  C_34
REMARK                            x       y       z     vdW  Elec       q    Type
REMARK                         _______ _______ _______ _____ _____    ______ ____
ROOT
ATOM      1 CL   UNL     1      36.689 -22.053 -18.174  0.00  0.00    -0.083 Cl
ATOM      2  C   UNL     1      33.089 -23.377 -15.793  0.00  0.00    +0.031 C 
ATOM      3  C   UNL     1      34.252 -22.995 -15.125  0.00  0.00    -0.003 C 
ATOM      4  C   UNL     1      33.044 -23.347 -17.186  0.00  0.00    +0.001 C 
ATOM      5  C   UNL     1      35.370 -22.583 -15.850  0.00  0.00    -0.007 C 
ATOM      6  C   UNL     1      34.162 -22.935 -17.912  0.00  0.00    +0.011 C 
ATOM      7  C   UNL     1      35.325 -22.553 -17.244  0.00  0.00    +0.054 C 
ENDROOT
BRANCH   2  11
ATOM      8  O   UNL     1      30.955 -24.585 -15.812  0.00  0.00    -0.326 OA
ATOM      9  O   UNL     1      31.157 -22.667 -14.519  0.00  0.00    -0.326 OA
ATOM     10  C   UNL     1      29.712 -24.406 -15.122  0.00  0.00    +0.176 C 
ATOM     11  C   UNL     1      31.874 -23.824 -15.005  0.00  0.00    +0.235 C 
ATOM     12  C   UNL     1      29.745 -25.300 -13.855  0.00  0.00    +0.169 C 
ATOM     13  C   UNL     1      32.235 -24.703 -13.785  0.00  0.00    +0.196 C 
ATOM     14  C   UNL     1      30.980 -25.056 -12.961  0.00  0.00    +0.172 C 
ATOM     15  C   UNL     1      29.777 -22.916 -14.822  0.00  0.00    +0.177 C 
BRANCH  12  16
ATOM     16  O   UNL     1      29.763 -26.668 -14.274  0.00  0.00    -0.379 OA
ATOM     17  H   UNL     1      30.415 -27.159 -13.749  0.00  0.00    +0.211 HD
ENDBRANCH  12  16
BRANCH  13  18
ATOM     18  O   UNL     1      32.849 -25.913 -14.230  0.00  0.00    -0.377 OA
ATOM     19  H   UNL     1      33.298 -26.340 -13.483  0.00  0.00    +0.211 HD
ENDBRANCH  13  18
BRANCH  14  20
ATOM     20  O   UNL     1      30.709 -23.972 -12.071  0.00  0.00    -0.379 OA
ATOM     21  H   UNL     1      29.759 -23.780 -12.075  0.00  0.00    +0.211 HD
ENDBRANCH  14  20
BRANCH  10  22
ATOM     22  C   UNL     1      28.557 -24.756 -16.052  0.00  0.00    +0.169 C 
BRANCH  22  23
ATOM     23  O   UNL     1      28.461 -23.755 -17.050  0.00  0.00    -0.379 OA
ATOM     24  H   UNL     1      28.948 -22.966 -16.763  0.00  0.00    +0.211 HD
ENDBRANCH  22  23
ENDBRANCH  10  22
ENDBRANCH   2  11
BRANCH   5  25
ATOM     25  C   UNL     1      36.597 -22.183 -15.097  0.00  0.00    +0.054 C 
BRANCH  25  27
ATOM     26  F   UNL     1      37.757 -25.416 -11.623  0.00  0.00    -0.201 F 
ATOM     27  C   UNL     1      37.418 -23.354 -14.599  0.00  0.00    -0.015 C 
ATOM     28  C   UNL     1      37.208 -23.858 -13.315  0.00  0.00    +0.029 C 
ATOM     29  C   UNL     1      38.386 -23.928 -15.423  0.00  0.00    -0.001 C 
ATOM     30  C   UNL     1      37.964 -24.936 -12.857  0.00  0.00    +0.174 C 
ATOM     31  C   UNL     1      39.142 -25.006 -14.965  0.00  0.00    +0.039 C 
ATOM     32  C   UNL     1      38.931 -25.510 -13.682  0.00  0.00    +0.166 C 
BRANCH  32  33
ATOM     33  O   UNL     1      39.671 -26.563 -13.235  0.00  0.00    -0.473 OA
BRANCH  33  34
ATOM     34  C   UNL     1      40.901 -26.823 -13.910  0.00  0.00    +0.206 C 
ATOM     35  C   UNL     1      41.675 -27.868 -13.135  0.00  0.00    +0.051 C 
ENDBRANCH  33  34
ENDBRANCH  32  33
ENDBRANCH  25  27
ENDBRANCH   5  25
TORSDOF 10
ENDMDL
