MODEL 1
REMARK VINA RESULT:     -11.2      0.000      0.000
REMARK  Name = 46937134
REMARK  9 active torsions:
REMARK  status: ('A' for Active; 'I' for Inactive)
REMARK    1  A    between atoms: N_2  and  C_15
REMARK    2  A    between atoms: N_6  and  C_29
REMARK    3  A    between atoms: C_16  and  O_19
REMARK    4  A    between atoms: C_18  and  C_21
REMARK    5  A    between atoms: C_21  and  O_22
REMARK    6  A    between atoms: O_22  and  P_23
REMARK    7  A    between atoms: P_23  and  O_25
REMARK    8  A    between atoms: P_23  and  O_27
REMARK    9  A    between atoms: C_29  and  C_30
REMARK                            x       y       z     vdW  Elec       q    Type
REMARK                         _______ _______ _______ _____ _____    ______ ____
ROOT
ATOM      1  O   UNL     1      33.879 -20.013 -24.762  0.00  0.00    -0.208 OA
ATOM      2  N   UNL     1      34.184 -15.556 -24.080  0.00  0.00    -0.209 NA
ATOM      3  N   UNL     1      35.295 -16.987 -22.456  0.00  0.00    -0.279 N 
ATOM      4  N   UNL     1      33.371 -17.180 -25.398  0.00  0.00    -0.241 NA
ATOM      5  N   UNL     1      35.078 -19.337 -22.898  0.00  0.00    -0.301 NA
ATOM      6  N   UNL     1      36.260 -18.519 -21.058  0.00  0.00    -0.292 N 
ATOM      7  C   UNL     1      34.569 -16.740 -23.550  0.00  0.00    +0.191 C 
ATOM      8  C   UNL     1      33.456 -15.875 -25.204  0.00  0.00    +0.205 C 
ATOM      9  C   UNL     1      34.072 -17.721 -24.357  0.00  0.00    +0.183 C 
ATOM     10  C   UNL     1      35.525 -18.330 -22.169  0.00  0.00    +0.248 C 
ATOM     11  C   UNL     1      34.315 -19.116 -24.051  0.00  0.00    +0.224 C 
ATOM     12  H   UNL     1      35.645 -16.263 -21.887  0.00  0.00    +0.152 HD
ATOM     13  H   UNL     1      36.564 -17.729 -20.556  0.00  0.00    +0.151 HD
ENDROOT
BRANCH   2  15
ATOM     14  O   UNL     1      34.327 -14.077 -22.137  0.00  0.00    -0.338 OA
ATOM     15  C   UNL     1      34.476 -14.168 -23.567  0.00  0.00    +0.182 C 
ATOM     16  C   UNL     1      33.589 -12.031 -23.100  0.00  0.00    +0.144 C 
ATOM     17  C   UNL     1      33.558 -13.105 -24.163  0.00  0.00    +0.079 C 
ATOM     18  C   UNL     1      33.679 -12.832 -21.807  0.00  0.00    +0.174 C 
BRANCH  16  19
ATOM     19  O   UNL     1      34.777 -11.261 -23.270  0.00  0.00    -0.382 OA
ATOM     20  H   UNL     1      34.803 -10.557 -22.602  0.00  0.00    +0.210 HD
ENDBRANCH  16  19
BRANCH  18  21
ATOM     21  C   UNL     1      32.312 -13.156 -21.219  0.00  0.00    +0.186 C 
BRANCH  21  22
ATOM     22  O   UNL     1      32.080 -12.299 -20.114  0.00  0.00    -0.271 OA
BRANCH  22  23
ATOM     23  P   UNL     1      31.315 -10.896 -20.371  0.00  0.00    +0.473 P 
ATOM     24  O   UNL     1      32.137  -9.842 -21.054  0.00  0.00    -0.227 OA
BRANCH  23  25
ATOM     25  O   UNL     1      29.986 -11.350 -21.173  0.00  0.00    -0.303 OA
ATOM     26  H   UNL     1      29.525 -10.564 -21.507  0.00  0.00    +0.222 HD
ENDBRANCH  23  25
BRANCH  23  27
ATOM     27  O   UNL     1      30.749 -10.494 -18.910  0.00  0.00    -0.303 OA
ATOM     28  H   UNL     1      31.470 -10.535 -18.263  0.00  0.00    +0.222 HD
ENDBRANCH  23  27
ENDBRANCH  22  23
ENDBRANCH  21  22
ENDBRANCH  18  21
ENDBRANCH   2  15
BRANCH   6  29
ATOM     29  C   UNL     1      36.623 -19.829 -20.568  0.00  0.00    +0.117 C 
BRANCH  29  30
ATOM     30  C   UNL     1      35.431 -20.528 -19.990  0.00  0.00    -0.003 C 
ATOM     31  C   UNL     1      35.528 -21.350 -18.856  0.00  0.00    -0.002 C 
ATOM     32  C   UNL     1      34.364 -21.984 -18.359  0.00  0.00    -0.000 C 
ATOM     33  C   UNL     1      34.205 -20.333 -20.624  0.00  0.00    -0.003 C 
ATOM     34  C   UNL     1      36.754 -21.559 -18.204  0.00  0.00    -0.000 C 
ATOM     35  C   UNL     1      33.138 -21.777 -19.011  0.00  0.00    -0.000 C 
ATOM     36  C   UNL     1      33.060 -20.955 -20.136  0.00  0.00    -0.000 C 
ATOM     37  C   UNL     1      34.460 -22.807 -17.225  0.00  0.00    -0.000 C 
ATOM     38  C   UNL     1      36.832 -22.380 -17.078  0.00  0.00    -0.000 C 
ATOM     39  C   UNL     1      35.687 -23.002 -16.590  0.00  0.00    -0.000 C 
ENDBRANCH  29  30
ENDBRANCH   6  29
TORSDOF 9
ENDMDL
MODEL 2
REMARK VINA RESULT:     -11.2      5.692     12.105
REMARK  Name = 46937134
REMARK  9 active torsions:
REMARK  status: ('A' for Active; 'I' for Inactive)
REMARK    1  A    between atoms: N_2  and  C_15
REMARK    2  A    between atoms: N_6  and  C_29
REMARK    3  A    between atoms: C_16  and  O_19
REMARK    4  A    between atoms: C_18  and  C_21
REMARK    5  A    between atoms: C_21  and  O_22
REMARK    6  A    between atoms: O_22  and  P_23
REMARK    7  A    between atoms: P_23  and  O_25
REMARK    8  A    between atoms: P_23  and  O_27
REMARK    9  A    between atoms: C_29  and  C_30
REMARK                            x       y       z     vdW  Elec       q    Type
REMARK                         _______ _______ _______ _____ _____    ______ ____
ROOT
ATOM      1  O   UNL     1      31.529 -10.172 -18.467  0.00  0.00    -0.208 OA
ATOM      2  N   UNL     1      32.383 -12.872 -21.990  0.00  0.00    -0.209 NA
ATOM      3  N   UNL     1      31.970 -10.527 -22.487  0.00  0.00    -0.279 N 
ATOM      4  N   UNL     1      32.152 -12.747 -19.761  0.00  0.00    -0.241 NA
ATOM      5  N   UNL     1      31.524  -9.170 -20.557  0.00  0.00    -0.301 NA
ATOM      6  N   UNL     1      31.552  -8.289 -22.718  0.00  0.00    -0.292 N 
ATOM      7  C   UNL     1      32.103 -11.585 -21.682  0.00  0.00    +0.191 C 
ATOM      8  C   UNL     1      32.403 -13.542 -20.787  0.00  0.00    +0.205 C 
ATOM      9  C   UNL     1      31.964 -11.517 -20.327  0.00  0.00    +0.183 C 
ATOM     10  C   UNL     1      31.674  -9.319 -21.860  0.00  0.00    +0.248 C 
ATOM     11  C   UNL     1      31.657 -10.256 -19.682  0.00  0.00    +0.224 C 
ATOM     12  H   UNL     1      32.074 -10.597 -23.464  0.00  0.00    +0.152 HD
ATOM     13  H   UNL     1      31.675  -8.462 -23.680  0.00  0.00    +0.151 HD
ENDROOT
BRANCH   2  15
ATOM     14  O   UNL     1      32.757 -14.905 -23.296  0.00  0.00    -0.338 OA
ATOM     15  C   UNL     1      32.626 -13.471 -23.352  0.00  0.00    +0.182 C 
ATOM     16  C   UNL     1      34.244 -14.079 -24.959  0.00  0.00    +0.144 C 
ATOM     17  C   UNL     1      33.896 -12.950 -24.018  0.00  0.00    +0.079 C 
ATOM     18  C   UNL     1      33.820 -15.318 -24.180  0.00  0.00    +0.174 C 
BRANCH  16  19
ATOM     19  O   UNL     1      33.443 -13.954 -26.132  0.00  0.00    -0.382 OA
ATOM     20  H   UNL     1      33.903 -14.363 -26.882  0.00  0.00    +0.210 HD
ENDBRANCH  16  19
BRANCH  18  21
ATOM     21  C   UNL     1      34.944 -15.890 -23.326  0.00  0.00    +0.186 C 
BRANCH  21  22
ATOM     22  O   UNL     1      34.857 -17.304 -23.352  0.00  0.00    -0.271 OA
BRANCH  22  23
ATOM     23  P   UNL     1      35.369 -18.133 -22.058  0.00  0.00    +0.473 P 
ATOM     24  O   UNL     1      35.319 -17.378 -20.762  0.00  0.00    -0.227 OA
BRANCH  23  25
ATOM     25  O   UNL     1      34.463 -19.471 -22.104  0.00  0.00    -0.303 OA
ATOM     26  H   UNL     1      33.779 -19.422 -21.418  0.00  0.00    +0.222 HD
ENDBRANCH  23  25
BRANCH  23  27
ATOM     27  O   UNL     1      36.834 -18.659 -22.496  0.00  0.00    -0.303 OA
ATOM     28  H   UNL     1      37.430 -18.629 -21.732  0.00  0.00    +0.222 HD
ENDBRANCH  23  27
ENDBRANCH  22  23
ENDBRANCH  21  22
ENDBRANCH  18  21
ENDBRANCH   2  15
BRANCH   6  29
ATOM     29  C   UNL     1      31.249  -6.942 -22.293  0.00  0.00    +0.117 C 
BRANCH  29  30
ATOM     30  C   UNL     1      31.756  -5.944 -23.287  0.00  0.00    -0.003 C 
ATOM     31  C   UNL     1      31.792  -4.568 -23.010  0.00  0.00    -0.002 C 
ATOM     32  C   UNL     1      32.283  -3.675 -23.992  0.00  0.00    -0.000 C 
ATOM     33  C   UNL     1      32.200  -6.433 -24.516  0.00  0.00    -0.003 C 
ATOM     34  C   UNL     1      31.350  -4.057 -21.779  0.00  0.00    -0.000 C 
ATOM     35  C   UNL     1      32.724  -4.186 -25.224  0.00  0.00    -0.000 C 
ATOM     36  C   UNL     1      32.683  -5.557 -25.482  0.00  0.00    -0.000 C 
ATOM     37  C   UNL     1      32.318  -2.299 -23.715  0.00  0.00    -0.000 C 
ATOM     38  C   UNL     1      31.391  -2.687 -21.520  0.00  0.00    -0.000 C 
ATOM     39  C   UNL     1      31.875  -1.810 -22.486  0.00  0.00    -0.000 C 
ENDBRANCH  29  30
ENDBRANCH   6  29
TORSDOF 9
ENDMDL
MODEL 3
REMARK VINA RESULT:     -11.1      5.548     11.972
REMARK  Name = 46937134
REMARK  9 active torsions:
REMARK  status: ('A' for Active; 'I' for Inactive)
REMARK    1  A    between atoms: N_2  and  C_15
REMARK    2  A    between atoms: N_6  and  C_29
REMARK    3  A    between atoms: C_16  and  O_19
REMARK    4  A    between atoms: C_18  and  C_21
REMARK    5  A    between atoms: C_21  and  O_22
REMARK    6  A    between atoms: O_22  and  P_23
REMARK    7  A    between atoms: P_23  and  O_25
REMARK    8  A    between atoms: P_23  and  O_27
REMARK    9  A    between atoms: C_29  and  C_30
REMARK                            x       y       z     vdW  Elec       q    Type
REMARK                         _______ _______ _______ _____ _____    ______ ____
ROOT
ATOM      1  O   UNL     1      31.565  -9.009 -18.363  0.00  0.00    -0.208 OA
ATOM      2  N   UNL     1      32.279 -12.049 -21.631  0.00  0.00    -0.209 NA
ATOM      3  N   UNL     1      32.008  -9.735 -22.333  0.00  0.00    -0.279 N 
ATOM      4  N   UNL     1      32.042 -11.718 -19.424  0.00  0.00    -0.241 NA
ATOM      5  N   UNL     1      31.632  -8.193 -20.532  0.00  0.00    -0.301 NA
ATOM      6  N   UNL     1      31.726  -7.505 -22.761  0.00  0.00    -0.292 N 
ATOM      7  C   UNL     1      32.073 -10.726 -21.438  0.00  0.00    +0.191 C 
ATOM      8  C   UNL     1      32.251 -12.612 -20.375  0.00  0.00    +0.205 C 
ATOM      9  C   UNL     1      31.931 -10.533 -20.096  0.00  0.00    +0.183 C 
ATOM     10  C   UNL     1      31.781  -8.462 -21.816  0.00  0.00    +0.248 C 
ATOM     11  C   UNL     1      31.695  -9.205 -19.565  0.00  0.00    +0.224 C 
ATOM     12  H   UNL     1      32.114  -9.896 -23.299  0.00  0.00    +0.152 HD
ATOM     13  H   UNL     1      31.843  -7.768 -23.702  0.00  0.00    +0.151 HD
ENDROOT
BRANCH   2  15
ATOM     14  O   UNL     1      32.524 -14.206 -22.756  0.00  0.00    -0.338 OA
ATOM     15  C   UNL     1      32.494 -12.777 -22.934  0.00  0.00    +0.182 C 
ATOM     16  C   UNL     1      34.083 -13.629 -24.457  0.00  0.00    +0.144 C 
ATOM     17  C   UNL     1      33.804 -12.403 -23.620  0.00  0.00    +0.079 C 
ATOM     18  C   UNL     1      33.564 -14.765 -23.584  0.00  0.00    +0.174 C 
BRANCH  16  19
ATOM     19  O   UNL     1      33.305 -13.550 -25.649  0.00  0.00    -0.382 OA
ATOM     20  H   UNL     1      32.659 -12.830 -25.566  0.00  0.00    +0.210 HD
ENDBRANCH  16  19
BRANCH  18  21
ATOM     21  C   UNL     1      34.636 -15.339 -22.666  0.00  0.00    +0.186 C 
BRANCH  21  22
ATOM     22  O   UNL     1      34.964 -16.643 -23.113  0.00  0.00    -0.271 OA
BRANCH  22  23
ATOM     23  P   UNL     1      35.322 -17.771 -22.008  0.00  0.00    +0.473 P 
ATOM     24  O   UNL     1      35.198 -17.322 -20.582  0.00  0.00    -0.227 OA
BRANCH  23  25
ATOM     25  O   UNL     1      34.359 -19.002 -22.422  0.00  0.00    -0.303 OA
ATOM     26  H   UNL     1      33.930 -18.805 -23.271  0.00  0.00    +0.222 HD
ENDBRANCH  23  25
BRANCH  23  27
ATOM     27  O   UNL     1      36.792 -18.284 -22.447  0.00  0.00    -0.303 OA
ATOM     28  H   UNL     1      37.313 -18.487 -21.654  0.00  0.00    +0.222 HD
ENDBRANCH  23  27
ENDBRANCH  22  23
ENDBRANCH  21  22
ENDBRANCH  18  21
ENDBRANCH   2  15
BRANCH   6  29
ATOM     29  C   UNL     1      31.500  -6.111 -22.456  0.00  0.00    +0.117 C 
BRANCH  29  30
ATOM     30  C   UNL     1      31.937  -5.242 -23.594  0.00  0.00    -0.003 C 
ATOM     31  C   UNL     1      33.192  -5.393 -24.207  0.00  0.00    -0.002 C 
ATOM     32  C   UNL     1      33.547  -4.538 -25.278  0.00  0.00    -0.000 C 
ATOM     33  C   UNL     1      31.045  -4.263 -24.032  0.00  0.00    -0.003 C 
ATOM     34  C   UNL     1      34.103  -6.372 -23.780  0.00  0.00    -0.000 C 
ATOM     35  C   UNL     1      32.636  -3.558 -25.705  0.00  0.00    -0.000 C 
ATOM     36  C   UNL     1      31.393  -3.423 -25.085  0.00  0.00    -0.000 C 
ATOM     37  C   UNL     1      34.802  -4.688 -25.891  0.00  0.00    -0.000 C 
ATOM     38  C   UNL     1      35.345  -6.508 -24.400  0.00  0.00    -0.000 C 
ATOM     39  C   UNL     1      35.693  -5.668 -25.454  0.00  0.00    -0.000 C 
ENDBRANCH  29  30
ENDBRANCH   6  29
TORSDOF 9
ENDMDL
MODEL 4
REMARK VINA RESULT:     -10.7      5.651      8.807
REMARK  Name = 46937134
REMARK  9 active torsions:
REMARK  status: ('A' for Active; 'I' for Inactive)
REMARK    1  A    between atoms: N_2  and  C_15
REMARK    2  A    between atoms: N_6  and  C_29
REMARK    3  A    between atoms: C_16  and  O_19
REMARK    4  A    between atoms: C_18  and  C_21
REMARK    5  A    between atoms: C_21  and  O_22
REMARK    6  A    between atoms: O_22  and  P_23
REMARK    7  A    between atoms: P_23  and  O_25
REMARK    8  A    between atoms: P_23  and  O_27
REMARK    9  A    between atoms: C_29  and  C_30
REMARK                            x       y       z     vdW  Elec       q    Type
REMARK                         _______ _______ _______ _____ _____    ______ ____
ROOT
ATOM      1  O   UNL     1      31.711  -9.190 -18.376  0.00  0.00    -0.208 OA
ATOM      2  N   UNL     1      33.175  -7.143 -22.130  0.00  0.00    -0.209 NA
ATOM      3  N   UNL     1      32.678  -9.517 -22.305  0.00  0.00    -0.279 N 
ATOM      4  N   UNL     1      32.658  -6.891 -19.961  0.00  0.00    -0.241 NA
ATOM      5  N   UNL     1      31.909 -10.520 -20.264  0.00  0.00    -0.301 NA
ATOM      6  N   UNL     1      32.152 -11.743 -22.238  0.00  0.00    -0.292 N 
ATOM      7  C   UNL     1      32.776  -8.349 -21.665  0.00  0.00    +0.191 C 
ATOM      8  C   UNL     1      33.086  -6.287 -21.055  0.00  0.00    +0.205 C 
ATOM      9  C   UNL     1      32.463  -8.188 -20.347  0.00  0.00    +0.183 C 
ATOM     10  C   UNL     1      32.231 -10.593 -21.542  0.00  0.00    +0.248 C 
ATOM     11  C   UNL     1      31.998  -9.312 -19.560  0.00  0.00    +0.224 C 
ATOM     12  H   UNL     1      32.910  -9.612 -23.258  0.00  0.00    +0.152 HD
ATOM     13  H   UNL     1      32.406 -11.735 -23.189  0.00  0.00    +0.151 HD
ENDROOT
BRANCH   2  15
ATOM     14  O   UNL     1      33.810  -5.365 -23.685  0.00  0.00    -0.338 OA
ATOM     15  C   UNL     1      33.628  -6.785 -23.523  0.00  0.00    +0.182 C 
ATOM     16  C   UNL     1      32.951  -6.249 -25.720  0.00  0.00    +0.144 C 
ATOM     17  C   UNL     1      32.640  -7.217 -24.602  0.00  0.00    +0.079 C 
ATOM     18  C   UNL     1      33.301  -4.967 -24.974  0.00  0.00    +0.174 C 
BRANCH  16  19
ATOM     19  O   UNL     1      34.098  -6.722 -26.422  0.00  0.00    -0.382 OA
ATOM     20  H   UNL     1      34.816  -6.891 -25.791  0.00  0.00    +0.210 HD
ENDBRANCH  16  19
BRANCH  18  21
ATOM     21  C   UNL     1      32.091  -4.071 -24.745  0.00  0.00    +0.186 C 
BRANCH  21  22
ATOM     22  O   UNL     1      32.346  -3.245 -23.621  0.00  0.00    -0.271 OA
BRANCH  22  23
ATOM     23  P   UNL     1      31.327  -3.314 -22.365  0.00  0.00    +0.473 P 
ATOM     24  O   UNL     1      31.915  -2.898 -21.049  0.00  0.00    -0.227 OA
BRANCH  23  25
ATOM     25  O   UNL     1      30.075  -2.422 -22.865  0.00  0.00    -0.303 OA
ATOM     26  H   UNL     1      29.627  -2.876 -23.598  0.00  0.00    +0.222 HD
ENDBRANCH  23  25
BRANCH  23  27
ATOM     27  O   UNL     1      30.754  -4.825 -22.420  0.00  0.00    -0.303 OA
ATOM     28  H   UNL     1      30.661  -5.103 -23.345  0.00  0.00    +0.222 HD
ENDBRANCH  23  27
ENDBRANCH  22  23
ENDBRANCH  21  22
ENDBRANCH  18  21
ENDBRANCH   2  15
BRANCH   6  29
ATOM     29  C   UNL     1      31.712 -12.988 -21.651  0.00  0.00    +0.117 C 
BRANCH  29  30
ATOM     30  C   UNL     1      32.842 -13.967 -21.573  0.00  0.00    -0.003 C 
ATOM     31  C   UNL     1      33.393 -14.562 -22.719  0.00  0.00    -0.002 C 
ATOM     32  C   UNL     1      34.461 -15.481 -22.578  0.00  0.00    -0.000 C 
ATOM     33  C   UNL     1      33.339 -14.271 -20.305  0.00  0.00    -0.003 C 
ATOM     34  C   UNL     1      32.907 -14.268 -24.004  0.00  0.00    -0.000 C 
ATOM     35  C   UNL     1      34.946 -15.776 -21.294  0.00  0.00    -0.000 C 
ATOM     36  C   UNL     1      34.388 -15.174 -20.166  0.00  0.00    -0.000 C 
ATOM     37  C   UNL     1      35.011 -16.077 -23.725  0.00  0.00    -0.000 C 
ATOM     38  C   UNL     1      33.465 -14.869 -25.132  0.00  0.00    -0.000 C 
ATOM     39  C   UNL     1      34.516 -15.772 -24.992  0.00  0.00    -0.000 C 
ENDBRANCH  29  30
ENDBRANCH   6  29
TORSDOF 9
ENDMDL
MODEL 5
REMARK VINA RESULT:     -10.7      5.334      8.586
REMARK  Name = 46937134
REMARK  9 active torsions:
REMARK  status: ('A' for Active; 'I' for Inactive)
REMARK    1  A    between atoms: N_2  and  C_15
REMARK    2  A    between atoms: N_6  and  C_29
REMARK    3  A    between atoms: C_16  and  O_19
REMARK    4  A    between atoms: C_18  and  C_21
REMARK    5  A    between atoms: C_21  and  O_22
REMARK    6  A    between atoms: O_22  and  P_23
REMARK    7  A    between atoms: P_23  and  O_25
REMARK    8  A    between atoms: P_23  and  O_27
REMARK    9  A    between atoms: C_29  and  C_30
REMARK                            x       y       z     vdW  Elec       q    Type
REMARK                         _______ _______ _______ _____ _____    ______ ____
ROOT
ATOM      1  O   UNL     1      31.449  -9.095 -19.529  0.00  0.00    -0.208 OA
ATOM      2  N   UNL     1      33.488  -6.978 -22.963  0.00  0.00    -0.209 NA
ATOM      3  N   UNL     1      33.199  -9.384 -23.180  0.00  0.00    -0.279 N 
ATOM      4  N   UNL     1      32.533  -6.747 -20.945  0.00  0.00    -0.241 NA
ATOM      5  N   UNL     1      32.109 -10.422 -21.310  0.00  0.00    -0.301 NA
ATOM      6  N   UNL     1      32.823 -11.641 -23.169  0.00  0.00    -0.292 N 
ATOM      7  C   UNL     1      33.088  -8.206 -22.560  0.00  0.00    +0.191 C 
ATOM      8  C   UNL     1      33.129  -6.122 -21.946  0.00  0.00    +0.205 C 
ATOM      9  C   UNL     1      32.508  -8.057 -21.334  0.00  0.00    +0.183 C 
ATOM     10  C   UNL     1      32.683 -10.483 -22.498  0.00  0.00    +0.248 C 
ATOM     11  C   UNL     1      31.974  -9.206 -20.630  0.00  0.00    +0.224 C 
ATOM     12  H   UNL     1      33.621  -9.470 -24.066  0.00  0.00    +0.152 HD
ATOM     13  H   UNL     1      33.261 -11.623 -24.051  0.00  0.00    +0.151 HD
ENDROOT
BRANCH   2  15
ATOM     14  O   UNL     1      34.278  -5.173 -24.410  0.00  0.00    -0.338 OA
ATOM     15  C   UNL     1      34.183  -6.601 -24.246  0.00  0.00    +0.182 C 
ATOM     16  C   UNL     1      33.925  -6.152 -26.549  0.00  0.00    +0.144 C 
ATOM     17  C   UNL     1      33.473  -7.129 -25.489  0.00  0.00    +0.079 C 
ATOM     18  C   UNL     1      34.011  -4.835 -25.787  0.00  0.00    +0.174 C 
BRANCH  16  19
ATOM     19  O   UNL     1      35.225  -6.534 -26.992  0.00  0.00    -0.382 OA
ATOM     20  H   UNL     1      35.556  -5.878 -27.626  0.00  0.00    +0.210 HD
ENDBRANCH  16  19
BRANCH  18  21
ATOM     21  C   UNL     1      32.711  -4.043 -25.832  0.00  0.00    +0.186 C 
BRANCH  21  22
ATOM     22  O   UNL     1      32.535  -3.390 -24.586  0.00  0.00    -0.271 OA
BRANCH  22  23
ATOM     23  P   UNL     1      31.096  -3.499 -23.854  0.00  0.00    +0.473 P 
ATOM     24  O   UNL     1      29.996  -2.707 -24.497  0.00  0.00    -0.227 OA
BRANCH  23  25
ATOM     25  O   UNL     1      30.842  -5.094 -23.791  0.00  0.00    -0.303 OA
ATOM     26  H   UNL     1      30.839  -5.456 -24.692  0.00  0.00    +0.222 HD
ENDBRANCH  23  25
BRANCH  23  27
ATOM     27  O   UNL     1      31.418  -3.113 -22.316  0.00  0.00    -0.303 OA
ATOM     28  H   UNL     1      31.464  -2.148 -22.228  0.00  0.00    +0.222 HD
ENDBRANCH  23  27
ENDBRANCH  22  23
ENDBRANCH  21  22
ENDBRANCH  18  21
ENDBRANCH   2  15
BRANCH   6  29
ATOM     29  C   UNL     1      32.361 -12.910 -22.654  0.00  0.00    +0.117 C 
BRANCH  29  30
ATOM     30  C   UNL     1      33.114 -14.042 -23.281  0.00  0.00    -0.003 C 
ATOM     31  C   UNL     1      33.849 -14.962 -22.516  0.00  0.00    -0.002 C 
ATOM     32  C   UNL     1      34.539 -16.011 -23.169  0.00  0.00    -0.000 C 
ATOM     33  C   UNL     1      33.059 -14.156 -24.670  0.00  0.00    -0.003 C 
ATOM     34  C   UNL     1      33.916 -14.864 -21.117  0.00  0.00    -0.000 C 
ATOM     35  C   UNL     1      34.474 -16.109 -24.568  0.00  0.00    -0.000 C 
ATOM     36  C   UNL     1      33.737 -15.187 -25.313  0.00  0.00    -0.000 C 
ATOM     37  C   UNL     1      35.276 -16.931 -22.404  0.00  0.00    -0.000 C 
ATOM     38  C   UNL     1      34.651 -15.785 -20.372  0.00  0.00    -0.000 C 
ATOM     39  C   UNL     1      35.329 -16.817 -21.015  0.00  0.00    -0.000 C 
ENDBRANCH  29  30
ENDBRANCH   6  29
TORSDOF 9
ENDMDL
MODEL 6
REMARK VINA RESULT:     -10.5      4.412      7.249
REMARK  Name = 46937134
REMARK  9 active torsions:
REMARK  status: ('A' for Active; 'I' for Inactive)
REMARK    1  A    between atoms: N_2  and  C_15
REMARK    2  A    between atoms: N_6  and  C_29
REMARK    3  A    between atoms: C_16  and  O_19
REMARK    4  A    between atoms: C_18  and  C_21
REMARK    5  A    between atoms: C_21  and  O_22
REMARK    6  A    between atoms: O_22  and  P_23
REMARK    7  A    between atoms: P_23  and  O_25
REMARK    8  A    between atoms: P_23  and  O_27
REMARK    9  A    between atoms: C_29  and  C_30
REMARK                            x       y       z     vdW  Elec       q    Type
REMARK                         _______ _______ _______ _____ _____    ______ ____
ROOT
ATOM      1  O   UNL     1      30.196 -11.608 -21.012  0.00  0.00    -0.208 OA
ATOM      2  N   UNL     1      32.444  -8.653 -23.589  0.00  0.00    -0.209 NA
ATOM      3  N   UNL     1      33.566 -10.757 -23.110  0.00  0.00    -0.279 N 
ATOM      4  N   UNL     1      30.555  -9.058 -22.448  0.00  0.00    -0.241 NA
ATOM      5  N   UNL     1      32.298 -12.262 -21.735  0.00  0.00    -0.301 NA
ATOM      6  N   UNL     1      34.427 -12.797 -22.532  0.00  0.00    -0.292 N 
ATOM      7  C   UNL     1      32.558  -9.883 -23.039  0.00  0.00    +0.191 C 
ATOM      8  C   UNL     1      31.207  -8.189 -23.201  0.00  0.00    +0.205 C 
ATOM      9  C   UNL     1      31.406 -10.122 -22.348  0.00  0.00    +0.183 C 
ATOM     10  C   UNL     1      33.381 -11.956 -22.426  0.00  0.00    +0.248 C 
ATOM     11  C   UNL     1      31.222 -11.372 -21.638  0.00  0.00    +0.224 C 
ATOM     12  H   UNL     1      34.389 -10.565 -23.615  0.00  0.00    +0.152 HD
ATOM     13  H   UNL     1      35.207 -12.512 -23.061  0.00  0.00    +0.151 HD
ENDROOT
BRANCH   2  15
ATOM     14  O   UNL     1      33.997  -6.773 -23.775  0.00  0.00    -0.338 OA
ATOM     15  C   UNL     1      33.445  -7.921 -24.448  0.00  0.00    +0.182 C 
ATOM     16  C   UNL     1      33.763  -6.249 -26.083  0.00  0.00    +0.144 C 
ATOM     17  C   UNL     1      32.849  -7.407 -25.755  0.00  0.00    +0.079 C 
ATOM     18  C   UNL     1      34.104  -5.681 -24.711  0.00  0.00    +0.174 C 
BRANCH  16  19
ATOM     19  O   UNL     1      34.944  -6.765 -26.694  0.00  0.00    -0.382 OA
ATOM     20  H   UNL     1      35.270  -7.521 -26.179  0.00  0.00    +0.210 HD
ENDBRANCH  16  19
BRANCH  18  21
ATOM     21  C   UNL     1      33.137  -4.590 -24.270  0.00  0.00    +0.186 C 
BRANCH  21  22
ATOM     22  O   UNL     1      32.651  -4.910 -22.978  0.00  0.00    -0.271 OA
BRANCH  22  23
ATOM     23  P   UNL     1      31.478  -3.991 -22.344  0.00  0.00    +0.473 P 
ATOM     24  O   UNL     1      31.955  -2.890 -21.443  0.00  0.00    -0.227 OA
BRANCH  23  25
ATOM     25  O   UNL     1      30.659  -3.500 -23.648  0.00  0.00    -0.303 OA
ATOM     26  H   UNL     1      30.966  -3.991 -24.427  0.00  0.00    +0.222 HD
ENDBRANCH  23  25
BRANCH  23  27
ATOM     27  O   UNL     1      30.480  -5.063 -21.658  0.00  0.00    -0.303 OA
ATOM     28  H   UNL     1      30.113  -5.645 -22.341  0.00  0.00    +0.222 HD
ENDBRANCH  23  27
ENDBRANCH  22  23
ENDBRANCH  21  22
ENDBRANCH  18  21
ENDBRANCH   2  15
BRANCH   6  29
ATOM     29  C   UNL     1      34.456 -14.099 -21.905  0.00  0.00    +0.117 C 
BRANCH  29  30
ATOM     30  C   UNL     1      34.315 -15.184 -22.927  0.00  0.00    -0.003 C 
ATOM     31  C   UNL     1      34.698 -16.509 -22.664  0.00  0.00    -0.002 C 
ATOM     32  C   UNL     1      34.540 -17.489 -23.673  0.00  0.00    -0.000 C 
ATOM     33  C   UNL     1      33.783 -14.830 -24.167  0.00  0.00    -0.003 C 
ATOM     34  C   UNL     1      35.235 -16.884 -21.422  0.00  0.00    -0.000 C 
ATOM     35  C   UNL     1      34.004 -17.115 -24.915  0.00  0.00    -0.000 C 
ATOM     36  C   UNL     1      33.627 -15.793 -25.159  0.00  0.00    -0.000 C 
ATOM     37  C   UNL     1      34.923 -18.815 -23.410  0.00  0.00    -0.000 C 
ATOM     38  C   UNL     1      35.611 -18.205 -21.177  0.00  0.00    -0.000 C 
ATOM     39  C   UNL     1      35.454 -19.168 -22.169  0.00  0.00    -0.000 C 
ENDBRANCH  29  30
ENDBRANCH   6  29
TORSDOF 9
ENDMDL
MODEL 7
REMARK VINA RESULT:     -10.4      5.779      9.395
REMARK  Name = 46937134
REMARK  9 active torsions:
REMARK  status: ('A' for Active; 'I' for Inactive)
REMARK    1  A    between atoms: N_2  and  C_15
REMARK    2  A    between atoms: N_6  and  C_29
REMARK    3  A    between atoms: C_16  and  O_19
REMARK    4  A    between atoms: C_18  and  C_21
REMARK    5  A    between atoms: C_21  and  O_22
REMARK    6  A    between atoms: O_22  and  P_23
REMARK    7  A    between atoms: P_23  and  O_25
REMARK    8  A    between atoms: P_23  and  O_27
REMARK    9  A    between atoms: C_29  and  C_30
REMARK                            x       y       z     vdW  Elec       q    Type
REMARK                         _______ _______ _______ _____ _____    ______ ____
ROOT
ATOM      1  O   UNL     1      32.325  -8.533 -18.921  0.00  0.00    -0.208 OA
ATOM      2  N   UNL     1      32.321  -6.338 -22.872  0.00  0.00    -0.209 NA
ATOM      3  N   UNL     1      32.299  -8.768 -22.974  0.00  0.00    -0.279 N 
ATOM      4  N   UNL     1      32.337  -6.136 -20.637  0.00  0.00    -0.241 NA
ATOM      5  N   UNL     1      32.303  -9.848 -20.829  0.00  0.00    -0.301 NA
ATOM      6  N   UNL     1      32.280 -11.052 -22.829  0.00  0.00    -0.292 N 
ATOM      7  C   UNL     1      32.313  -7.586 -22.351  0.00  0.00    +0.191 C 
ATOM      8  C   UNL     1      32.336  -5.488 -21.790  0.00  0.00    +0.205 C 
ATOM      9  C   UNL     1      32.322  -7.455 -20.993  0.00  0.00    +0.183 C 
ATOM     10  C   UNL     1      32.294  -9.891 -22.149  0.00  0.00    +0.248 C 
ATOM     11  C   UNL     1      32.317  -8.628 -20.142  0.00  0.00    +0.224 C 
ATOM     12  H   UNL     1      32.292  -8.841 -23.956  0.00  0.00    +0.152 HD
ATOM     13  H   UNL     1      32.275 -11.020 -23.813  0.00  0.00    +0.151 HD
ENDROOT
BRANCH   2  15
ATOM     14  O   UNL     1      32.906  -6.945 -25.168  0.00  0.00    -0.338 OA
ATOM     15  C   UNL     1      32.317  -5.936 -24.326  0.00  0.00    +0.182 C 
ATOM     16  C   UNL     1      33.477  -4.809 -26.044  0.00  0.00    +0.144 C 
ATOM     17  C   UNL     1      33.091  -4.649 -24.592  0.00  0.00    +0.079 C 
ATOM     18  C   UNL     1      33.724  -6.307 -26.170  0.00  0.00    +0.174 C 
BRANCH  16  19
ATOM     19  O   UNL     1      32.362  -4.439 -26.852  0.00  0.00    -0.382 OA
ATOM     20  H   UNL     1      31.570  -4.908 -26.544  0.00  0.00    +0.210 HD
ENDBRANCH  16  19
BRANCH  18  21
ATOM     21  C   UNL     1      35.174  -6.689 -25.903  0.00  0.00    +0.186 C 
BRANCH  21  22
ATOM     22  O   UNL     1      35.763  -7.112 -27.122  0.00  0.00    -0.271 OA
BRANCH  22  23
ATOM     23  P   UNL     1      36.382  -5.990 -28.111  0.00  0.00    +0.473 P 
ATOM     24  O   UNL     1      36.802  -4.715 -27.440  0.00  0.00    -0.227 OA
BRANCH  23  25
ATOM     25  O   UNL     1      37.569  -6.788 -28.865  0.00  0.00    -0.303 OA
ATOM     26  H   UNL     1      38.086  -7.288 -28.214  0.00  0.00    +0.222 HD
ENDBRANCH  23  25
BRANCH  23  27
ATOM     27  O   UNL     1      35.254  -5.828 -29.259  0.00  0.00    -0.303 OA
ATOM     28  H   UNL     1      35.618  -6.114 -30.112  0.00  0.00    +0.222 HD
ENDBRANCH  23  27
ENDBRANCH  22  23
ENDBRANCH  21  22
ENDBRANCH  18  21
ENDBRANCH   2  15
BRANCH   6  29
ATOM     29  C   UNL     1      32.272 -12.344 -22.181  0.00  0.00    +0.117 C 
BRANCH  29  30
ATOM     30  C   UNL     1      32.920 -13.377 -23.050  0.00  0.00    -0.003 C 
ATOM     31  C   UNL     1      33.666 -14.439 -22.514  0.00  0.00    -0.002 C 
ATOM     32  C   UNL     1      34.255 -15.383 -23.389  0.00  0.00    -0.000 C 
ATOM     33  C   UNL     1      32.755 -13.249 -24.429  0.00  0.00    -0.003 C 
ATOM     34  C   UNL     1      33.844 -14.584 -21.128  0.00  0.00    -0.000 C 
ATOM     35  C   UNL     1      34.079 -15.238 -24.774  0.00  0.00    -0.000 C 
ATOM     36  C   UNL     1      33.333 -14.177 -25.290  0.00  0.00    -0.000 C 
ATOM     37  C   UNL     1      35.002 -16.445 -22.853  0.00  0.00    -0.000 C 
ATOM     38  C   UNL     1      34.589 -15.645 -20.613  0.00  0.00    -0.000 C 
ATOM     39  C   UNL     1      35.166 -16.573 -21.474  0.00  0.00    -0.000 C 
ENDBRANCH  29  30
ENDBRANCH   6  29
TORSDOF 9
ENDMDL
MODEL 8
REMARK VINA RESULT:     -10.3      6.028     12.641
REMARK  Name = 46937134
REMARK  9 active torsions:
REMARK  status: ('A' for Active; 'I' for Inactive)
REMARK    1  A    between atoms: N_2  and  C_15
REMARK    2  A    between atoms: N_6  and  C_29
REMARK    3  A    between atoms: C_16  and  O_19
REMARK    4  A    between atoms: C_18  and  C_21
REMARK    5  A    between atoms: C_21  and  O_22
REMARK    6  A    between atoms: O_22  and  P_23
REMARK    7  A    between atoms: P_23  and  O_25
REMARK    8  A    between atoms: P_23  and  O_27
REMARK    9  A    between atoms: C_29  and  C_30
REMARK                            x       y       z     vdW  Elec       q    Type
REMARK                         _______ _______ _______ _____ _____    ______ ____
ROOT
ATOM      1  O   UNL     1      31.889  -7.987 -18.873  0.00  0.00    -0.208 OA
ATOM      2  N   UNL     1      32.112 -11.673 -21.479  0.00  0.00    -0.209 NA
ATOM      3  N   UNL     1      32.333  -9.527 -22.603  0.00  0.00    -0.279 N 
ATOM      4  N   UNL     1      31.861 -10.889 -19.391  0.00  0.00    -0.241 NA
ATOM      5  N   UNL     1      32.200  -7.627 -21.141  0.00  0.00    -0.301 NA
ATOM      6  N   UNL     1      32.514  -7.407 -23.445  0.00  0.00    -0.292 N 
ATOM      7  C   UNL     1      32.165 -10.323 -21.543  0.00  0.00    +0.191 C 
ATOM      8  C   UNL     1      31.925 -11.971 -20.148  0.00  0.00    +0.205 C 
ATOM      9  C   UNL     1      32.013  -9.854 -20.271  0.00  0.00    +0.183 C 
ATOM     10  C   UNL     1      32.343  -8.159 -22.341  0.00  0.00    +0.248 C 
ATOM     11  C   UNL     1      32.024  -8.429 -20.007  0.00  0.00    +0.224 C 
ATOM     12  H   UNL     1      32.441  -9.886 -23.514  0.00  0.00    +0.152 HD
ATOM     13  H   UNL     1      32.614  -7.861 -24.312  0.00  0.00    +0.151 HD
ENDROOT
BRANCH   2  15
ATOM     14  O   UNL     1      32.408 -14.011 -22.132  0.00  0.00    -0.338 OA
ATOM     15  C   UNL     1      32.228 -12.664 -22.610  0.00  0.00    +0.182 C 
ATOM     16  C   UNL     1      33.686 -13.742 -24.120  0.00  0.00    +0.144 C 
ATOM     17  C   UNL     1      33.404 -12.377 -23.538  0.00  0.00    +0.079 C 
ATOM     18  C   UNL     1      33.383 -14.680 -22.957  0.00  0.00    +0.174 C 
BRANCH  16  19
ATOM     19  O   UNL     1      32.763 -13.982 -25.180  0.00  0.00    -0.382 OA
ATOM     20  H   UNL     1      32.397 -13.137 -25.487  0.00  0.00    +0.210 HD
ENDBRANCH  16  19
BRANCH  18  21
ATOM     21  C   UNL     1      34.608 -14.965 -22.098  0.00  0.00    +0.186 C 
BRANCH  21  22
ATOM     22  O   UNL     1      34.610 -16.340 -21.754  0.00  0.00    -0.271 OA
BRANCH  22  23
ATOM     23  P   UNL     1      35.148 -17.409 -22.844  0.00  0.00    +0.473 P 
ATOM     24  O   UNL     1      34.185 -18.508 -23.183  0.00  0.00    -0.227 OA
BRANCH  23  25
ATOM     25  O   UNL     1      35.578 -16.470 -24.088  0.00  0.00    -0.303 OA
ATOM     26  H   UNL     1      35.636 -15.548 -23.792  0.00  0.00    +0.222 HD
ENDBRANCH  23  25
BRANCH  23  27
ATOM     27  O   UNL     1      36.566 -17.894 -22.236  0.00  0.00    -0.303 OA
ATOM     28  H   UNL     1      36.774 -18.781 -22.569  0.00  0.00    +0.222 HD
ENDBRANCH  23  27
ENDBRANCH  22  23
ENDBRANCH  21  22
ENDBRANCH  18  21
ENDBRANCH   2  15
BRANCH   6  29
ATOM     29  C   UNL     1      32.558  -5.963 -23.413  0.00  0.00    +0.117 C 
BRANCH  29  30
ATOM     30  C   UNL     1      33.494  -5.437 -24.457  0.00  0.00    -0.003 C 
ATOM     31  C   UNL     1      33.175  -4.323 -25.250  0.00  0.00    -0.002 C 
ATOM     32  C   UNL     1      34.102  -3.875 -26.221  0.00  0.00    -0.000 C 
ATOM     33  C   UNL     1      34.710  -6.100 -24.618  0.00  0.00    -0.003 C 
ATOM     34  C   UNL     1      31.955  -3.643 -25.102  0.00  0.00    -0.000 C 
ATOM     35  C   UNL     1      35.322  -4.556 -26.370  0.00  0.00    -0.000 C 
ATOM     36  C   UNL     1      35.623  -5.660 -25.573  0.00  0.00    -0.000 C 
ATOM     37  C   UNL     1      33.783  -2.761 -27.015  0.00  0.00    -0.000 C 
ATOM     38  C   UNL     1      31.654  -2.538 -25.899  0.00  0.00    -0.000 C 
ATOM     39  C   UNL     1      32.567  -2.098 -26.853  0.00  0.00    -0.000 C 
ENDBRANCH  29  30
ENDBRANCH   6  29
TORSDOF 9
ENDMDL
MODEL 9
REMARK VINA RESULT:      -9.9      5.883      9.254
REMARK  Name = 46937134
REMARK  9 active torsions:
REMARK  status: ('A' for Active; 'I' for Inactive)
REMARK    1  A    between atoms: N_2  and  C_15
REMARK    2  A    between atoms: N_6  and  C_29
REMARK    3  A    between atoms: C_16  and  O_19
REMARK    4  A    between atoms: C_18  and  C_21
REMARK    5  A    between atoms: C_21  and  O_22
REMARK    6  A    between atoms: O_22  and  P_23
REMARK    7  A    between atoms: P_23  and  O_25
REMARK    8  A    between atoms: P_23  and  O_27
REMARK    9  A    between atoms: C_29  and  C_30
REMARK                            x       y       z     vdW  Elec       q    Type
REMARK                         _______ _______ _______ _____ _____    ______ ____
ROOT
ATOM      1  O   UNL     1      31.531  -8.774 -18.785  0.00  0.00    -0.208 OA
ATOM      2  N   UNL     1      33.380  -7.112 -22.559  0.00  0.00    -0.209 NA
ATOM      3  N   UNL     1      32.914  -9.499 -22.532  0.00  0.00    -0.279 N 
ATOM      4  N   UNL     1      32.632  -6.641 -20.497  0.00  0.00    -0.241 NA
ATOM      5  N   UNL     1      31.935 -10.292 -20.488  0.00  0.00    -0.301 NA
ATOM      6  N   UNL     1      32.393 -11.713 -22.283  0.00  0.00    -0.292 N 
ATOM      7  C   UNL     1      32.938  -8.268 -22.014  0.00  0.00    +0.191 C 
ATOM      8  C   UNL     1      33.173  -6.149 -21.598  0.00  0.00    +0.205 C 
ATOM      9  C   UNL     1      32.485  -7.974 -20.761  0.00  0.00    +0.183 C 
ATOM     10  C   UNL     1      32.392 -10.495 -21.710  0.00  0.00    +0.248 C 
ATOM     11  C   UNL     1      31.943  -9.016 -19.912  0.00  0.00    +0.224 C 
ATOM     12  H   UNL     1      33.246  -9.691 -23.439  0.00  0.00    +0.152 HD
ATOM     13  H   UNL     1      32.747 -11.802 -23.197  0.00  0.00    +0.151 HD
ENDROOT
BRANCH   2  15
ATOM     14  O   UNL     1      34.429  -5.542 -24.113  0.00  0.00    -0.338 OA
ATOM     15  C   UNL     1      33.977  -6.897 -23.927  0.00  0.00    +0.182 C 
ATOM     16  C   UNL     1      33.550  -6.329 -26.178  0.00  0.00    +0.144 C 
ATOM     17  C   UNL     1      32.995  -7.181 -25.060  0.00  0.00    +0.079 C 
ATOM     18  C   UNL     1      34.085  -5.106 -25.444  0.00  0.00    +0.174 C 
BRANCH  16  19
ATOM     19  O   UNL     1      34.631  -7.031 -26.788  0.00  0.00    -0.382 OA
ATOM     20  H   UNL     1      35.312  -7.217 -26.121  0.00  0.00    +0.210 HD
ENDBRANCH  16  19
BRANCH  18  21
ATOM     21  C   UNL     1      33.050  -3.995 -25.321  0.00  0.00    +0.186 C 
BRANCH  21  22
ATOM     22  O   UNL     1      32.252  -3.987 -26.493  0.00  0.00    -0.271 OA
BRANCH  22  23
ATOM     23  P   UNL     1      31.939  -2.568 -27.205  0.00  0.00    +0.473 P 
ATOM     24  O   UNL     1      31.324  -2.666 -28.570  0.00  0.00    -0.227 OA
BRANCH  23  25
ATOM     25  O   UNL     1      31.037  -1.802 -26.103  0.00  0.00    -0.303 OA
ATOM     26  H   UNL     1      30.506  -2.449 -25.614  0.00  0.00    +0.222 HD
ENDBRANCH  23  25
BRANCH  23  27
ATOM     27  O   UNL     1      33.353  -1.786 -27.138  0.00  0.00    -0.303 OA
ATOM     28  H   UNL     1      33.995  -2.320 -26.646  0.00  0.00    +0.222 HD
ENDBRANCH  23  27
ENDBRANCH  22  23
ENDBRANCH  21  22
ENDBRANCH  18  21
ENDBRANCH   2  15
BRANCH   6  29
ATOM     29  C   UNL     1      31.898 -12.896 -21.617  0.00  0.00    +0.117 C 
BRANCH  29  30
ATOM     30  C   UNL     1      32.956 -13.954 -21.559  0.00  0.00    -0.003 C 
ATOM     31  C   UNL     1      33.457 -14.572 -22.717  0.00  0.00    -0.002 C 
ATOM     32  C   UNL     1      34.456 -15.566 -22.594  0.00  0.00    -0.000 C 
ATOM     33  C   UNL     1      33.435 -14.311 -20.299  0.00  0.00    -0.003 C 
ATOM     34  C   UNL     1      32.986 -14.226 -23.994  0.00  0.00    -0.000 C 
ATOM     35  C   UNL     1      34.926 -15.914 -21.317  0.00  0.00    -0.000 C 
ATOM     36  C   UNL     1      34.418 -15.288 -20.178  0.00  0.00    -0.000 C 
ATOM     37  C   UNL     1      34.956 -16.185 -23.752  0.00  0.00    -0.000 C 
ATOM     38  C   UNL     1      33.494 -14.850 -25.133  0.00  0.00    -0.000 C 
ATOM     39  C   UNL     1      34.477 -15.827 -25.012  0.00  0.00    -0.000 C 
ENDBRANCH  29  30
ENDBRANCH   6  29
TORSDOF 9
ENDMDL
