MODEL 1
REMARK VINA RESULT:     -12.0      0.000      0.000
REMARK  Name = 17754438
REMARK  6 active torsions:
REMARK  status: ('A' for Active; 'I' for Inactive)
REMARK    1  A    between atoms: N_1  and  C_19
REMARK    2  A    between atoms: C_7  and  C_12
REMARK    3  A    between atoms: N_10  and  C_15
REMARK    4  A    between atoms: C_15  and  C_16
REMARK    5  A    between atoms: C_16  and  O_17
REMARK    6  A    between atoms: C_19  and  C_21
REMARK                            x       y       z     vdW  Elec       q    Type
REMARK                         _______ _______ _______ _____ _____    ______ ____
ROOT
ATOM      1  N   UNL     1      33.209 -23.587 -17.173  0.00  0.00    -0.163 N 
ATOM      2  N   UNL     1      34.761 -24.358 -15.450  0.00  0.00    -0.378 NA
ATOM      3  N   UNL     1      31.954 -23.096 -17.200  0.00  0.00    -0.033 NA
ATOM      4  N   UNL     1      32.500 -23.643 -13.786  0.00  0.00    -0.208 NA
ATOM      5  N   UNL     1      31.509 -23.046 -15.944  0.00  0.00    -0.086 NA
ATOM      6  C   UNL     1      33.599 -23.863 -15.900  0.00  0.00    +0.267 C 
ATOM      7  C   UNL     1      34.745 -24.483 -14.103  0.00  0.00    +0.140 C 
ATOM      8  C   UNL     1      32.503 -23.512 -15.135  0.00  0.00    +0.098 C 
ATOM      9  C   UNL     1      33.662 -24.141 -13.305  0.00  0.00    +0.195 C 
ENDROOT
BRANCH   7  12
ATOM     10  N   UNL     1      37.999 -25.706 -13.283  0.00  0.00    -0.208 N 
ATOM     11  N   UNL     1      37.481 -25.854 -12.051  0.00  0.00    -0.176 NA
ATOM     12  C   UNL     1      35.942 -25.006 -13.511  0.00  0.00    +0.064 C 
ATOM     13  C   UNL     1      37.118 -25.202 -14.194  0.00  0.00    +0.088 C 
ATOM     14  C   UNL     1      36.225 -25.425 -12.197  0.00  0.00    +0.121 C 
BRANCH  10  15
ATOM     15  C   UNL     1      39.374 -26.070 -13.530  0.00  0.00    +0.148 C 
BRANCH  15  16
ATOM     16  C   UNL     1      39.990 -25.279 -14.676  0.00  0.00    +0.161 C 
BRANCH  16  17
ATOM     17  O   UNL     1      40.228 -26.141 -15.781  0.00  0.00    -0.380 OA
ATOM     18  H   UNL     1      41.129 -26.495 -15.727  0.00  0.00    +0.211 HD
ENDBRANCH  16  17
ENDBRANCH  15  16
ENDBRANCH  10  15
ENDBRANCH   7  12
BRANCH   1  19
ATOM     19  C   UNL     1      33.971 -23.760 -18.414  0.00  0.00    +0.145 C 
BRANCH  19  21
ATOM     20  N   UNL     1      34.762 -18.832 -21.081  0.00  0.00    -0.244 NA
ATOM     21  C   UNL     1      34.190 -22.464 -19.117  0.00  0.00    -0.000 C 
ATOM     22  C   UNL     1      35.482 -21.994 -19.335  0.00  0.00    -0.001 C 
ATOM     23  C   UNL     1      35.692 -20.772 -19.997  0.00  0.00    +0.017 C 
ATOM     24  C   UNL     1      33.105 -21.715 -19.556  0.00  0.00    -0.001 C 
ATOM     25  C   UNL     1      34.596 -20.007 -20.445  0.00  0.00    +0.081 C 
ATOM     26  C   UNL     1      33.314 -20.500 -20.214  0.00  0.00    +0.019 C 
ATOM     27  C   UNL     1      36.982 -20.277 -20.229  0.00  0.00    +0.003 C 
ATOM     28  C   UNL     1      37.157 -19.066 -20.884  0.00  0.00    +0.021 C 
ATOM     29  C   UNL     1      36.024 -18.389 -21.286  0.00  0.00    +0.099 C 
ENDBRANCH  19  21
ENDBRANCH   1  19
TORSDOF 6
ENDMDL
MODEL 2
REMARK VINA RESULT:     -11.9      2.514      3.980
REMARK  Name = 17754438
REMARK  6 active torsions:
REMARK  status: ('A' for Active; 'I' for Inactive)
REMARK    1  A    between atoms: N_1  and  C_19
REMARK    2  A    between atoms: C_7  and  C_12
REMARK    3  A    between atoms: N_10  and  C_15
REMARK    4  A    between atoms: C_15  and  C_16
REMARK    5  A    between atoms: C_16  and  O_17
REMARK    6  A    between atoms: C_19  and  C_21
REMARK                            x       y       z     vdW  Elec       q    Type
REMARK                         _______ _______ _______ _____ _____    ______ ____
ROOT
ATOM      1  N   UNL     1      34.567 -20.884 -19.964  0.00  0.00    -0.163 N 
ATOM      2  N   UNL     1      35.530 -22.015 -18.024  0.00  0.00    -0.378 NA
ATOM      3  N   UNL     1      33.345 -20.789 -20.525  0.00  0.00    -0.033 NA
ATOM      4  N   UNL     1      32.775 -22.876 -17.774  0.00  0.00    -0.208 NA
ATOM      5  N   UNL     1      32.502 -21.517 -19.792  0.00  0.00    -0.086 NA
ATOM      6  C   UNL     1      34.537 -21.673 -18.858  0.00  0.00    +0.267 C 
ATOM      7  C   UNL     1      35.078 -22.824 -17.039  0.00  0.00    +0.140 C 
ATOM      8  C   UNL     1      33.215 -22.065 -18.766  0.00  0.00    +0.098 C 
ATOM      9  C   UNL     1      33.759 -23.237 -16.918  0.00  0.00    +0.195 C 
ENDROOT
BRANCH   7  12
ATOM     10  N   UNL     1      37.019 -24.346 -14.454  0.00  0.00    -0.208 N 
ATOM     11  N   UNL     1      37.973 -23.490 -14.858  0.00  0.00    -0.176 NA
ATOM     12  C   UNL     1      36.061 -23.254 -16.086  0.00  0.00    +0.064 C 
ATOM     13  C   UNL     1      35.854 -24.244 -15.157  0.00  0.00    +0.088 C 
ATOM     14  C   UNL     1      37.382 -22.826 -15.855  0.00  0.00    +0.121 C 
BRANCH  10  15
ATOM     15  C   UNL     1      37.288 -25.258 -13.368  0.00  0.00    +0.148 C 
BRANCH  15  16
ATOM     16  C   UNL     1      37.834 -26.595 -13.851  0.00  0.00    +0.161 C 
BRANCH  16  17
ATOM     17  O   UNL     1      38.610 -26.400 -15.026  0.00  0.00    -0.380 OA
ATOM     18  H   UNL     1      38.021 -26.307 -15.790  0.00  0.00    +0.211 HD
ENDBRANCH  16  17
ENDBRANCH  15  16
ENDBRANCH  10  15
ENDBRANCH   7  12
BRANCH   1  19
ATOM     19  C   UNL     1      35.715 -20.184 -20.551  0.00  0.00    +0.145 C 
BRANCH  19  21
ATOM     20  N   UNL     1      34.160 -16.849 -24.850  0.00  0.00    -0.244 NA
ATOM     21  C   UNL     1      35.308 -19.297 -21.678  0.00  0.00    -0.000 C 
ATOM     22  C   UNL     1      35.268 -17.916 -21.504  0.00  0.00    -0.001 C 
ATOM     23  C   UNL     1      34.884 -17.077 -22.564  0.00  0.00    +0.017 C 
ATOM     24  C   UNL     1      34.963 -19.844 -22.908  0.00  0.00    -0.001 C 
ATOM     25  C   UNL     1      34.533 -17.625 -23.815  0.00  0.00    +0.081 C 
ATOM     26  C   UNL     1      34.581 -19.009 -23.961  0.00  0.00    +0.019 C 
ATOM     27  C   UNL     1      34.836 -15.685 -22.415  0.00  0.00    +0.003 C 
ATOM     28  C   UNL     1      34.452 -14.882 -23.481  0.00  0.00    +0.021 C 
ATOM     29  C   UNL     1      34.127 -15.509 -24.666  0.00  0.00    +0.099 C 
ENDBRANCH  19  21
ENDBRANCH   1  19
TORSDOF 6
ENDMDL
MODEL 3
REMARK VINA RESULT:     -11.7      3.894      6.408
REMARK  Name = 17754438
REMARK  6 active torsions:
REMARK  status: ('A' for Active; 'I' for Inactive)
REMARK    1  A    between atoms: N_1  and  C_19
REMARK    2  A    between atoms: C_7  and  C_12
REMARK    3  A    between atoms: N_10  and  C_15
REMARK    4  A    between atoms: C_15  and  C_16
REMARK    5  A    between atoms: C_16  and  O_17
REMARK    6  A    between atoms: C_19  and  C_21
REMARK                            x       y       z     vdW  Elec       q    Type
REMARK                         _______ _______ _______ _____ _____    ______ ____
ROOT
ATOM      1  N   UNL     1      34.154 -23.546 -16.925  0.00  0.00    -0.163 N 
ATOM      2  N   UNL     1      31.760 -23.571 -16.440  0.00  0.00    -0.378 NA
ATOM      3  N   UNL     1      35.289 -23.413 -16.209  0.00  0.00    -0.033 NA
ATOM      4  N   UNL     1      32.796 -23.186 -13.762  0.00  0.00    -0.208 NA
ATOM      5  N   UNL     1      34.947 -23.259 -14.930  0.00  0.00    -0.086 NA
ATOM      6  C   UNL     1      33.060 -23.482 -16.122  0.00  0.00    +0.267 C 
ATOM      7  C   UNL     1      30.983 -23.457 -15.338  0.00  0.00    +0.140 C 
ATOM      8  C   UNL     1      33.586 -23.299 -14.858  0.00  0.00    +0.098 C 
ATOM      9  C   UNL     1      31.479 -23.272 -14.055  0.00  0.00    +0.195 C 
ENDROOT
BRANCH   7  12
ATOM     10  N   UNL     1      27.480 -22.951 -15.822  0.00  0.00    -0.208 N 
ATOM     11  N   UNL     1      27.447 -24.288 -15.963  0.00  0.00    -0.176 NA
ATOM     12  C   UNL     1      29.568 -23.538 -15.562  0.00  0.00    +0.064 C 
ATOM     13  C   UNL     1      28.726 -22.452 -15.581  0.00  0.00    +0.088 C 
ATOM     14  C   UNL     1      28.726 -24.640 -15.803  0.00  0.00    +0.121 C 
BRANCH  10  15
ATOM     15  C   UNL     1      26.259 -22.190 -15.935  0.00  0.00    +0.148 C 
BRANCH  15  16
ATOM     16  C   UNL     1      25.975 -21.749 -17.364  0.00  0.00    +0.161 C 
BRANCH  16  17
ATOM     17  O   UNL     1      25.993 -20.330 -17.441  0.00  0.00    -0.380 OA
ATOM     18  H   UNL     1      26.567 -19.976 -16.745  0.00  0.00    +0.211 HD
ENDBRANCH  16  17
ENDBRANCH  15  16
ENDBRANCH  10  15
ENDBRANCH   7  12
BRANCH   1  19
ATOM     19  C   UNL     1      34.205 -23.733 -18.379  0.00  0.00    +0.145 C 
BRANCH  19  21
ATOM     20  N   UNL     1      34.668 -18.803 -21.118  0.00  0.00    -0.244 NA
ATOM     21  C   UNL     1      34.338 -22.436 -19.102  0.00  0.00    -0.000 C 
ATOM     22  C   UNL     1      35.598 -21.912 -19.376  0.00  0.00    -0.001 C 
ATOM     23  C   UNL     1      35.726 -20.688 -20.056  0.00  0.00    +0.017 C 
ATOM     24  C   UNL     1      33.203 -21.741 -19.503  0.00  0.00    -0.001 C 
ATOM     25  C   UNL     1      34.579 -19.978 -20.466  0.00  0.00    +0.081 C 
ATOM     26  C   UNL     1      33.332 -20.525 -20.179  0.00  0.00    +0.019 C 
ATOM     27  C   UNL     1      36.982 -20.139 -20.345  0.00  0.00    +0.003 C 
ATOM     28  C   UNL     1      37.076 -18.928 -21.017  0.00  0.00    +0.021 C 
ATOM     29  C   UNL     1      35.899 -18.307 -21.379  0.00  0.00    +0.099 C 
ENDBRANCH  19  21
ENDBRANCH   1  19
TORSDOF 6
ENDMDL
MODEL 4
REMARK VINA RESULT:     -11.5      5.815     10.144
REMARK  Name = 17754438
REMARK  6 active torsions:
REMARK  status: ('A' for Active; 'I' for Inactive)
REMARK    1  A    between atoms: N_1  and  C_19
REMARK    2  A    between atoms: C_7  and  C_12
REMARK    3  A    between atoms: N_10  and  C_15
REMARK    4  A    between atoms: C_15  and  C_16
REMARK    5  A    between atoms: C_16  and  O_17
REMARK    6  A    between atoms: C_19  and  C_21
REMARK                            x       y       z     vdW  Elec       q    Type
REMARK                         _______ _______ _______ _____ _____    ______ ____
ROOT
ATOM      1  N   UNL     1      34.384 -15.314 -23.739  0.00  0.00    -0.163 N 
ATOM      2  N   UNL     1      35.026 -17.260 -22.408  0.00  0.00    -0.378 NA
ATOM      3  N   UNL     1      33.768 -15.106 -24.920  0.00  0.00    -0.033 NA
ATOM      4  N   UNL     1      33.799 -18.597 -24.666  0.00  0.00    -0.208 NA
ATOM      5  N   UNL     1      33.462 -16.297 -25.435  0.00  0.00    -0.086 NA
ATOM      6  C   UNL     1      34.487 -16.642 -23.469  0.00  0.00    +0.267 C 
ATOM      7  C   UNL     1      34.924 -18.604 -22.526  0.00  0.00    +0.140 C 
ATOM      8  C   UNL     1      33.895 -17.249 -24.560  0.00  0.00    +0.098 C 
ATOM      9  C   UNL     1      34.337 -19.245 -23.608  0.00  0.00    +0.195 C 
ENDROOT
BRANCH   7  12
ATOM     10  N   UNL     1      35.680 -20.874 -19.873  0.00  0.00    -0.208 N 
ATOM     11  N   UNL     1      36.826 -20.176 -19.789  0.00  0.00    -0.176 NA
ATOM     12  C   UNL     1      35.471 -19.368 -21.442  0.00  0.00    +0.064 C 
ATOM     13  C   UNL     1      34.834 -20.430 -20.847  0.00  0.00    +0.088 C 
ATOM     14  C   UNL     1      36.692 -19.258 -20.750  0.00  0.00    +0.121 C 
BRANCH  10  15
ATOM     15  C   UNL     1      35.447 -21.981 -18.976  0.00  0.00    +0.148 C 
BRANCH  15  16
ATOM     16  C   UNL     1      33.985 -22.403 -18.937  0.00  0.00    +0.161 C 
BRANCH  16  17
ATOM     17  O   UNL     1      33.888 -23.811 -19.105  0.00  0.00    -0.380 OA
ATOM     18  H   UNL     1      34.465 -24.254 -18.464  0.00  0.00    +0.211 HD
ENDBRANCH  16  17
ENDBRANCH  15  16
ENDBRANCH  10  15
ENDBRANCH   7  12
BRANCH   1  19
ATOM     19  C   UNL     1      34.844 -14.183 -22.926  0.00  0.00    +0.145 C 
BRANCH  19  21
ATOM     20  N   UNL     1      30.719 -10.407 -22.059  0.00  0.00    -0.244 NA
ATOM     21  C   UNL     1      33.761 -13.182 -22.704  0.00  0.00    -0.000 C 
ATOM     22  C   UNL     1      33.846 -11.919 -23.284  0.00  0.00    -0.001 C 
ATOM     23  C   UNL     1      32.828 -10.972 -23.077  0.00  0.00    +0.017 C 
ATOM     24  C   UNL     1      32.663 -13.503 -21.916  0.00  0.00    -0.001 C 
ATOM     25  C   UNL     1      31.711 -11.292 -22.278  0.00  0.00    +0.081 C 
ATOM     26  C   UNL     1      31.651 -12.562 -21.710  0.00  0.00    +0.019 C 
ATOM     27  C   UNL     1      32.888  -9.695 -23.649  0.00  0.00    +0.003 C 
ATOM     28  C   UNL     1      31.867  -8.781 -23.425  0.00  0.00    +0.021 C 
ATOM     29  C   UNL     1      30.814  -9.185 -22.629  0.00  0.00    +0.099 C 
ENDBRANCH  19  21
ENDBRANCH   1  19
TORSDOF 6
ENDMDL
MODEL 5
REMARK VINA RESULT:     -11.1      2.463      3.600
REMARK  Name = 17754438
REMARK  6 active torsions:
REMARK  status: ('A' for Active; 'I' for Inactive)
REMARK    1  A    between atoms: N_1  and  C_19
REMARK    2  A    between atoms: C_7  and  C_12
REMARK    3  A    between atoms: N_10  and  C_15
REMARK    4  A    between atoms: C_15  and  C_16
REMARK    5  A    between atoms: C_16  and  O_17
REMARK    6  A    between atoms: C_19  and  C_21
REMARK                            x       y       z     vdW  Elec       q    Type
REMARK                         _______ _______ _______ _____ _____    ______ ____
ROOT
ATOM      1  N   UNL     1      34.797 -21.750 -19.349  0.00  0.00    -0.163 N 
ATOM      2  N   UNL     1      35.642 -22.630 -17.232  0.00  0.00    -0.378 NA
ATOM      3  N   UNL     1      33.592 -21.639 -19.943  0.00  0.00    -0.033 NA
ATOM      4  N   UNL     1      32.819 -23.188 -16.901  0.00  0.00    -0.208 NA
ATOM      5  N   UNL     1      32.682 -22.159 -19.118  0.00  0.00    -0.086 NA
ATOM      6  C   UNL     1      34.689 -22.341 -18.131  0.00  0.00    +0.267 C 
ATOM      7  C   UNL     1      35.112 -23.223 -16.137  0.00  0.00    +0.140 C 
ATOM      8  C   UNL     1      33.336 -22.593 -18.003  0.00  0.00    +0.098 C 
ATOM      9  C   UNL     1      33.760 -23.490 -15.978  0.00  0.00    +0.195 C 
ENDROOT
BRANCH   7  12
ATOM     10  N   UNL     1      36.855 -24.248 -13.192  0.00  0.00    -0.208 N 
ATOM     11  N   UNL     1      37.955 -23.975 -13.916  0.00  0.00    -0.176 NA
ATOM     12  C   UNL     1      36.046 -23.577 -15.107  0.00  0.00    +0.064 C 
ATOM     13  C   UNL     1      35.686 -24.025 -13.860  0.00  0.00    +0.088 C 
ATOM     14  C   UNL     1      37.454 -23.566 -15.085  0.00  0.00    +0.121 C 
BRANCH  10  15
ATOM     15  C   UNL     1      36.990 -24.731 -11.839  0.00  0.00    +0.148 C 
BRANCH  15  16
ATOM     16  C   UNL     1      36.821 -23.626 -10.805  0.00  0.00    +0.161 C 
BRANCH  16  17
ATOM     17  O   UNL     1      37.536 -22.468 -11.220  0.00  0.00    -0.380 OA
ATOM     18  H   UNL     1      37.683 -22.505 -12.177  0.00  0.00    +0.211 HD
ENDBRANCH  16  17
ENDBRANCH  15  16
ENDBRANCH  10  15
ENDBRANCH   7  12
BRANCH   1  19
ATOM     19  C   UNL     1      36.008 -21.261 -20.018  0.00  0.00    +0.145 C 
BRANCH  19  21
ATOM     20  N   UNL     1      34.972 -16.718 -23.229  0.00  0.00    -0.244 NA
ATOM     21  C   UNL     1      35.728 -20.070 -20.870  0.00  0.00    -0.000 C 
ATOM     22  C   UNL     1      35.012 -20.209 -22.055  0.00  0.00    -0.001 C 
ATOM     23  C   UNL     1      34.747 -19.088 -22.862  0.00  0.00    +0.017 C 
ATOM     24  C   UNL     1      36.185 -18.814 -20.487  0.00  0.00    -0.001 C 
ATOM     25  C   UNL     1      35.207 -17.811 -22.479  0.00  0.00    +0.081 C 
ATOM     26  C   UNL     1      35.922 -17.701 -21.289  0.00  0.00    +0.019 C 
ATOM     27  C   UNL     1      34.028 -19.200 -24.059  0.00  0.00    +0.003 C 
ATOM     28  C   UNL     1      33.784 -18.075 -24.834  0.00  0.00    +0.021 C 
ATOM     29  C   UNL     1      34.273 -16.868 -24.377  0.00  0.00    +0.099 C 
ENDBRANCH  19  21
ENDBRANCH   1  19
TORSDOF 6
ENDMDL
MODEL 6
REMARK VINA RESULT:     -10.9      4.369      9.826
REMARK  Name = 17754438
REMARK  6 active torsions:
REMARK  status: ('A' for Active; 'I' for Inactive)
REMARK    1  A    between atoms: N_1  and  C_19
REMARK    2  A    between atoms: C_7  and  C_12
REMARK    3  A    between atoms: N_10  and  C_15
REMARK    4  A    between atoms: C_15  and  C_16
REMARK    5  A    between atoms: C_16  and  O_17
REMARK    6  A    between atoms: C_19  and  C_21
REMARK                            x       y       z     vdW  Elec       q    Type
REMARK                         _______ _______ _______ _____ _____    ______ ____
ROOT
ATOM      1  N   UNL     1      35.023 -21.631 -19.200  0.00  0.00    -0.163 N 
ATOM      2  N   UNL     1      34.740 -20.146 -21.119  0.00  0.00    -0.378 NA
ATOM      3  N   UNL     1      35.978 -21.850 -18.274  0.00  0.00    -0.033 NA
ATOM      4  N   UNL     1      37.370 -19.309 -20.238  0.00  0.00    -0.208 NA
ATOM      5  N   UNL     1      36.989 -21.018 -18.527  0.00  0.00    -0.086 NA
ATOM      6  C   UNL     1      35.398 -20.655 -20.067  0.00  0.00    +0.267 C 
ATOM      7  C   UNL     1      35.468 -19.180 -21.726  0.00  0.00    +0.140 C 
ATOM      8  C   UNL     1      36.651 -20.278 -19.622  0.00  0.00    +0.098 C 
ATOM      9  C   UNL     1      36.727 -18.779 -21.304  0.00  0.00    +0.195 C 
ENDROOT
BRANCH   7  12
ATOM     10  N   UNL     1      34.197 -17.043 -24.290  0.00  0.00    -0.208 N 
ATOM     11  N   UNL     1      33.724 -18.186 -24.816  0.00  0.00    -0.176 NA
ATOM     12  C   UNL     1      34.856 -18.564 -22.868  0.00  0.00    +0.064 C 
ATOM     13  C   UNL     1      34.882 -17.214 -23.123  0.00  0.00    +0.088 C 
ATOM     14  C   UNL     1      34.130 -19.112 -23.943  0.00  0.00    +0.121 C 
BRANCH  10  15
ATOM     15  C   UNL     1      33.957 -15.791 -24.967  0.00  0.00    +0.148 C 
BRANCH  15  16
ATOM     16  C   UNL     1      33.455 -14.705 -24.025  0.00  0.00    +0.161 C 
BRANCH  16  17
ATOM     17  O   UNL     1      33.410 -13.460 -24.710  0.00  0.00    -0.380 OA
ATOM     18  H   UNL     1      34.254 -12.996 -24.594  0.00  0.00    +0.211 HD
ENDBRANCH  16  17
ENDBRANCH  15  16
ENDBRANCH  10  15
ENDBRANCH   7  12
BRANCH   1  19
ATOM     19  C   UNL     1      33.776 -22.403 -19.184  0.00  0.00    +0.145 C 
BRANCH  19  21
ATOM     20  N   UNL     1      32.414 -24.038 -13.940  0.00  0.00    -0.244 NA
ATOM     21  C   UNL     1      33.407 -22.833 -17.804  0.00  0.00    -0.000 C 
ATOM     22  C   UNL     1      32.081 -22.776 -17.384  0.00  0.00    -0.001 C 
ATOM     23  C   UNL     1      31.730 -23.179 -16.084  0.00  0.00    +0.017 C 
ATOM     24  C   UNL     1      34.385 -23.290 -16.930  0.00  0.00    -0.001 C 
ATOM     25  C   UNL     1      32.717 -23.645 -15.192  0.00  0.00    +0.081 C 
ATOM     26  C   UNL     1      34.035 -23.691 -15.638  0.00  0.00    +0.019 C 
ATOM     27  C   UNL     1      30.403 -23.133 -15.636  0.00  0.00    +0.003 C 
ATOM     28  C   UNL     1      30.088 -23.537 -14.346  0.00  0.00    +0.021 C 
ATOM     29  C   UNL     1      31.122 -23.978 -13.546  0.00  0.00    +0.099 C 
ENDBRANCH  19  21
ENDBRANCH   1  19
TORSDOF 6
ENDMDL
MODEL 7
REMARK VINA RESULT:     -10.6      3.067      4.874
REMARK  Name = 17754438
REMARK  6 active torsions:
REMARK  status: ('A' for Active; 'I' for Inactive)
REMARK    1  A    between atoms: N_1  and  C_19
REMARK    2  A    between atoms: C_7  and  C_12
REMARK    3  A    between atoms: N_10  and  C_15
REMARK    4  A    between atoms: C_15  and  C_16
REMARK    5  A    between atoms: C_16  and  O_17
REMARK    6  A    between atoms: C_19  and  C_21
REMARK                            x       y       z     vdW  Elec       q    Type
REMARK                         _______ _______ _______ _____ _____    ______ ____
ROOT
ATOM      1  N   UNL     1      34.586 -20.310 -20.517  0.00  0.00    -0.163 N 
ATOM      2  N   UNL     1      35.536 -21.448 -18.575  0.00  0.00    -0.378 NA
ATOM      3  N   UNL     1      33.381 -20.259 -21.119  0.00  0.00    -0.033 NA
ATOM      4  N   UNL     1      32.821 -22.450 -18.448  0.00  0.00    -0.208 NA
ATOM      5  N   UNL     1      32.551 -21.048 -20.437  0.00  0.00    -0.086 NA
ATOM      6  C   UNL     1      34.557 -21.131 -19.435  0.00  0.00    +0.267 C 
ATOM      7  C   UNL     1      35.091 -22.307 -17.629  0.00  0.00    +0.140 C 
ATOM      8  C   UNL     1      33.254 -21.590 -19.402  0.00  0.00    +0.098 C 
ATOM      9  C   UNL     1      33.791 -22.787 -17.567  0.00  0.00    +0.195 C 
ENDROOT
BRANCH   7  12
ATOM     10  N   UNL     1      36.956 -23.666 -14.902  0.00  0.00    -0.208 N 
ATOM     11  N   UNL     1      37.989 -23.016 -15.467  0.00  0.00    -0.176 NA
ATOM     12  C   UNL     1      36.060 -22.715 -16.653  0.00  0.00    +0.064 C 
ATOM     13  C   UNL     1      35.779 -23.517 -15.574  0.00  0.00    +0.088 C 
ATOM     14  C   UNL     1      37.436 -22.437 -16.535  0.00  0.00    +0.121 C 
BRANCH  10  15
ATOM     15  C   UNL     1      37.164 -24.431 -13.696  0.00  0.00    +0.148 C 
BRANCH  15  16
ATOM     16  C   UNL     1      36.962 -23.600 -12.436  0.00  0.00    +0.161 C 
BRANCH  16  17
ATOM     17  O   UNL     1      35.578 -23.541 -12.117  0.00  0.00    -0.380 OA
ATOM     18  H   UNL     1      35.275 -24.416 -11.830  0.00  0.00    +0.211 HD
ENDBRANCH  16  17
ENDBRANCH  15  16
ENDBRANCH  10  15
ENDBRANCH   7  12
BRANCH   1  19
ATOM     19  C   UNL     1      35.717 -19.538 -21.042  0.00  0.00    +0.145 C 
BRANCH  19  21
ATOM     20  N   UNL     1      34.111 -14.440 -22.901  0.00  0.00    -0.244 NA
ATOM     21  C   UNL     1      35.291 -18.198 -21.541  0.00  0.00    -0.000 C 
ATOM     22  C   UNL     1      34.975 -18.020 -22.885  0.00  0.00    -0.001 C 
ATOM     23  C   UNL     1      34.574 -16.759 -23.359  0.00  0.00    +0.017 C 
ATOM     24  C   UNL     1      35.212 -17.120 -20.668  0.00  0.00    -0.001 C 
ATOM     25  C   UNL     1      34.490 -15.661 -22.479  0.00  0.00    +0.081 C 
ATOM     26  C   UNL     1      34.814 -15.867 -21.140  0.00  0.00    +0.019 C 
ATOM     27  C   UNL     1      34.248 -16.552 -24.706  0.00  0.00    +0.003 C 
ATOM     28  C   UNL     1      33.857 -15.295 -25.144  0.00  0.00    +0.021 C 
ATOM     29  C   UNL     1      33.805 -14.282 -24.209  0.00  0.00    +0.099 C 
ENDBRANCH  19  21
ENDBRANCH   1  19
TORSDOF 6
ENDMDL
MODEL 8
REMARK VINA RESULT:     -10.6      4.047      9.654
REMARK  Name = 17754438
REMARK  6 active torsions:
REMARK  status: ('A' for Active; 'I' for Inactive)
REMARK    1  A    between atoms: N_1  and  C_19
REMARK    2  A    between atoms: C_7  and  C_12
REMARK    3  A    between atoms: N_10  and  C_15
REMARK    4  A    between atoms: C_15  and  C_16
REMARK    5  A    between atoms: C_16  and  O_17
REMARK    6  A    between atoms: C_19  and  C_21
REMARK                            x       y       z     vdW  Elec       q    Type
REMARK                         _______ _______ _______ _____ _____    ______ ____
ROOT
ATOM      1  N   UNL     1      34.978 -21.650 -19.202  0.00  0.00    -0.163 N 
ATOM      2  N   UNL     1      34.723 -20.156 -21.119  0.00  0.00    -0.378 NA
ATOM      3  N   UNL     1      35.922 -21.876 -18.267  0.00  0.00    -0.033 NA
ATOM      4  N   UNL     1      37.347 -19.336 -20.207  0.00  0.00    -0.208 NA
ATOM      5  N   UNL     1      36.939 -21.049 -18.506  0.00  0.00    -0.086 NA
ATOM      6  C   UNL     1      35.367 -20.672 -20.062  0.00  0.00    +0.267 C 
ATOM      7  C   UNL     1      35.462 -19.192 -21.714  0.00  0.00    +0.140 C 
ATOM      8  C   UNL     1      36.617 -20.303 -19.601  0.00  0.00    +0.098 C 
ATOM      9  C   UNL     1      36.719 -18.798 -21.277  0.00  0.00    +0.195 C 
ENDROOT
BRANCH   7  12
ATOM     10  N   UNL     1      34.217 -17.038 -24.277  0.00  0.00    -0.208 N 
ATOM     11  N   UNL     1      33.768 -18.180 -24.826  0.00  0.00    -0.176 NA
ATOM     12  C   UNL     1      34.866 -18.569 -22.861  0.00  0.00    +0.064 C 
ATOM     13  C   UNL     1      34.881 -17.216 -23.099  0.00  0.00    +0.088 C 
ATOM     14  C   UNL     1      34.168 -19.111 -23.956  0.00  0.00    +0.121 C 
BRANCH  10  15
ATOM     15  C   UNL     1      33.977 -15.780 -24.943  0.00  0.00    +0.148 C 
BRANCH  15  16
ATOM     16  C   UNL     1      33.881 -14.613 -23.970  0.00  0.00    +0.161 C 
BRANCH  16  17
ATOM     17  O   UNL     1      32.541 -14.140 -23.919  0.00  0.00    -0.380 OA
ATOM     18  H   UNL     1      32.332 -13.671 -24.741  0.00  0.00    +0.211 HD
ENDBRANCH  16  17
ENDBRANCH  15  16
ENDBRANCH  10  15
ENDBRANCH   7  12
BRANCH   1  19
ATOM     19  C   UNL     1      33.727 -22.415 -19.202  0.00  0.00    +0.145 C 
BRANCH  19  21
ATOM     20  N   UNL     1      32.209 -24.028 -13.994  0.00  0.00    -0.244 NA
ATOM     21  C   UNL     1      33.337 -22.842 -17.827  0.00  0.00    -0.000 C 
ATOM     22  C   UNL     1      34.288 -23.379 -16.965  0.00  0.00    -0.001 C 
ATOM     23  C   UNL     1      33.924 -23.784 -15.669  0.00  0.00    +0.017 C 
ATOM     24  C   UNL     1      32.021 -22.708 -17.401  0.00  0.00    -0.001 C 
ATOM     25  C   UNL     1      32.591 -23.650 -15.229  0.00  0.00    +0.081 C 
ATOM     26  C   UNL     1      31.660 -23.109 -16.112  0.00  0.00    +0.019 C 
ATOM     27  C   UNL     1      34.862 -24.327 -14.781  0.00  0.00    +0.003 C 
ATOM     28  C   UNL     1      34.471 -24.718 -13.507  0.00  0.00    +0.021 C 
ATOM     29  C   UNL     1      33.145 -24.548 -13.167  0.00  0.00    +0.099 C 
ENDBRANCH  19  21
ENDBRANCH   1  19
TORSDOF 6
ENDMDL
MODEL 9
REMARK VINA RESULT:     -10.4     10.741     15.953
REMARK  Name = 17754438
REMARK  6 active torsions:
REMARK  status: ('A' for Active; 'I' for Inactive)
REMARK    1  A    between atoms: N_1  and  C_19
REMARK    2  A    between atoms: C_7  and  C_12
REMARK    3  A    between atoms: N_10  and  C_15
REMARK    4  A    between atoms: C_15  and  C_16
REMARK    5  A    between atoms: C_16  and  O_17
REMARK    6  A    between atoms: C_19  and  C_21
REMARK                            x       y       z     vdW  Elec       q    Type
REMARK                         _______ _______ _______ _____ _____    ______ ____
ROOT
ATOM      1  N   UNL     1      31.312 -10.330 -20.430  0.00  0.00    -0.163 N 
ATOM      2  N   UNL     1      32.614  -8.752 -21.766  0.00  0.00    -0.378 NA
ATOM      3  N   UNL     1      30.936 -10.431 -19.139  0.00  0.00    -0.033 NA
ATOM      4  N   UNL     1      32.789  -7.462 -19.179  0.00  0.00    -0.208 NA
ATOM      5  N   UNL     1      31.432  -9.379 -18.488  0.00  0.00    -0.086 NA
ATOM      6  C   UNL     1      32.056  -9.212 -20.637  0.00  0.00    +0.267 C 
ATOM      7  C   UNL     1      33.278  -7.595 -21.543  0.00  0.00    +0.140 C 
ATOM      8  C   UNL     1      32.121  -8.621 -19.389  0.00  0.00    +0.098 C 
ATOM      9  C   UNL     1      33.363  -6.977 -20.303  0.00  0.00    +0.195 C 
ENDROOT
BRANCH   7  12
ATOM     10  N   UNL     1      34.259  -5.781 -24.459  0.00  0.00    -0.208 N 
ATOM     11  N   UNL     1      35.407  -6.469 -24.332  0.00  0.00    -0.176 NA
ATOM     12  C   UNL     1      33.916  -7.012 -22.688  0.00  0.00    +0.064 C 
ATOM     13  C   UNL     1      33.334  -6.070 -23.500  0.00  0.00    +0.088 C 
ATOM     14  C   UNL     1      35.191  -7.219 -23.248  0.00  0.00    +0.121 C 
BRANCH  10  15
ATOM     15  C   UNL     1      34.106  -4.838 -25.541  0.00  0.00    +0.148 C 
BRANCH  15  16
ATOM     16  C   UNL     1      34.517  -5.421 -26.886  0.00  0.00    +0.161 C 
BRANCH  16  17
ATOM     17  O   UNL     1      34.093  -6.776 -26.972  0.00  0.00    -0.380 OA
ATOM     18  H   UNL     1      33.522  -6.984 -26.216  0.00  0.00    +0.211 HD
ENDBRANCH  16  17
ENDBRANCH  15  16
ENDBRANCH  10  15
ENDBRANCH   7  12
BRANCH   1  19
ATOM     19  C   UNL     1      30.914 -11.350 -21.406  0.00  0.00    +0.145 C 
BRANCH  19  21
ATOM     20  N   UNL     1      34.616 -15.626 -21.582  0.00  0.00    -0.244 NA
ATOM     21  C   UNL     1      31.890 -12.476 -21.463  0.00  0.00    -0.000 C 
ATOM     22  C   UNL     1      32.325 -12.965 -22.692  0.00  0.00    -0.001 C 
ATOM     23  C   UNL     1      33.245 -14.026 -22.749  0.00  0.00    +0.017 C 
ATOM     24  C   UNL     1      32.370 -13.045 -20.289  0.00  0.00    -0.001 C 
ATOM     25  C   UNL     1      33.736 -14.608 -21.562  0.00  0.00    +0.081 C 
ATOM     26  C   UNL     1      33.284 -14.100 -20.347  0.00  0.00    +0.019 C 
ATOM     27  C   UNL     1      33.699 -14.536 -23.972  0.00  0.00    +0.003 C 
ATOM     28  C   UNL     1      34.607 -15.586 -23.996  0.00  0.00    +0.021 C 
ATOM     29  C   UNL     1      35.031 -16.090 -22.783  0.00  0.00    +0.099 C 
ENDBRANCH  19  21
ENDBRANCH   1  19
TORSDOF 6
ENDMDL
