MODEL 1
REMARK VINA RESULT:     -12.4      0.000      0.000
REMARK  Name = 447655
REMARK  6 active torsions:
REMARK  status: ('A' for Active; 'I' for Inactive)
REMARK    1  A    between atoms: N_4  and  C_14
REMARK    2  A    between atoms: C_6  and  O_26
REMARK    3  A    between atoms: C_15  and  S_20
REMARK    4  A    between atoms: S_20  and  N_23
REMARK    5  A    between atoms: O_26  and  C_27
REMARK    6  A    between atoms: C_27  and  C_28
REMARK                            x       y       z     vdW  Elec       q    Type
REMARK                         _______ _______ _______ _____ _____    ______ ____
ROOT
ATOM      1  N   UNL     1      32.351 -23.683 -15.543  0.00  0.00    -0.293 NA
ATOM      2  N   UNL     1      29.057 -22.764 -16.897  0.00  0.00    -0.266 NA
ATOM      3  N   UNL     1      30.478 -24.270 -14.095  0.00  0.00    -0.316 NA
ATOM      4  N   UNL     1      32.686 -24.739 -13.480  0.00  0.00    -0.238 N 
ATOM      5  N   UNL     1      28.306 -23.659 -14.999  0.00  0.00    -0.296 N 
ATOM      6  C   UNL     1      31.523 -23.158 -16.473  0.00  0.00    +0.288 C 
ATOM      7  C   UNL     1      30.167 -23.184 -16.221  0.00  0.00    +0.215 C 
ATOM      8  C   UNL     1      29.674 -23.736 -15.045  0.00  0.00    +0.196 C 
ATOM      9  C   UNL     1      31.785 -24.200 -14.427  0.00  0.00    +0.207 C 
ATOM     10  C   UNL     1      27.966 -23.070 -16.126  0.00  0.00    +0.164 C 
ATOM     11  H   UNL     1      29.043 -22.324 -17.777  0.00  0.00    +0.126 HD
ATOM     12  H   UNL     1      32.247 -25.109 -12.680  0.00  0.00    +0.166 HD
ATOM     13  H   UNL     1      27.709 -23.974 -14.282  0.00  0.00    +0.150 HD
ENDROOT
BRANCH   4  14
ATOM     14  C   UNL     1      34.088 -24.853 -13.459  0.00  0.00    +0.060 C 
ATOM     15  C   UNL     1      36.201 -24.537 -12.324  0.00  0.00    +0.123 C 
ATOM     16  C   UNL     1      34.810 -24.424 -12.344  0.00  0.00    +0.035 C 
ATOM     17  C   UNL     1      34.763 -25.397 -14.555  0.00  0.00    +0.015 C 
ATOM     18  C   UNL     1      36.872 -25.081 -13.420  0.00  0.00    +0.020 C 
ATOM     19  C   UNL     1      36.152 -25.511 -14.535  0.00  0.00    +0.003 C 
BRANCH  15  20
ATOM     20  S   UNL     1      37.102 -24.001 -10.928  0.00  0.00    +0.057 S 
ATOM     21  O   UNL     1      38.311 -24.804 -10.826  0.00  0.00    -0.153 OA
ATOM     22  O   UNL     1      37.199 -22.548 -10.972  0.00  0.00    -0.153 OA
BRANCH  20  23
ATOM     23  N   UNL     1      36.038 -24.441  -9.665  0.00  0.00    -0.203 NA
ATOM     24  H   UNL     1      35.074 -24.308  -9.971  0.00  0.00    +0.144 HD
ATOM     25  H   UNL     1      36.220 -23.856  -8.849  0.00  0.00    +0.144 HD
ENDBRANCH  20  23
ENDBRANCH  15  20
ENDBRANCH   4  14
BRANCH   6  26
ATOM     26  O   UNL     1      32.064 -22.625 -17.617  0.00  0.00    -0.453 OA
BRANCH  26  27
ATOM     27  C   UNL     1      33.415 -22.941 -17.897  0.00  0.00    +0.208 C 
BRANCH  27  28
ATOM     28  C   UNL     1      33.823 -22.227 -19.184  0.00  0.00    +0.044 C 
ATOM     29  C   UNL     1      32.860 -21.072 -19.492  0.00  0.00    +0.004 C 
ATOM     30  C   UNL     1      35.268 -21.722 -19.089  0.00  0.00    +0.004 C 
ATOM     31  C   UNL     1      33.278 -20.309 -20.746  0.00  0.00    +0.000 C 
ATOM     32  C   UNL     1      35.682 -20.958 -20.344  0.00  0.00    +0.000 C 
ATOM     33  C   UNL     1      34.718 -19.816 -20.652  0.00  0.00    +0.000 C 
ENDBRANCH  27  28
ENDBRANCH  26  27
ENDBRANCH   6  26
TORSDOF 6
ENDMDL
MODEL 2
REMARK VINA RESULT:     -12.4      2.370      2.803
REMARK  Name = 447655
REMARK  6 active torsions:
REMARK  status: ('A' for Active; 'I' for Inactive)
REMARK    1  A    between atoms: N_4  and  C_14
REMARK    2  A    between atoms: C_6  and  O_26
REMARK    3  A    between atoms: C_15  and  S_20
REMARK    4  A    between atoms: S_20  and  N_23
REMARK    5  A    between atoms: O_26  and  C_27
REMARK    6  A    between atoms: C_27  and  C_28
REMARK                            x       y       z     vdW  Elec       q    Type
REMARK                         _______ _______ _______ _____ _____    ______ ____
ROOT
ATOM      1  N   UNL     1      33.371 -23.212 -16.219  0.00  0.00    -0.293 NA
ATOM      2  N   UNL     1      29.741 -22.799 -16.644  0.00  0.00    -0.266 NA
ATOM      3  N   UNL     1      32.084 -23.537 -14.173  0.00  0.00    -0.316 NA
ATOM      4  N   UNL     1      34.414 -23.740 -14.190  0.00  0.00    -0.238 N 
ATOM      5  N   UNL     1      29.686 -23.263 -14.465  0.00  0.00    -0.296 N 
ATOM      6  C   UNL     1      32.251 -22.960 -16.934  0.00  0.00    +0.288 C 
ATOM      7  C   UNL     1      31.040 -22.994 -16.274  0.00  0.00    +0.215 C 
ATOM      8  C   UNL     1      30.980 -23.280 -14.916  0.00  0.00    +0.196 C 
ATOM      9  C   UNL     1      33.219 -23.482 -14.901  0.00  0.00    +0.207 C 
ATOM     10  C   UNL     1      28.966 -22.970 -15.527  0.00  0.00    +0.164 C 
ATOM     11  H   UNL     1      29.419 -22.577 -17.547  0.00  0.00    +0.126 HD
ATOM     12  H   UNL     1      34.274 -23.934 -13.235  0.00  0.00    +0.166 HD
ATOM     13  H   UNL     1      29.365 -23.431 -13.549  0.00  0.00    +0.150 HD
ENDROOT
BRANCH   4  14
ATOM     14  C   UNL     1      35.764 -23.775 -14.582  0.00  0.00    +0.060 C 
ATOM     15  C   UNL     1      37.898 -24.913 -14.653  0.00  0.00    +0.123 C 
ATOM     16  C   UNL     1      36.559 -24.878 -14.263  0.00  0.00    +0.035 C 
ATOM     17  C   UNL     1      36.315 -22.707 -15.296  0.00  0.00    +0.015 C 
ATOM     18  C   UNL     1      38.445 -23.845 -15.365  0.00  0.00    +0.020 C 
ATOM     19  C   UNL     1      37.653 -22.742 -15.685  0.00  0.00    +0.003 C 
BRANCH  15  20
ATOM     20  S   UNL     1      38.890 -26.293 -14.254  0.00  0.00    +0.057 S 
ATOM     21  O   UNL     1      39.416 -26.106 -12.909  0.00  0.00    -0.153 OA
ATOM     22  O   UNL     1      38.148 -27.504 -14.578  0.00  0.00    -0.153 OA
BRANCH  20  23
ATOM     23  N   UNL     1      40.165 -26.115 -15.376  0.00  0.00    -0.203 NA
ATOM     24  H   UNL     1      40.288 -26.986 -15.891  0.00  0.00    +0.144 HD
ATOM     25  H   UNL     1      41.026 -25.889 -14.878  0.00  0.00    +0.144 HD
ENDBRANCH  20  23
ENDBRANCH  15  20
ENDBRANCH   4  14
BRANCH   6  26
ATOM     26  O   UNL     1      32.369 -22.682 -18.274  0.00  0.00    -0.453 OA
BRANCH  26  27
ATOM     27  C   UNL     1      33.619 -22.955 -18.879  0.00  0.00    +0.208 C 
BRANCH  27  28
ATOM     28  C   UNL     1      34.305 -21.627 -19.193  0.00  0.00    +0.044 C 
ATOM     29  C   UNL     1      35.783 -21.848 -19.540  0.00  0.00    +0.004 C 
ATOM     30  C   UNL     1      33.580 -20.898 -20.332  0.00  0.00    +0.004 C 
ATOM     31  C   UNL     1      36.478 -20.540 -19.910  0.00  0.00    +0.000 C 
ATOM     32  C   UNL     1      34.278 -19.592 -20.700  0.00  0.00    +0.000 C 
ATOM     33  C   UNL     1      35.749 -19.814 -21.037  0.00  0.00    +0.000 C 
ENDBRANCH  27  28
ENDBRANCH  26  27
ENDBRANCH   6  26
TORSDOF 6
ENDMDL
MODEL 3
REMARK VINA RESULT:     -12.2      2.115      2.589
REMARK  Name = 447655
REMARK  6 active torsions:
REMARK  status: ('A' for Active; 'I' for Inactive)
REMARK    1  A    between atoms: N_4  and  C_14
REMARK    2  A    between atoms: C_6  and  O_26
REMARK    3  A    between atoms: C_15  and  S_20
REMARK    4  A    between atoms: S_20  and  N_23
REMARK    5  A    between atoms: O_26  and  C_27
REMARK    6  A    between atoms: C_27  and  C_28
REMARK                            x       y       z     vdW  Elec       q    Type
REMARK                         _______ _______ _______ _____ _____    ______ ____
ROOT
ATOM      1  N   UNL     1      33.443 -24.040 -14.498  0.00  0.00    -0.293 NA
ATOM      2  N   UNL     1      30.069 -24.043 -15.963  0.00  0.00    -0.266 NA
ATOM      3  N   UNL     1      31.778 -25.223 -13.165  0.00  0.00    -0.316 NA
ATOM      4  N   UNL     1      34.005 -25.065 -12.469  0.00  0.00    -0.238 N 
ATOM      5  N   UNL     1      29.552 -25.220 -14.142  0.00  0.00    -0.296 N 
ATOM      6  C   UNL     1      32.527 -23.728 -15.442  0.00  0.00    +0.288 C 
ATOM      7  C   UNL     1      31.231 -24.160 -15.255  0.00  0.00    +0.215 C 
ATOM      8  C   UNL     1      30.884 -24.894 -14.128  0.00  0.00    +0.196 C 
ATOM      9  C   UNL     1      33.017 -24.759 -13.433  0.00  0.00    +0.207 C 
ATOM     10  C   UNL     1      29.091 -24.694 -15.257  0.00  0.00    +0.164 C 
ATOM     11  H   UNL     1      29.955 -23.578 -16.823  0.00  0.00    +0.126 HD
ATOM     12  H   UNL     1      33.668 -25.589 -11.707  0.00  0.00    +0.166 HD
ATOM     13  H   UNL     1      29.050 -25.732 -13.468  0.00  0.00    +0.150 HD
ENDROOT
BRANCH   4  14
ATOM     14  C   UNL     1      35.378 -24.768 -12.388  0.00  0.00    +0.060 C 
ATOM     15  C   UNL     1      37.651 -25.139 -13.128  0.00  0.00    +0.123 C 
ATOM     16  C   UNL     1      36.290 -25.434 -13.209  0.00  0.00    +0.035 C 
ATOM     17  C   UNL     1      35.833 -23.802 -11.486  0.00  0.00    +0.015 C 
ATOM     18  C   UNL     1      38.103 -24.174 -12.227  0.00  0.00    +0.020 C 
ATOM     19  C   UNL     1      37.194 -23.506 -11.406  0.00  0.00    +0.003 C 
BRANCH  15  20
ATOM     20  S   UNL     1      38.789 -25.973 -14.155  0.00  0.00    +0.057 S 
ATOM     21  O   UNL     1      39.914 -26.405 -13.339  0.00  0.00    -0.153 OA
ATOM     22  O   UNL     1      38.060 -26.947 -14.956  0.00  0.00    -0.153 OA
BRANCH  20  23
ATOM     23  N   UNL     1      39.303 -24.701 -15.174  0.00  0.00    -0.203 NA
ATOM     24  H   UNL     1      39.897 -24.062 -14.645  0.00  0.00    +0.144 HD
ATOM     25  H   UNL     1      38.489 -24.197 -15.525  0.00  0.00    +0.144 HD
ENDBRANCH  20  23
ENDBRANCH  15  20
ENDBRANCH   4  14
BRANCH   6  26
ATOM     26  O   UNL     1      32.926 -22.999 -16.536  0.00  0.00    -0.453 OA
BRANCH  26  27
ATOM     27  C   UNL     1      33.983 -23.531 -17.312  0.00  0.00    +0.208 C 
BRANCH  27  28
ATOM     28  C   UNL     1      34.032 -22.779 -18.642  0.00  0.00    +0.044 C 
ATOM     29  C   UNL     1      32.862 -21.792 -18.751  0.00  0.00    +0.004 C 
ATOM     30  C   UNL     1      35.375 -22.054 -18.805  0.00  0.00    +0.004 C 
ATOM     31  C   UNL     1      32.920 -20.991 -20.048  0.00  0.00    +0.000 C 
ATOM     32  C   UNL     1      35.428 -21.252 -20.102  0.00  0.00    +0.000 C 
ATOM     33  C   UNL     1      34.259 -20.279 -20.211  0.00  0.00    +0.000 C 
ENDBRANCH  27  28
ENDBRANCH  26  27
ENDBRANCH   6  26
TORSDOF 6
ENDMDL
MODEL 4
REMARK VINA RESULT:     -11.1      3.731      7.507
REMARK  Name = 447655
REMARK  6 active torsions:
REMARK  status: ('A' for Active; 'I' for Inactive)
REMARK    1  A    between atoms: N_4  and  C_14
REMARK    2  A    between atoms: C_6  and  O_26
REMARK    3  A    between atoms: C_15  and  S_20
REMARK    4  A    between atoms: S_20  and  N_23
REMARK    5  A    between atoms: O_26  and  C_27
REMARK    6  A    between atoms: C_27  and  C_28
REMARK                            x       y       z     vdW  Elec       q    Type
REMARK                         _______ _______ _______ _____ _____    ______ ____
ROOT
ATOM      1  N   UNL     1      33.591 -22.963 -16.492  0.00  0.00    -0.293 NA
ATOM      2  N   UNL     1      31.409 -24.517 -13.971  0.00  0.00    -0.266 NA
ATOM      3  N   UNL     1      31.251 -23.128 -17.163  0.00  0.00    -0.316 NA
ATOM      4  N   UNL     1      32.858 -22.182 -18.574  0.00  0.00    -0.238 N 
ATOM      5  N   UNL     1      29.818 -24.156 -15.489  0.00  0.00    -0.296 N 
ATOM      6  C   UNL     1      33.333 -23.544 -15.299  0.00  0.00    +0.288 C 
ATOM      7  C   UNL     1      32.034 -23.922 -15.029  0.00  0.00    +0.215 C 
ATOM      8  C   UNL     1      31.026 -23.708 -15.959  0.00  0.00    +0.196 C 
ATOM      9  C   UNL     1      32.547 -22.793 -17.338  0.00  0.00    +0.207 C 
ATOM     10  C   UNL     1      30.082 -24.637 -14.293  0.00  0.00    +0.164 C 
ATOM     11  H   UNL     1      31.832 -24.806 -13.131  0.00  0.00    +0.126 HD
ATOM     12  H   UNL     1      32.082 -22.070 -19.169  0.00  0.00    +0.166 HD
ATOM     13  H   UNL     1      28.946 -24.126 -15.946  0.00  0.00    +0.150 HD
ENDROOT
BRANCH   4  14
ATOM     14  C   UNL     1      34.062 -21.700 -19.120  0.00  0.00    +0.060 C 
ATOM     15  C   UNL     1      35.245 -20.134 -20.534  0.00  0.00    +0.123 C 
ATOM     16  C   UNL     1      34.051 -20.611 -19.993  0.00  0.00    +0.035 C 
ATOM     17  C   UNL     1      35.275 -22.310 -18.788  0.00  0.00    +0.015 C 
ATOM     18  C   UNL     1      36.455 -20.745 -20.201  0.00  0.00    +0.020 C 
ATOM     19  C   UNL     1      36.469 -21.833 -19.328  0.00  0.00    +0.003 C 
BRANCH  15  20
ATOM     20  S   UNL     1      35.228 -18.771 -21.625  0.00  0.00    +0.057 S 
ATOM     21  O   UNL     1      34.404 -19.114 -22.775  0.00  0.00    -0.153 OA
ATOM     22  O   UNL     1      34.936 -17.568 -20.857  0.00  0.00    -0.153 OA
BRANCH  20  23
ATOM     23  N   UNL     1      36.865 -18.724 -22.114  0.00  0.00    -0.203 NA
ATOM     24  H   UNL     1      36.945 -19.082 -23.066  0.00  0.00    +0.144 HD
ATOM     25  H   UNL     1      37.424 -19.302 -21.486  0.00  0.00    +0.144 HD
ENDBRANCH  20  23
ENDBRANCH  15  20
ENDBRANCH   4  14
BRANCH   6  26
ATOM     26  O   UNL     1      34.370 -23.732 -14.417  0.00  0.00    -0.453 OA
BRANCH  26  27
ATOM     27  C   UNL     1      35.655 -23.316 -14.837  0.00  0.00    +0.208 C 
BRANCH  27  28
ATOM     28  C   UNL     1      36.691 -24.267 -14.240  0.00  0.00    +0.044 C 
ATOM     29  C   UNL     1      36.924 -23.953 -12.756  0.00  0.00    +0.004 C 
ATOM     30  C   UNL     1      36.257 -25.727 -14.427  0.00  0.00    +0.004 C 
ATOM     31  C   UNL     1      37.916 -24.925 -12.123  0.00  0.00    +0.000 C 
ATOM     32  C   UNL     1      37.251 -26.696 -13.791  0.00  0.00    +0.000 C 
ATOM     33  C   UNL     1      37.486 -26.375 -12.319  0.00  0.00    +0.000 C 
ENDBRANCH  27  28
ENDBRANCH  26  27
ENDBRANCH   6  26
TORSDOF 6
ENDMDL
MODEL 5
REMARK VINA RESULT:      -9.6      2.967      6.740
REMARK  Name = 447655
REMARK  6 active torsions:
REMARK  status: ('A' for Active; 'I' for Inactive)
REMARK    1  A    between atoms: N_4  and  C_14
REMARK    2  A    between atoms: C_6  and  O_26
REMARK    3  A    between atoms: C_15  and  S_20
REMARK    4  A    between atoms: S_20  and  N_23
REMARK    5  A    between atoms: O_26  and  C_27
REMARK    6  A    between atoms: C_27  and  C_28
REMARK                            x       y       z     vdW  Elec       q    Type
REMARK                         _______ _______ _______ _____ _____    ______ ____
ROOT
ATOM      1  N   UNL     1      33.568 -22.984 -16.975  0.00  0.00    -0.293 NA
ATOM      2  N   UNL     1      36.512 -21.845 -18.862  0.00  0.00    -0.266 NA
ATOM      3  N   UNL     1      33.034 -21.675 -18.963  0.00  0.00    -0.316 NA
ATOM      4  N   UNL     1      31.352 -22.525 -17.577  0.00  0.00    -0.238 N 
ATOM      5  N   UNL     1      34.986 -20.928 -20.203  0.00  0.00    -0.296 N 
ATOM      6  C   UNL     1      34.895 -22.873 -17.207  0.00  0.00    +0.288 C 
ATOM      7  C   UNL     1      35.302 -22.163 -18.318  0.00  0.00    +0.215 C 
ATOM      8  C   UNL     1      34.370 -21.583 -19.168  0.00  0.00    +0.196 C 
ATOM      9  C   UNL     1      32.731 -22.386 -17.856  0.00  0.00    +0.207 C 
ATOM     10  C   UNL     1      36.273 -21.104 -19.990  0.00  0.00    +0.164 C 
ATOM     11  H   UNL     1      37.395 -22.101 -18.510  0.00  0.00    +0.126 HD
ATOM     12  H   UNL     1      30.768 -22.083 -18.233  0.00  0.00    +0.166 HD
ATOM     13  H   UNL     1      34.561 -20.435 -20.942  0.00  0.00    +0.150 HD
ENDROOT
BRANCH   4  14
ATOM     14  C   UNL     1      30.652 -23.176 -16.544  0.00  0.00    +0.060 C 
ATOM     15  C   UNL     1      30.637 -24.272 -14.387  0.00  0.00    +0.123 C 
ATOM     16  C   UNL     1      31.332 -23.628 -15.411  0.00  0.00    +0.035 C 
ATOM     17  C   UNL     1      29.272 -23.370 -16.647  0.00  0.00    +0.015 C 
ATOM     18  C   UNL     1      29.260 -24.464 -14.494  0.00  0.00    +0.020 C 
ATOM     19  C   UNL     1      28.577 -24.013 -15.624  0.00  0.00    +0.003 C 
BRANCH  15  20
ATOM     20  S   UNL     1      31.490 -24.836 -12.973  0.00  0.00    +0.057 S 
ATOM     21  O   UNL     1      30.516 -25.093 -11.922  0.00  0.00    -0.153 OA
ATOM     22  O   UNL     1      32.412 -25.888 -13.378  0.00  0.00    -0.153 OA
BRANCH  20  23
ATOM     23  N   UNL     1      32.393 -23.445 -12.560  0.00  0.00    -0.203 NA
ATOM     24  H   UNL     1      33.021 -23.665 -11.787  0.00  0.00    +0.144 HD
ATOM     25  H   UNL     1      31.757 -22.699 -12.278  0.00  0.00    +0.144 HD
ENDBRANCH  20  23
ENDBRANCH  15  20
ENDBRANCH   4  14
BRANCH   6  26
ATOM     26  O   UNL     1      35.772 -23.468 -16.333  0.00  0.00    -0.453 OA
BRANCH  26  27
ATOM     27  C   UNL     1      35.259 -23.858 -15.073  0.00  0.00    +0.208 C 
BRANCH  27  28
ATOM     28  C   UNL     1      36.222 -24.867 -14.450  0.00  0.00    +0.044 C 
ATOM     29  C   UNL     1      37.677 -24.423 -14.649  0.00  0.00    +0.004 C 
ATOM     30  C   UNL     1      35.910 -25.065 -12.960  0.00  0.00    +0.004 C 
ATOM     31  C   UNL     1      38.657 -25.389 -13.989  0.00  0.00    +0.000 C 
ATOM     32  C   UNL     1      36.893 -26.030 -12.303  0.00  0.00    +0.000 C 
ATOM     33  C   UNL     1      38.339 -25.590 -12.510  0.00  0.00    +0.000 C 
ENDBRANCH  27  28
ENDBRANCH  26  27
ENDBRANCH   6  26
TORSDOF 6
ENDMDL
MODEL 6
REMARK VINA RESULT:      -9.6     14.179     17.980
REMARK  Name = 447655
REMARK  6 active torsions:
REMARK  status: ('A' for Active; 'I' for Inactive)
REMARK    1  A    between atoms: N_4  and  C_14
REMARK    2  A    between atoms: C_6  and  O_26
REMARK    3  A    between atoms: C_15  and  S_20
REMARK    4  A    between atoms: S_20  and  N_23
REMARK    5  A    between atoms: O_26  and  C_27
REMARK    6  A    between atoms: C_27  and  C_28
REMARK                            x       y       z     vdW  Elec       q    Type
REMARK                         _______ _______ _______ _____ _____    ______ ____
ROOT
ATOM      1  N   UNL     1      32.744  -8.688 -22.419  0.00  0.00    -0.293 NA
ATOM      2  N   UNL     1      31.373 -10.918 -19.836  0.00  0.00    -0.266 NA
ATOM      3  N   UNL     1      32.566  -7.666 -20.211  0.00  0.00    -0.316 NA
ATOM      4  N   UNL     1      33.405  -6.473 -22.039  0.00  0.00    -0.238 N 
ATOM      5  N   UNL     1      31.659  -9.150 -18.511  0.00  0.00    -0.296 N 
ATOM      6  C   UNL     1      32.240  -9.857 -21.965  0.00  0.00    +0.288 C 
ATOM      7  C   UNL     1      31.895  -9.940 -20.632  0.00  0.00    +0.215 C 
ATOM      8  C   UNL     1      32.064  -8.851 -19.787  0.00  0.00    +0.196 C 
ATOM      9  C   UNL     1      32.875  -7.679 -21.525  0.00  0.00    +0.207 C 
ATOM     10  C   UNL     1      31.249 -10.399 -18.574  0.00  0.00    +0.164 C 
ATOM     11  H   UNL     1      31.130 -11.830 -20.116  0.00  0.00    +0.126 HD
ATOM     12  H   UNL     1      33.490  -5.759 -21.368  0.00  0.00    +0.166 HD
ATOM     13  H   UNL     1      31.671  -8.560 -17.722  0.00  0.00    +0.150 HD
ENDROOT
BRANCH   4  14
ATOM     14  C   UNL     1      33.839  -6.097 -23.324  0.00  0.00    +0.060 C 
ATOM     15  C   UNL     1      33.557  -4.770 -25.327  0.00  0.00    +0.123 C 
ATOM     16  C   UNL     1      33.127  -5.143 -24.053  0.00  0.00    +0.035 C 
ATOM     17  C   UNL     1      34.986  -6.677 -23.874  0.00  0.00    +0.015 C 
ATOM     18  C   UNL     1      34.702  -5.351 -25.873  0.00  0.00    +0.020 C 
ATOM     19  C   UNL     1      35.416  -6.304 -25.147  0.00  0.00    +0.003 C 
BRANCH  15  20
ATOM     20  S   UNL     1      32.666  -3.577 -26.236  0.00  0.00    +0.057 S 
ATOM     21  O   UNL     1      32.531  -4.050 -27.606  0.00  0.00    -0.153 OA
ATOM     22  O   UNL     1      31.478  -3.210 -25.477  0.00  0.00    -0.153 OA
BRANCH  20  23
ATOM     23  N   UNL     1      33.759  -2.263 -26.211  0.00  0.00    -0.203 NA
ATOM     24  H   UNL     1      33.715  -1.768 -27.102  0.00  0.00    +0.144 HD
ATOM     25  H   UNL     1      34.705  -2.612 -26.061  0.00  0.00    +0.144 HD
ENDBRANCH  20  23
ENDBRANCH  15  20
ENDBRANCH   4  14
BRANCH   6  26
ATOM     26  O   UNL     1      32.095 -10.901 -22.846  0.00  0.00    -0.453 OA
BRANCH  26  27
ATOM     27  C   UNL     1      33.275 -11.418 -23.431  0.00  0.00    +0.208 C 
BRANCH  27  28
ATOM     28  C   UNL     1      33.220 -12.943 -23.364  0.00  0.00    +0.044 C 
ATOM     29  C   UNL     1      33.440 -13.556 -24.754  0.00  0.00    +0.004 C 
ATOM     30  C   UNL     1      34.251 -13.480 -22.362  0.00  0.00    +0.004 C 
ATOM     31  C   UNL     1      33.442 -15.081 -24.704  0.00  0.00    +0.000 C 
ATOM     32  C   UNL     1      34.251 -15.006 -22.317  0.00  0.00    +0.000 C 
ATOM     33  C   UNL     1      34.462 -15.610 -23.701  0.00  0.00    +0.000 C 
ENDBRANCH  27  28
ENDBRANCH  26  27
ENDBRANCH   6  26
TORSDOF 6
ENDMDL
