MODEL 1
REMARK VINA RESULT:     -12.0      0.000      0.000
REMARK  Name = 5288679
REMARK  6 active torsions:
REMARK  status: ('A' for Active; 'I' for Inactive)
REMARK    1  A    between atoms: N_3  and  C_24
REMARK    2  A    between atoms: C_4  and  C_8
REMARK    3  A    between atoms: C_5  and  N_14
REMARK    4  A    between atoms: N_14  and  C_16
REMARK    5  A    between atoms: C_21  and  O_22
REMARK    6  A    between atoms: C_24  and  C_25
REMARK                            x       y       z     vdW  Elec       q    Type
REMARK                         _______ _______ _______ _____ _____    ______ ____
ROOT
ATOM      1  O   UNL     1      32.756 -23.836 -13.011  0.00  0.00    -0.269 OA
ATOM      2  O   UNL     1      35.872 -23.386 -16.358  0.00  0.00    -0.268 OA
ATOM      3  N   UNL     1      34.624 -23.631 -14.397  0.00  0.00    -0.217 N 
ATOM      4  C   UNL     1      32.574 -23.726 -15.400  0.00  0.00    +0.072 C 
ATOM      5  C   UNL     1      33.487 -23.596 -16.376  0.00  0.00    +0.107 C 
ATOM      6  C   UNL     1      33.294 -23.748 -14.102  0.00  0.00    +0.257 C 
ATOM      7  C   UNL     1      34.826 -23.522 -15.745  0.00  0.00    +0.269 C 
ENDROOT
BRANCH   4   8
ATOM      8  C   UNL     1      31.124 -23.852 -15.551  0.00  0.00    +0.006 C 
ATOM      9  C   UNL     1      30.385 -22.825 -16.150  0.00  0.00    +0.000 C 
ATOM     10  C   UNL     1      30.461 -24.998 -15.097  0.00  0.00    +0.000 C 
ATOM     11  C   UNL     1      29.002 -22.943 -16.294  0.00  0.00    +0.000 C 
ATOM     12  C   UNL     1      29.079 -25.116 -15.241  0.00  0.00    +0.000 C 
ATOM     13  C   UNL     1      28.349 -24.089 -15.840  0.00  0.00    +0.000 C 
ENDBRANCH   4   8
BRANCH   5  14
ATOM     14  N   UNL     1      33.377 -23.546 -17.724  0.00  0.00    -0.309 N 
ATOM     15  H   UNL     1      33.018 -24.356 -18.153  0.00  0.00    +0.152 HD
BRANCH  14  16
ATOM     16  C   UNL     1      33.710 -22.492 -18.595  0.00  0.00    +0.049 C 
ATOM     17  C   UNL     1      32.711 -21.650 -19.090  0.00  0.00    +0.018 C 
ATOM     18  C   UNL     1      35.039 -22.283 -18.968  0.00  0.00    +0.018 C 
ATOM     19  C   UNL     1      33.040 -20.605 -19.953  0.00  0.00    +0.038 C 
ATOM     20  C   UNL     1      35.368 -21.238 -19.832  0.00  0.00    +0.038 C 
ATOM     21  C   UNL     1      34.368 -20.399 -20.324  0.00  0.00    +0.139 C 
BRANCH  21  22
ATOM     22  O   UNL     1      34.690 -19.380 -21.167  0.00  0.00    -0.471 OA
ATOM     23  C   UNL     1      34.536 -19.620 -22.564  0.00  0.00    +0.252 C 
ENDBRANCH  21  22
ENDBRANCH  14  16
ENDBRANCH   5  14
BRANCH   3  24
ATOM     24  C   UNL     1      35.681 -23.600 -13.404  0.00  0.00    +0.128 C 
BRANCH  24  25
ATOM     25  C   UNL     1      36.656 -24.694 -13.679  0.00  0.00    -0.002 C 
ATOM     26  C   UNL     1      36.201 -25.989 -13.930  0.00  0.00    -0.003 C 
ATOM     27  C   UNL     1      38.025 -24.424 -13.685  0.00  0.00    -0.003 C 
ATOM     28  C   UNL     1      37.113 -27.013 -14.186  0.00  0.00    -0.000 C 
ATOM     29  C   UNL     1      38.938 -25.447 -13.941  0.00  0.00    -0.000 C 
ATOM     30  C   UNL     1      38.482 -26.742 -14.193  0.00  0.00    -0.000 C 
ENDBRANCH  24  25
ENDBRANCH   3  24
TORSDOF 6
ENDMDL
MODEL 2
REMARK VINA RESULT:     -10.9      1.379      5.814
REMARK  Name = 5288679
REMARK  6 active torsions:
REMARK  status: ('A' for Active; 'I' for Inactive)
REMARK    1  A    between atoms: N_3  and  C_24
REMARK    2  A    between atoms: C_4  and  C_8
REMARK    3  A    between atoms: C_5  and  N_14
REMARK    4  A    between atoms: N_14  and  C_16
REMARK    5  A    between atoms: C_21  and  O_22
REMARK    6  A    between atoms: C_24  and  C_25
REMARK                            x       y       z     vdW  Elec       q    Type
REMARK                         _______ _______ _______ _____ _____    ______ ____
ROOT
ATOM      1  O   UNL     1      33.477 -23.889 -13.080  0.00  0.00    -0.269 OA
ATOM      2  O   UNL     1      31.553 -22.790 -17.105  0.00  0.00    -0.268 OA
ATOM      3  N   UNL     1      32.166 -23.214 -14.890  0.00  0.00    -0.217 N 
ATOM      4  C   UNL     1      34.298 -23.900 -15.334  0.00  0.00    +0.072 C 
ATOM      5  C   UNL     1      33.734 -23.577 -16.508  0.00  0.00    +0.107 C 
ATOM      6  C   UNL     1      33.292 -23.674 -14.267  0.00  0.00    +0.257 C 
ATOM      7  C   UNL     1      32.343 -23.138 -16.243  0.00  0.00    +0.269 C 
ENDROOT
BRANCH   4   8
ATOM      8  C   UNL     1      35.665 -24.371 -15.105  0.00  0.00    +0.006 C 
ATOM      9  C   UNL     1      35.905 -25.710 -14.778  0.00  0.00    +0.000 C 
ATOM     10  C   UNL     1      36.745 -23.487 -15.209  0.00  0.00    +0.000 C 
ATOM     11  C   UNL     1      37.207 -26.160 -14.559  0.00  0.00    +0.000 C 
ATOM     12  C   UNL     1      38.047 -23.937 -14.989  0.00  0.00    +0.000 C 
ATOM     13  C   UNL     1      38.279 -25.273 -14.665  0.00  0.00    +0.000 C 
ENDBRANCH   4   8
BRANCH   5  14
ATOM     14  N   UNL     1      34.208 -23.575 -17.776  0.00  0.00    -0.309 N 
ATOM     15  H   UNL     1      34.312 -24.461 -18.193  0.00  0.00    +0.152 HD
BRANCH  14  16
ATOM     16  C   UNL     1      34.572 -22.478 -18.577  0.00  0.00    +0.049 C 
ATOM     17  C   UNL     1      33.600 -21.789 -19.307  0.00  0.00    +0.018 C 
ATOM     18  C   UNL     1      35.906 -22.072 -18.647  0.00  0.00    +0.018 C 
ATOM     19  C   UNL     1      33.960 -20.701 -20.101  0.00  0.00    +0.038 C 
ATOM     20  C   UNL     1      36.267 -20.984 -19.442  0.00  0.00    +0.038 C 
ATOM     21  C   UNL     1      35.294 -20.299 -20.169  0.00  0.00    +0.139 C 
BRANCH  21  22
ATOM     22  O   UNL     1      35.646 -19.237 -20.944  0.00  0.00    -0.471 OA
ATOM     23  C   UNL     1      35.126 -19.202 -22.272  0.00  0.00    +0.252 C 
ENDBRANCH  21  22
ENDBRANCH  14  16
ENDBRANCH   5  14
BRANCH   3  24
ATOM     24  C   UNL     1      30.933 -22.876 -14.205  0.00  0.00    +0.128 C 
BRANCH  24  25
ATOM     25  C   UNL     1      29.769 -23.356 -15.003  0.00  0.00    -0.002 C 
ATOM     26  C   UNL     1      28.790 -22.456 -15.422  0.00  0.00    -0.003 C 
ATOM     27  C   UNL     1      29.658 -24.708 -15.332  0.00  0.00    -0.003 C 
ATOM     28  C   UNL     1      27.701 -22.904 -16.169  0.00  0.00    -0.000 C 
ATOM     29  C   UNL     1      28.570 -25.158 -16.079  0.00  0.00    -0.000 C 
ATOM     30  C   UNL     1      27.591 -24.256 -16.499  0.00  0.00    -0.000 C 
ENDBRANCH  24  25
ENDBRANCH   3  24
TORSDOF 6
ENDMDL
MODEL 3
REMARK VINA RESULT:     -10.5      2.087      7.440
REMARK  Name = 5288679
REMARK  6 active torsions:
REMARK  status: ('A' for Active; 'I' for Inactive)
REMARK    1  A    between atoms: N_3  and  C_24
REMARK    2  A    between atoms: C_4  and  C_8
REMARK    3  A    between atoms: C_5  and  N_14
REMARK    4  A    between atoms: N_14  and  C_16
REMARK    5  A    between atoms: C_21  and  O_22
REMARK    6  A    between atoms: C_24  and  C_25
REMARK                            x       y       z     vdW  Elec       q    Type
REMARK                         _______ _______ _______ _____ _____    ______ ____
ROOT
ATOM      1  O   UNL     1      31.702 -23.939 -17.020  0.00  0.00    -0.269 OA
ATOM      2  O   UNL     1      33.120 -24.498 -12.686  0.00  0.00    -0.268 OA
ATOM      3  N   UNL     1      32.053 -24.425 -14.764  0.00  0.00    -0.217 N 
ATOM      4  C   UNL     1      33.748 -23.393 -15.894  0.00  0.00    +0.072 C 
ATOM      5  C   UNL     1      34.160 -23.559 -14.627  0.00  0.00    +0.107 C 
ATOM      6  C   UNL     1      32.376 -23.947 -16.003  0.00  0.00    +0.257 C 
ATOM      7  C   UNL     1      33.069 -24.219 -13.872  0.00  0.00    +0.269 C 
ENDROOT
BRANCH   4   8
ATOM      8  C   UNL     1      34.498 -22.799 -17.002  0.00  0.00    +0.006 C 
ATOM      9  C   UNL     1      35.854 -22.486 -16.849  0.00  0.00    +0.000 C 
ATOM     10  C   UNL     1      33.868 -22.537 -18.224  0.00  0.00    +0.000 C 
ATOM     11  C   UNL     1      36.570 -21.920 -17.904  0.00  0.00    +0.000 C 
ATOM     12  C   UNL     1      34.583 -21.970 -19.278  0.00  0.00    +0.000 C 
ATOM     13  C   UNL     1      35.934 -21.662 -19.119  0.00  0.00    +0.000 C 
ENDBRANCH   4   8
BRANCH   5  14
ATOM     14  N   UNL     1      35.323 -23.259 -14.001  0.00  0.00    -0.309 N 
ATOM     15  H   UNL     1      35.400 -22.336 -13.666  0.00  0.00    +0.152 HD
BRANCH  14  16
ATOM     16  C   UNL     1      36.435 -24.087 -13.767  0.00  0.00    +0.049 C 
ATOM     17  C   UNL     1      36.711 -25.150 -14.630  0.00  0.00    +0.018 C 
ATOM     18  C   UNL     1      37.266 -23.852 -12.670  0.00  0.00    +0.018 C 
ATOM     19  C   UNL     1      37.814 -25.972 -14.399  0.00  0.00    +0.038 C 
ATOM     20  C   UNL     1      38.369 -24.675 -12.438  0.00  0.00    +0.038 C 
ATOM     21  C   UNL     1      38.643 -25.735 -13.302  0.00  0.00    +0.139 C 
BRANCH  21  22
ATOM     22  O   UNL     1      39.718 -26.536 -13.075  0.00  0.00    -0.471 OA
ATOM     23  C   UNL     1      40.744 -26.543 -14.066  0.00  0.00    +0.252 C 
ENDBRANCH  21  22
ENDBRANCH  14  16
ENDBRANCH   5  14
BRANCH   3  24
ATOM     24  C   UNL     1      30.784 -25.045 -14.432  0.00  0.00    +0.128 C 
BRANCH  24  25
ATOM     25  C   UNL     1      29.670 -24.255 -15.029  0.00  0.00    -0.002 C 
ATOM     26  C   UNL     1      28.867 -24.820 -16.020  0.00  0.00    -0.003 C 
ATOM     27  C   UNL     1      29.430 -22.949 -14.599  0.00  0.00    -0.003 C 
ATOM     28  C   UNL     1      27.824 -24.081 -16.580  0.00  0.00    -0.000 C 
ATOM     29  C   UNL     1      28.388 -22.210 -15.158  0.00  0.00    -0.000 C 
ATOM     30  C   UNL     1      27.584 -22.776 -16.148  0.00  0.00    -0.000 C 
ENDBRANCH  24  25
ENDBRANCH   3  24
TORSDOF 6
ENDMDL
MODEL 4
REMARK VINA RESULT:      -9.9      1.913      6.889
REMARK  Name = 5288679
REMARK  6 active torsions:
REMARK  status: ('A' for Active; 'I' for Inactive)
REMARK    1  A    between atoms: N_3  and  C_24
REMARK    2  A    between atoms: C_4  and  C_8
REMARK    3  A    between atoms: C_5  and  N_14
REMARK    4  A    between atoms: N_14  and  C_16
REMARK    5  A    between atoms: C_21  and  O_22
REMARK    6  A    between atoms: C_24  and  C_25
REMARK                            x       y       z     vdW  Elec       q    Type
REMARK                         _______ _______ _______ _____ _____    ______ ____
ROOT
ATOM      1  O   UNL     1      32.631 -22.838 -18.941  0.00  0.00    -0.269 OA
ATOM      2  O   UNL     1      37.038 -22.408 -17.711  0.00  0.00    -0.268 OA
ATOM      3  N   UNL     1      34.937 -22.540 -18.728  0.00  0.00    -0.217 N 
ATOM      4  C   UNL     1      33.742 -22.900 -16.815  0.00  0.00    +0.072 C 
ATOM      5  C   UNL     1      35.030 -22.772 -16.459  0.00  0.00    +0.107 C 
ATOM      6  C   UNL     1      33.660 -22.755 -18.290  0.00  0.00    +0.257 C 
ATOM      7  C   UNL     1      35.826 -22.548 -17.689  0.00  0.00    +0.269 C 
ENDROOT
BRANCH   4   8
ATOM      8  C   UNL     1      32.594 -23.119 -15.935  0.00  0.00    +0.006 C 
ATOM      9  C   UNL     1      31.292 -23.083 -16.448  0.00  0.00    +0.000 C 
ATOM     10  C   UNL     1      32.785 -23.364 -14.570  0.00  0.00    +0.000 C 
ATOM     11  C   UNL     1      30.197 -23.291 -15.610  0.00  0.00    +0.000 C 
ATOM     12  C   UNL     1      31.690 -23.571 -13.731  0.00  0.00    +0.000 C 
ATOM     13  C   UNL     1      30.396 -23.535 -14.251  0.00  0.00    +0.000 C 
ENDBRANCH   4   8
BRANCH   5  14
ATOM     14  N   UNL     1      35.648 -22.797 -15.255  0.00  0.00    -0.309 N 
ATOM     15  H   UNL     1      35.435 -22.050 -14.651  0.00  0.00    +0.152 HD
BRANCH  14  16
ATOM     16  C   UNL     1      36.555 -23.747 -14.753  0.00  0.00    +0.049 C 
ATOM     17  C   UNL     1      37.921 -23.623 -15.020  0.00  0.00    +0.018 C 
ATOM     18  C   UNL     1      36.095 -24.819 -13.985  0.00  0.00    +0.018 C 
ATOM     19  C   UNL     1      38.821 -24.565 -14.522  0.00  0.00    +0.038 C 
ATOM     20  C   UNL     1      36.996 -25.761 -13.486  0.00  0.00    +0.038 C 
ATOM     21  C   UNL     1      38.358 -25.634 -13.756  0.00  0.00    +0.139 C 
BRANCH  21  22
ATOM     22  O   UNL     1      39.236 -26.554 -13.270  0.00  0.00    -0.471 OA
ATOM     23  C   UNL     1      40.520 -26.616 -13.887  0.00  0.00    +0.252 C 
ENDBRANCH  21  22
ENDBRANCH  14  16
ENDBRANCH   5  14
BRANCH   3  24
ATOM     24  C   UNL     1      35.304 -22.354 -20.119  0.00  0.00    +0.128 C 
BRANCH  24  25
ATOM     25  C   UNL     1      35.439 -20.899 -20.410  0.00  0.00    -0.002 C 
ATOM     26  C   UNL     1      36.693 -20.290 -20.360  0.00  0.00    -0.003 C 
ATOM     27  C   UNL     1      34.310 -20.144 -20.734  0.00  0.00    -0.003 C 
ATOM     28  C   UNL     1      36.820 -18.928 -20.632  0.00  0.00    -0.000 C 
ATOM     29  C   UNL     1      34.437 -18.781 -21.006  0.00  0.00    -0.000 C 
ATOM     30  C   UNL     1      35.691 -18.173 -20.956  0.00  0.00    -0.000 C 
ENDBRANCH  24  25
ENDBRANCH   3  24
TORSDOF 6
ENDMDL
MODEL 5
REMARK VINA RESULT:      -9.9     11.829     16.373
REMARK  Name = 5288679
REMARK  6 active torsions:
REMARK  status: ('A' for Active; 'I' for Inactive)
REMARK    1  A    between atoms: N_3  and  C_24
REMARK    2  A    between atoms: C_4  and  C_8
REMARK    3  A    between atoms: C_5  and  N_14
REMARK    4  A    between atoms: N_14  and  C_16
REMARK    5  A    between atoms: C_21  and  O_22
REMARK    6  A    between atoms: C_24  and  C_25
REMARK                            x       y       z     vdW  Elec       q    Type
REMARK                         _______ _______ _______ _____ _____    ______ ____
ROOT
ATOM      1  O   UNL     1      32.972 -11.181 -24.106  0.00  0.00    -0.269 OA
ATOM      2  O   UNL     1      30.838 -10.660 -20.070  0.00  0.00    -0.268 OA
ATOM      3  N   UNL     1      31.812 -11.333 -22.086  0.00  0.00    -0.217 N 
ATOM      4  C   UNL     1      32.719  -9.308 -22.628  0.00  0.00    +0.072 C 
ATOM      5  C   UNL     1      32.096  -9.160 -21.449  0.00  0.00    +0.107 C 
ATOM      6  C   UNL     1      32.543 -10.716 -23.063  0.00  0.00    +0.257 C 
ATOM      7  C   UNL     1      31.490 -10.462 -21.082  0.00  0.00    +0.269 C 
ENDROOT
BRANCH   4   8
ATOM      8  C   UNL     1      33.468  -8.294 -23.371  0.00  0.00    +0.006 C 
ATOM      9  C   UNL     1      32.867  -7.610 -24.435  0.00  0.00    +0.000 C 
ATOM     10  C   UNL     1      34.792  -7.998 -23.028  0.00  0.00    +0.000 C 
ATOM     11  C   UNL     1      33.579  -6.643 -25.144  0.00  0.00    +0.000 C 
ATOM     12  C   UNL     1      35.505  -7.032 -23.738  0.00  0.00    +0.000 C 
ATOM     13  C   UNL     1      34.899  -6.354 -24.795  0.00  0.00    +0.000 C 
ENDBRANCH   4   8
BRANCH   5  14
ATOM     14  N   UNL     1      31.967  -8.102 -20.614  0.00  0.00    -0.309 N 
ATOM     15  H   UNL     1      32.035  -8.306 -19.653  0.00  0.00    +0.152 HD
BRANCH  14  16
ATOM     16  C   UNL     1      31.746  -6.750 -20.935  0.00  0.00    +0.049 C 
ATOM     17  C   UNL     1      30.465  -6.311 -21.279  0.00  0.00    +0.018 C 
ATOM     18  C   UNL     1      32.807  -5.842 -20.913  0.00  0.00    +0.018 C 
ATOM     19  C   UNL     1      30.246  -4.971 -21.597  0.00  0.00    +0.038 C 
ATOM     20  C   UNL     1      32.587  -4.501 -21.233  0.00  0.00    +0.038 C 
ATOM     21  C   UNL     1      31.307  -4.066 -21.575  0.00  0.00    +0.139 C 
BRANCH  21  22
ATOM     22  O   UNL     1      31.094  -2.759 -21.886  0.00  0.00    -0.471 OA
ATOM     23  C   UNL     1      31.445  -2.340 -23.204  0.00  0.00    +0.252 C 
ENDBRANCH  21  22
ENDBRANCH  14  16
ENDBRANCH   5  14
BRANCH   3  24
ATOM     24  C   UNL     1      31.408 -12.726 -22.124  0.00  0.00    +0.128 C 
BRANCH  24  25
ATOM     25  C   UNL     1      32.585 -13.596 -21.846  0.00  0.00    -0.002 C 
ATOM     26  C   UNL     1      32.964 -13.859 -20.529  0.00  0.00    -0.003 C 
ATOM     27  C   UNL     1      33.311 -14.148 -22.902  0.00  0.00    -0.003 C 
ATOM     28  C   UNL     1      34.066 -14.673 -20.268  0.00  0.00    -0.000 C 
ATOM     29  C   UNL     1      34.414 -14.962 -22.642  0.00  0.00    -0.000 C 
ATOM     30  C   UNL     1      34.791 -15.226 -21.325  0.00  0.00    -0.000 C 
ENDBRANCH  24  25
ENDBRANCH   3  24
TORSDOF 6
ENDMDL
MODEL 6
REMARK VINA RESULT:      -9.4     11.505     15.956
REMARK  Name = 5288679
REMARK  6 active torsions:
REMARK  status: ('A' for Active; 'I' for Inactive)
REMARK    1  A    between atoms: N_3  and  C_24
REMARK    2  A    between atoms: C_4  and  C_8
REMARK    3  A    between atoms: C_5  and  N_14
REMARK    4  A    between atoms: N_14  and  C_16
REMARK    5  A    between atoms: C_21  and  O_22
REMARK    6  A    between atoms: C_24  and  C_25
REMARK                            x       y       z     vdW  Elec       q    Type
REMARK                         _______ _______ _______ _____ _____    ______ ____
ROOT
ATOM      1  O   UNL     1      30.878 -10.757 -21.972  0.00  0.00    -0.269 OA
ATOM      2  O   UNL     1      34.807 -11.656 -24.178  0.00  0.00    -0.268 OA
ATOM      3  N   UNL     1      32.715 -11.604 -23.138  0.00  0.00    -0.217 N 
ATOM      4  C   UNL     1      32.741  -9.384 -22.605  0.00  0.00    +0.072 C 
ATOM      5  C   UNL     1      33.887  -9.650 -23.251  0.00  0.00    +0.107 C 
ATOM      6  C   UNL     1      31.964 -10.645 -22.518  0.00  0.00    +0.257 C 
ATOM      7  C   UNL     1      33.896 -11.090 -23.597  0.00  0.00    +0.269 C 
ENDROOT
BRANCH   4   8
ATOM      8  C   UNL     1      32.292  -8.091 -22.087  0.00  0.00    +0.006 C 
ATOM      9  C   UNL     1      31.277  -7.382 -22.740  0.00  0.00    +0.000 C 
ATOM     10  C   UNL     1      32.874  -7.548 -20.936  0.00  0.00    +0.000 C 
ATOM     11  C   UNL     1      30.848  -6.150 -22.248  0.00  0.00    +0.000 C 
ATOM     12  C   UNL     1      32.446  -6.315 -20.444  0.00  0.00    +0.000 C 
ATOM     13  C   UNL     1      31.433  -5.616 -21.099  0.00  0.00    +0.000 C 
ENDBRANCH   4   8
BRANCH   5  14
ATOM     14  N   UNL     1      34.930  -8.866 -23.616  0.00  0.00    -0.309 N 
ATOM     15  H   UNL     1      35.807  -9.128 -23.253  0.00  0.00    +0.152 HD
BRANCH  14  16
ATOM     16  C   UNL     1      34.928  -7.728 -24.441  0.00  0.00    +0.049 C 
ATOM     17  C   UNL     1      34.651  -6.470 -23.901  0.00  0.00    +0.018 C 
ATOM     18  C   UNL     1      35.202  -7.850 -25.805  0.00  0.00    +0.018 C 
ATOM     19  C   UNL     1      34.648  -5.341 -24.719  0.00  0.00    +0.038 C 
ATOM     20  C   UNL     1      35.199  -6.720 -26.624  0.00  0.00    +0.038 C 
ATOM     21  C   UNL     1      34.922  -5.466 -26.081  0.00  0.00    +0.139 C 
BRANCH  21  22
ATOM     22  O   UNL     1      34.920  -4.364 -26.880  0.00  0.00    -0.471 OA
ATOM     23  C   UNL     1      34.331  -3.178 -26.349  0.00  0.00    +0.252 C 
ENDBRANCH  21  22
ENDBRANCH  14  16
ENDBRANCH   5  14
BRANCH   3  24
ATOM     24  C   UNL     1      32.321 -12.995 -23.267  0.00  0.00    +0.128 C 
BRANCH  24  25
ATOM     25  C   UNL     1      32.990 -13.804 -22.210  0.00  0.00    -0.002 C 
ATOM     26  C   UNL     1      34.107 -14.578 -22.525  0.00  0.00    -0.003 C 
ATOM     27  C   UNL     1      32.501 -13.789 -20.903  0.00  0.00    -0.003 C 
ATOM     28  C   UNL     1      34.735 -15.336 -21.537  0.00  0.00    -0.000 C 
ATOM     29  C   UNL     1      33.128 -14.547 -19.913  0.00  0.00    -0.000 C 
ATOM     30  C   UNL     1      34.245 -15.320 -20.230  0.00  0.00    -0.000 C 
ENDBRANCH  24  25
ENDBRANCH   3  24
TORSDOF 6
ENDMDL
