MODEL 1
REMARK VINA RESULT:     -11.6      0.000      0.000
REMARK  Name = 52913524
REMARK  9 active torsions:
REMARK  status: ('A' for Active; 'I' for Inactive)
REMARK    1  A    between atoms: C_1  and  C_10
REMARK    2  A    between atoms: C_4  and  C_24
REMARK    3  A    between atoms: C_5  and  C_22
REMARK    4  A    between atoms: C_8  and  O_13
REMARK    5  A    between atoms: C_9  and  O_15
REMARK    6  A    between atoms: C_11  and  O_17
REMARK    7  A    between atoms: C_12  and  C_19
REMARK    8  A    between atoms: C_19  and  O_20
REMARK    9  A    between atoms: C_24  and  C_27
REMARK                            x       y       z     vdW  Elec       q    Type
REMARK                         _______ _______ _______ _____ _____    ______ ____
ROOT
ATOM      1  C   UNL     1      34.131 -23.853 -14.498  0.00  0.00    +0.007 C 
ATOM      2  C   UNL     1      34.193 -23.866 -15.891  0.00  0.00    -0.006 C 
ATOM      3  C   UNL     1      32.950 -23.482 -13.855  0.00  0.00    -0.002 C 
ATOM      4  C   UNL     1      33.074 -23.508 -16.642  0.00  0.00    -0.022 C 
ATOM      5  C   UNL     1      31.892 -23.136 -15.999  0.00  0.00    -0.026 C 
ATOM      6  C   UNL     1      31.830 -23.124 -14.606  0.00  0.00    -0.005 C 
ENDROOT
BRANCH   1  10
ATOM      7  O   UNL     1      35.997 -25.324 -14.359  0.00  0.00    -0.347 OA
ATOM      8  C   UNL     1      34.972 -24.645 -12.246  0.00  0.00    +0.171 C 
ATOM      9  C   UNL     1      36.190 -25.187 -11.493  0.00  0.00    +0.169 C 
ATOM     10  C   UNL     1      35.348 -24.244 -13.681  0.00  0.00    +0.167 C 
ATOM     11  C   UNL     1      36.932 -26.238 -12.317  0.00  0.00    +0.169 C 
ATOM     12  C   UNL     1      37.216 -25.720 -13.729  0.00  0.00    +0.174 C 
BRANCH   8  13
ATOM     13  O   UNL     1      34.478 -23.493 -11.564  0.00  0.00    -0.379 OA
ATOM     14  H   UNL     1      33.957 -22.951 -12.177  0.00  0.00    +0.211 HD
ENDBRANCH   8  13
BRANCH   9  15
ATOM     15  O   UNL     1      35.760 -25.803 -10.277  0.00  0.00    -0.379 OA
ATOM     16  H   UNL     1      34.797 -25.914 -10.294  0.00  0.00    +0.211 HD
ENDBRANCH   9  15
BRANCH  11  17
ATOM     17  O   UNL     1      38.165 -26.555 -11.677  0.00  0.00    -0.379 OA
ATOM     18  H   UNL     1      38.212 -27.511 -11.522  0.00  0.00    +0.211 HD
ENDBRANCH  11  17
BRANCH  12  19
ATOM     19  C   UNL     1      37.857 -26.792 -14.606  0.00  0.00    +0.169 C 
BRANCH  19  20
ATOM     20  O   UNL     1      39.223 -26.903 -14.255  0.00  0.00    -0.379 OA
ATOM     21  H   UNL     1      39.772 -26.571 -14.983  0.00  0.00    +0.211 HD
ENDBRANCH  19  20
ENDBRANCH  12  19
ENDBRANCH   1  10
BRANCH   5  22
ATOM     22  C   UNL     1      30.681 -22.748 -16.782  0.00  0.00    +0.026 C 
ATOM     23  C   UNL     1      29.386 -23.097 -16.057  0.00  0.00    +0.005 C 
ENDBRANCH   5  22
BRANCH   4  24
ATOM     24  C   UNL     1      33.164 -23.529 -18.133  0.00  0.00    +0.052 C 
BRANCH  24  27
ATOM     25  O   UNL     1      34.142 -19.885 -21.224  0.00  0.00    -0.468 OA
ATOM     26  O   UNL     1      36.831 -19.723 -20.195  0.00  0.00    -0.468 OA
ATOM     27  C   UNL     1      34.133 -22.513 -18.702  0.00  0.00    -0.015 C 
ATOM     28  C   UNL     1      33.712 -21.636 -19.702  0.00  0.00    +0.036 C 
ATOM     29  C   UNL     1      35.446 -22.461 -18.232  0.00  0.00    -0.001 C 
ATOM     30  C   UNL     1      34.608 -20.706 -20.230  0.00  0.00    +0.172 C 
ATOM     31  C   UNL     1      35.914 -20.635 -19.740  0.00  0.00    +0.172 C 
ATOM     32  C   UNL     1      36.338 -21.523 -18.751  0.00  0.00    +0.040 C 
ATOM     33  C   UNL     1      35.208 -19.231 -21.919  0.00  0.00    +0.253 C 
ATOM     34  C   UNL     1      36.209 -18.666 -20.931  0.00  0.00    +0.253 C 
ENDBRANCH  24  27
ENDBRANCH   4  24
TORSDOF 9
ENDMDL
MODEL 2
REMARK VINA RESULT:     -11.4      1.196      2.292
REMARK  Name = 52913524
REMARK  9 active torsions:
REMARK  status: ('A' for Active; 'I' for Inactive)
REMARK    1  A    between atoms: C_1  and  C_10
REMARK    2  A    between atoms: C_4  and  C_24
REMARK    3  A    between atoms: C_5  and  C_22
REMARK    4  A    between atoms: C_8  and  O_13
REMARK    5  A    between atoms: C_9  and  O_15
REMARK    6  A    between atoms: C_11  and  O_17
REMARK    7  A    between atoms: C_12  and  C_19
REMARK    8  A    between atoms: C_19  and  O_20
REMARK    9  A    between atoms: C_24  and  C_27
REMARK                            x       y       z     vdW  Elec       q    Type
REMARK                         _______ _______ _______ _____ _____    ______ ____
ROOT
ATOM      1  C   UNL     1      34.123 -24.237 -14.378  0.00  0.00    +0.007 C 
ATOM      2  C   UNL     1      34.023 -24.112 -15.764  0.00  0.00    -0.006 C 
ATOM      3  C   UNL     1      33.053 -23.866 -13.565  0.00  0.00    -0.002 C 
ATOM      4  C   UNL     1      32.852 -23.614 -16.336  0.00  0.00    -0.022 C 
ATOM      5  C   UNL     1      31.781 -23.242 -15.522  0.00  0.00    -0.026 C 
ATOM      6  C   UNL     1      31.882 -23.368 -14.137  0.00  0.00    -0.005 C 
ENDROOT
BRANCH   1  10
ATOM      7  O   UNL     1      36.083 -23.682 -13.148  0.00  0.00    -0.347 OA
ATOM      8  C   UNL     1      36.289 -25.478 -14.793  0.00  0.00    +0.171 C 
ATOM      9  C   UNL     1      37.635 -25.874 -14.179  0.00  0.00    +0.169 C 
ATOM     10  C   UNL     1      35.395 -24.780 -13.757  0.00  0.00    +0.167 C 
ATOM     11  C   UNL     1      38.264 -24.707 -13.419  0.00  0.00    +0.169 C 
ATOM     12  C   UNL     1      37.259 -24.087 -12.446  0.00  0.00    +0.174 C 
BRANCH   8  13
ATOM     13  O   UNL     1      35.624 -26.654 -15.252  0.00  0.00    -0.379 OA
ATOM     14  H   UNL     1      36.236 -27.406 -15.220  0.00  0.00    +0.211 HD
ENDBRANCH   8  13
BRANCH   9  15
ATOM     15  O   UNL     1      38.535 -26.261 -15.218  0.00  0.00    -0.379 OA
ATOM     16  H   UNL     1      38.122 -26.100 -16.080  0.00  0.00    +0.211 HD
ENDBRANCH   9  15
BRANCH  11  17
ATOM     17  O   UNL     1      39.396 -25.175 -12.690  0.00  0.00    -0.379 OA
ATOM     18  H   UNL     1      39.166 -25.249 -11.750  0.00  0.00    +0.211 HD
ENDBRANCH  11  17
BRANCH  12  19
ATOM     19  C   UNL     1      37.829 -22.851 -11.756  0.00  0.00    +0.169 C 
BRANCH  19  20
ATOM     20  O   UNL     1      37.236 -22.736 -10.476  0.00  0.00    -0.379 OA
ATOM     21  H   UNL     1      37.004 -23.619 -10.147  0.00  0.00    +0.211 HD
ENDBRANCH  19  20
ENDBRANCH  12  19
ENDBRANCH   1  10
BRANCH   5  22
ATOM     22  C   UNL     1      30.519 -22.706 -16.111  0.00  0.00    +0.026 C 
ATOM     23  C   UNL     1      29.285 -23.133 -15.323  0.00  0.00    +0.005 C 
ENDBRANCH   5  22
BRANCH   4  24
ATOM     24  C   UNL     1      32.768 -23.489 -17.822  0.00  0.00    +0.052 C 
BRANCH  24  27
ATOM     25  O   UNL     1      34.063 -20.030 -21.007  0.00  0.00    -0.468 OA
ATOM     26  O   UNL     1      36.762 -20.097 -19.995  0.00  0.00    -0.468 OA
ATOM     27  C   UNL     1      33.824 -22.583 -18.421  0.00  0.00    -0.015 C 
ATOM     28  C   UNL     1      33.481 -21.695 -19.440  0.00  0.00    +0.036 C 
ATOM     29  C   UNL     1      35.139 -22.643 -17.958  0.00  0.00    -0.001 C 
ATOM     30  C   UNL     1      34.457 -20.867 -19.995  0.00  0.00    +0.172 C 
ATOM     31  C   UNL     1      35.767 -20.907 -19.513  0.00  0.00    +0.172 C 
ATOM     32  C   UNL     1      36.112 -21.807 -18.504  0.00  0.00    +0.040 C 
ATOM     33  C   UNL     1      35.181 -19.496 -21.723  0.00  0.00    +0.253 C 
ATOM     34  C   UNL     1      36.238 -19.005 -20.754  0.00  0.00    +0.253 C 
ENDBRANCH  24  27
ENDBRANCH   4  24
TORSDOF 9
ENDMDL
MODEL 3
REMARK VINA RESULT:     -10.6     11.110     17.270
REMARK  Name = 52913524
REMARK  9 active torsions:
REMARK  status: ('A' for Active; 'I' for Inactive)
REMARK    1  A    between atoms: C_1  and  C_10
REMARK    2  A    between atoms: C_4  and  C_24
REMARK    3  A    between atoms: C_5  and  C_22
REMARK    4  A    between atoms: C_8  and  O_13
REMARK    5  A    between atoms: C_9  and  O_15
REMARK    6  A    between atoms: C_11  and  O_17
REMARK    7  A    between atoms: C_12  and  C_19
REMARK    8  A    between atoms: C_19  and  O_20
REMARK    9  A    between atoms: C_24  and  C_27
REMARK                            x       y       z     vdW  Elec       q    Type
REMARK                         _______ _______ _______ _____ _____    ______ ____
ROOT
ATOM      1  C   UNL     1      32.776  -7.366 -21.736  0.00  0.00    +0.007 C 
ATOM      2  C   UNL     1      32.264  -8.541 -22.287  0.00  0.00    -0.006 C 
ATOM      3  C   UNL     1      32.729  -7.164 -20.357  0.00  0.00    -0.002 C 
ATOM      4  C   UNL     1      31.704  -9.513 -21.457  0.00  0.00    -0.022 C 
ATOM      5  C   UNL     1      31.658  -9.310 -20.077  0.00  0.00    -0.026 C 
ATOM      6  C   UNL     1      32.170  -8.136 -19.527  0.00  0.00    -0.005 C 
ENDROOT
BRANCH   1  10
ATOM      7  O   UNL     1      32.311  -5.618 -23.283  0.00  0.00    -0.347 OA
ATOM      8  C   UNL     1      34.343  -6.919 -23.671  0.00  0.00    +0.171 C 
ATOM      9  C   UNL     1      34.819  -5.859 -24.669  0.00  0.00    +0.169 C 
ATOM     10  C   UNL     1      33.384  -6.309 -22.637  0.00  0.00    +0.167 C 
ATOM     11  C   UNL     1      33.647  -5.053 -25.226  0.00  0.00    +0.169 C 
ATOM     12  C   UNL     1      32.760  -4.531 -24.094  0.00  0.00    +0.174 C 
BRANCH   8  13
ATOM     13  O   UNL     1      35.475  -7.454 -22.987  0.00  0.00    -0.379 OA
ATOM     14  H   UNL     1      36.270  -6.960 -23.239  0.00  0.00    +0.211 HD
ENDBRANCH   8  13
BRANCH   9  15
ATOM     15  O   UNL     1      35.474  -6.500 -25.765  0.00  0.00    -0.379 OA
ATOM     16  H   UNL     1      36.423  -6.575 -25.576  0.00  0.00    +0.211 HD
ENDBRANCH   9  15
BRANCH  11  17
ATOM     17  O   UNL     1      34.148  -3.949 -25.975  0.00  0.00    -0.379 OA
ATOM     18  H   UNL     1      35.027  -4.169 -26.325  0.00  0.00    +0.211 HD
ENDBRANCH  11  17
BRANCH  12  19
ATOM     19  C   UNL     1      31.522  -3.817 -24.628  0.00  0.00    +0.169 C 
BRANCH  19  20
ATOM     20  O   UNL     1      30.614  -3.629 -23.559  0.00  0.00    -0.379 OA
ATOM     21  H   UNL     1      30.290  -2.714 -23.567  0.00  0.00    +0.211 HD
ENDBRANCH  19  20
ENDBRANCH  12  19
ENDBRANCH   1  10
BRANCH   5  22
ATOM     22  C   UNL     1      31.063 -10.337 -19.170  0.00  0.00    +0.026 C 
ATOM     23  C   UNL     1      31.796 -10.423 -17.835  0.00  0.00    +0.005 C 
ENDBRANCH   5  22
BRANCH   4  24
ATOM     24  C   UNL     1      31.162 -10.763 -22.069  0.00  0.00    +0.052 C 
BRANCH  24  27
ATOM     25  O   UNL     1      33.415 -14.790 -20.491  0.00  0.00    -0.468 OA
ATOM     26  O   UNL     1      35.033 -14.830 -22.876  0.00  0.00    -0.468 OA
ATOM     27  C   UNL     1      32.198 -11.850 -22.263  0.00  0.00    -0.015 C 
ATOM     28  C   UNL     1      32.345 -12.850 -21.302  0.00  0.00    +0.036 C 
ATOM     29  C   UNL     1      33.008 -11.848 -23.400  0.00  0.00    -0.001 C 
ATOM     30  C   UNL     1      33.304 -13.847 -21.479  0.00  0.00    +0.172 C 
ATOM     31  C   UNL     1      34.096 -13.860 -22.629  0.00  0.00    +0.172 C 
ATOM     32  C   UNL     1      33.958 -12.851 -23.583  0.00  0.00    +0.040 C 
ATOM     33  C   UNL     1      34.630 -15.537 -20.599  0.00  0.00    +0.253 C 
ATOM     34  C   UNL     1      34.852 -15.971 -22.034  0.00  0.00    +0.253 C 
ENDBRANCH  24  27
ENDBRANCH   4  24
TORSDOF 9
ENDMDL
MODEL 4
REMARK VINA RESULT:     -10.6      3.309      7.545
REMARK  Name = 52913524
REMARK  9 active torsions:
REMARK  status: ('A' for Active; 'I' for Inactive)
REMARK    1  A    between atoms: C_1  and  C_10
REMARK    2  A    between atoms: C_4  and  C_24
REMARK    3  A    between atoms: C_5  and  C_22
REMARK    4  A    between atoms: C_8  and  O_13
REMARK    5  A    between atoms: C_9  and  O_15
REMARK    6  A    between atoms: C_11  and  O_17
REMARK    7  A    between atoms: C_12  and  C_19
REMARK    8  A    between atoms: C_19  and  O_20
REMARK    9  A    between atoms: C_24  and  C_27
REMARK                            x       y       z     vdW  Elec       q    Type
REMARK                         _______ _______ _______ _____ _____    ______ ____
ROOT
ATOM      1  C   UNL     1      34.730 -23.179 -16.345  0.00  0.00    +0.007 C 
ATOM      2  C   UNL     1      33.560 -23.300 -15.595  0.00  0.00    -0.006 C 
ATOM      3  C   UNL     1      35.968 -23.422 -15.750  0.00  0.00    -0.002 C 
ATOM      4  C   UNL     1      33.628 -23.664 -14.250  0.00  0.00    -0.022 C 
ATOM      5  C   UNL     1      34.867 -23.906 -13.655  0.00  0.00    -0.026 C 
ATOM      6  C   UNL     1      36.036 -23.785 -14.404  0.00  0.00    -0.005 C 
ENDROOT
BRANCH   1  10
ATOM      7  O   UNL     1      35.773 -21.935 -18.085  0.00  0.00    -0.347 OA
ATOM      8  C   UNL     1      33.334 -22.081 -18.146  0.00  0.00    +0.171 C 
ATOM      9  C   UNL     1      33.348 -21.551 -19.583  0.00  0.00    +0.169 C 
ATOM     10  C   UNL     1      34.656 -22.785 -17.807  0.00  0.00    +0.167 C 
ATOM     11  C   UNL     1      34.627 -20.768 -19.875  0.00  0.00    +0.169 C 
ATOM     12  C   UNL     1      35.862 -21.571 -19.464  0.00  0.00    +0.174 C 
BRANCH   8  13
ATOM     13  O   UNL     1      32.267 -23.017 -18.007  0.00  0.00    -0.379 OA
ATOM     14  H   UNL     1      32.517 -23.857 -18.422  0.00  0.00    +0.211 HD
ENDBRANCH   8  13
BRANCH   9  15
ATOM     15  O   UNL     1      32.239 -20.672 -19.776  0.00  0.00    -0.379 OA
ATOM     16  H   UNL     1      32.531 -19.883 -20.259  0.00  0.00    +0.211 HD
ENDBRANCH   9  15
BRANCH  11  17
ATOM     17  O   UNL     1      34.697 -20.481 -21.269  0.00  0.00    -0.379 OA
ATOM     18  H   UNL     1      34.756 -19.521 -21.399  0.00  0.00    +0.211 HD
ENDBRANCH  11  17
BRANCH  12  19
ATOM     19  C   UNL     1      37.146 -20.766 -19.641  0.00  0.00    +0.169 C 
BRANCH  19  20
ATOM     20  O   UNL     1      36.800 -19.424 -19.926  0.00  0.00    -0.379 OA
ATOM     21  H   UNL     1      35.914 -19.395 -20.320  0.00  0.00    +0.211 HD
ENDBRANCH  19  20
ENDBRANCH  12  19
ENDBRANCH   1  10
BRANCH   5  22
ATOM     22  C   UNL     1      34.964 -24.295 -12.216  0.00  0.00    +0.026 C 
ATOM     23  C   UNL     1      36.188 -23.690 -11.535  0.00  0.00    +0.005 C 
ENDBRANCH   5  22
BRANCH   4  24
ATOM     24  C   UNL     1      32.362 -23.786 -13.468  0.00  0.00    +0.052 C 
BRANCH  24  27
ATOM     25  O   UNL     1      28.442 -22.064 -15.803  0.00  0.00    -0.468 OA
ATOM     26  O   UNL     1      27.797 -24.726 -16.702  0.00  0.00    -0.468 OA
ATOM     27  C   UNL     1      31.133 -24.020 -14.322  0.00  0.00    -0.015 C 
ATOM     28  C   UNL     1      30.334 -22.942 -14.700  0.00  0.00    +0.036 C 
ATOM     29  C   UNL     1      30.800 -25.314 -14.725  0.00  0.00    -0.001 C 
ATOM     30  C   UNL     1      29.199 -23.160 -15.481  0.00  0.00    +0.172 C 
ATOM     31  C   UNL     1      28.880 -24.451 -15.907  0.00  0.00    +0.172 C 
ATOM     32  C   UNL     1      29.672 -25.531 -15.517  0.00  0.00    +0.040 C 
ATOM     33  C   UNL     1      27.150 -22.433 -16.293  0.00  0.00    +0.253 C 
ATOM     34  C   UNL     1      27.274 -23.545 -17.315  0.00  0.00    +0.253 C 
ENDBRANCH  24  27
ENDBRANCH   4  24
TORSDOF 9
ENDMDL
MODEL 5
REMARK VINA RESULT:     -10.5      3.561      7.962
REMARK  Name = 52913524
REMARK  9 active torsions:
REMARK  status: ('A' for Active; 'I' for Inactive)
REMARK    1  A    between atoms: C_1  and  C_10
REMARK    2  A    between atoms: C_4  and  C_24
REMARK    3  A    between atoms: C_5  and  C_22
REMARK    4  A    between atoms: C_8  and  O_13
REMARK    5  A    between atoms: C_9  and  O_15
REMARK    6  A    between atoms: C_11  and  O_17
REMARK    7  A    between atoms: C_12  and  C_19
REMARK    8  A    between atoms: C_19  and  O_20
REMARK    9  A    between atoms: C_24  and  C_27
REMARK                            x       y       z     vdW  Elec       q    Type
REMARK                         _______ _______ _______ _____ _____    ______ ____
ROOT
ATOM      1  C   UNL     1      35.580 -22.347 -17.612  0.00  0.00    +0.007 C 
ATOM      2  C   UNL     1      34.670 -23.148 -16.921  0.00  0.00    -0.006 C 
ATOM      3  C   UNL     1      36.790 -21.993 -17.017  0.00  0.00    -0.002 C 
ATOM      4  C   UNL     1      34.972 -23.594 -15.634  0.00  0.00    -0.022 C 
ATOM      5  C   UNL     1      36.183 -23.240 -15.039  0.00  0.00    -0.026 C 
ATOM      6  C   UNL     1      37.092 -22.439 -15.730  0.00  0.00    -0.005 C 
ENDROOT
BRANCH   1  10
ATOM      7  O   UNL     1      36.062 -20.712 -19.273  0.00  0.00    -0.347 OA
ATOM      8  C   UNL     1      33.761 -21.529 -19.169  0.00  0.00    +0.171 C 
ATOM      9  C   UNL     1      33.484 -20.892 -20.534  0.00  0.00    +0.169 C 
ATOM     10  C   UNL     1      35.252 -21.862 -19.011  0.00  0.00    +0.167 C 
ATOM     11  C   UNL     1      34.466 -19.760 -20.830  0.00  0.00    +0.169 C 
ATOM     12  C   UNL     1      35.908 -20.218 -20.604  0.00  0.00    +0.174 C 
BRANCH   8  13
ATOM     13  O   UNL     1      33.008 -22.736 -19.058  0.00  0.00    -0.379 OA
ATOM     14  H   UNL     1      32.789 -22.896 -18.127  0.00  0.00    +0.211 HD
ENDBRANCH   8  13
BRANCH   9  15
ATOM     15  O   UNL     1      32.164 -20.346 -20.544  0.00  0.00    -0.379 OA
ATOM     16  H   UNL     1      31.515 -21.067 -20.548  0.00  0.00    +0.211 HD
ENDBRANCH   9  15
BRANCH  11  17
ATOM     17  O   UNL     1      34.312 -19.344 -22.184  0.00  0.00    -0.379 OA
ATOM     18  H   UNL     1      34.493 -20.093 -22.774  0.00  0.00    +0.211 HD
ENDBRANCH  11  17
BRANCH  12  19
ATOM     19  C   UNL     1      36.901 -19.074 -20.785  0.00  0.00    +0.169 C 
BRANCH  19  20
ATOM     20  O   UNL     1      36.948 -18.731 -22.157  0.00  0.00    -0.379 OA
ATOM     21  H   UNL     1      37.617 -19.274 -22.603  0.00  0.00    +0.211 HD
ENDBRANCH  19  20
ENDBRANCH  12  19
ENDBRANCH   1  10
BRANCH   5  22
ATOM     22  C   UNL     1      36.527 -23.705 -13.662  0.00  0.00    +0.026 C 
ATOM     23  C   UNL     1      37.573 -24.815 -13.671  0.00  0.00    +0.005 C 
ENDBRANCH   5  22
BRANCH   4  24
ATOM     24  C   UNL     1      33.983 -24.450 -14.914  0.00  0.00    +0.052 C 
BRANCH  24  27
ATOM     25  O   UNL     1      29.479 -24.035 -16.738  0.00  0.00    -0.468 OA
ATOM     26  O   UNL     1      28.772 -22.230 -14.604  0.00  0.00    -0.468 OA
ATOM     27  C   UNL     1      32.590 -23.859 -14.853  0.00  0.00    -0.015 C 
ATOM     28  C   UNL     1      31.641 -24.214 -15.811  0.00  0.00    +0.036 C 
ATOM     29  C   UNL     1      32.259 -22.955 -13.842  0.00  0.00    -0.001 C 
ATOM     30  C   UNL     1      30.361 -23.662 -15.757  0.00  0.00    +0.172 C 
ATOM     31  C   UNL     1      30.022 -22.780 -14.730  0.00  0.00    +0.172 C 
ATOM     32  C   UNL     1      30.976 -22.414 -13.780  0.00  0.00    +0.040 C 
ATOM     33  C   UNL     1      28.343 -23.167 -16.791  0.00  0.00    +0.253 C 
ATOM     34  C   UNL     1      27.804 -22.922 -15.396  0.00  0.00    +0.253 C 
ENDBRANCH  24  27
ENDBRANCH   4  24
TORSDOF 9
ENDMDL
MODEL 6
REMARK VINA RESULT:     -10.3      2.464      5.519
REMARK  Name = 52913524
REMARK  9 active torsions:
REMARK  status: ('A' for Active; 'I' for Inactive)
REMARK    1  A    between atoms: C_1  and  C_10
REMARK    2  A    between atoms: C_4  and  C_24
REMARK    3  A    between atoms: C_5  and  C_22
REMARK    4  A    between atoms: C_8  and  O_13
REMARK    5  A    between atoms: C_9  and  O_15
REMARK    6  A    between atoms: C_11  and  O_17
REMARK    7  A    between atoms: C_12  and  C_19
REMARK    8  A    between atoms: C_19  and  O_20
REMARK    9  A    between atoms: C_24  and  C_27
REMARK                            x       y       z     vdW  Elec       q    Type
REMARK                         _______ _______ _______ _____ _____    ______ ____
ROOT
ATOM      1  C   UNL     1      36.743 -22.946 -15.865  0.00  0.00    +0.007 C 
ATOM      2  C   UNL     1      35.461 -23.222 -16.339  0.00  0.00    -0.006 C 
ATOM      3  C   UNL     1      37.585 -22.098 -16.584  0.00  0.00    -0.002 C 
ATOM      4  C   UNL     1      35.021 -22.651 -17.533  0.00  0.00    -0.022 C 
ATOM      5  C   UNL     1      35.864 -21.803 -18.253  0.00  0.00    -0.026 C 
ATOM      6  C   UNL     1      37.146 -21.527 -17.778  0.00  0.00    -0.005 C 
ENDROOT
BRANCH   1  10
ATOM      7  O   UNL     1      38.215 -24.542 -14.890  0.00  0.00    -0.347 OA
ATOM      8  C   UNL     1      36.067 -24.201 -13.775  0.00  0.00    +0.171 C 
ATOM      9  C   UNL     1      36.594 -24.959 -12.552  0.00  0.00    +0.169 C 
ATOM     10  C   UNL     1      37.221 -23.566 -14.566  0.00  0.00    +0.167 C 
ATOM     11  C   UNL     1      37.750 -25.885 -12.926  0.00  0.00    +0.169 C 
ATOM     12  C   UNL     1      38.809 -25.133 -13.734  0.00  0.00    +0.174 C 
BRANCH   8  13
ATOM     13  O   UNL     1      35.187 -23.167 -13.337  0.00  0.00    -0.379 OA
ATOM     14  H   UNL     1      34.320 -23.547 -13.126  0.00  0.00    +0.211 HD
ENDBRANCH   8  13
BRANCH   9  15
ATOM     15  O   UNL     1      35.546 -25.760 -12.002  0.00  0.00    -0.379 OA
ATOM     16  H   UNL     1      34.801 -25.788 -12.623  0.00  0.00    +0.211 HD
ENDBRANCH   9  15
BRANCH  11  17
ATOM     17  O   UNL     1      38.344 -26.401 -11.738  0.00  0.00    -0.379 OA
ATOM     18  H   UNL     1      37.659 -26.525 -11.062  0.00  0.00    +0.211 HD
ENDBRANCH  11  17
BRANCH  12  19
ATOM     19  C   UNL     1      39.919 -26.063 -14.215  0.00  0.00    +0.169 C 
BRANCH  19  20
ATOM     20  O   UNL     1      40.058 -25.912 -15.615  0.00  0.00    -0.379 OA
ATOM     21  H   UNL     1      39.229 -26.168 -16.051  0.00  0.00    +0.211 HD
ENDBRANCH  19  20
ENDBRANCH  12  19
ENDBRANCH   1  10
BRANCH   5  22
ATOM     22  C   UNL     1      35.416 -21.180 -19.534  0.00  0.00    +0.026 C 
ATOM     23  C   UNL     1      36.492 -20.296 -20.155  0.00  0.00    +0.005 C 
ENDBRANCH   5  22
BRANCH   4  24
ATOM     24  C   UNL     1      33.645 -22.961 -18.021  0.00  0.00    +0.052 C 
BRANCH  24  27
ATOM     25  O   UNL     1      32.617 -25.049 -13.734  0.00  0.00    -0.468 OA
ATOM     26  O   UNL     1      29.910 -24.069 -13.897  0.00  0.00    -0.468 OA
ATOM     27  C   UNL     1      32.658 -23.276 -16.916  0.00  0.00    -0.015 C 
ATOM     28  C   UNL     1      33.070 -24.011 -15.805  0.00  0.00    +0.036 C 
ATOM     29  C   UNL     1      31.337 -22.835 -17.013  0.00  0.00    -0.001 C 
ATOM     30  C   UNL     1      32.158 -24.305 -14.791  0.00  0.00    +0.172 C 
ATOM     31  C   UNL     1      30.844 -23.841 -14.875  0.00  0.00    +0.172 C 
ATOM     32  C   UNL     1      30.429 -23.118 -15.993  0.00  0.00    +0.040 C 
ATOM     33  C   UNL     1      31.545 -25.577 -12.949  0.00  0.00    +0.253 C 
ATOM     34  C   UNL     1      30.515 -24.501 -12.675  0.00  0.00    +0.253 C 
ENDBRANCH  24  27
ENDBRANCH   4  24
TORSDOF 9
ENDMDL
MODEL 7
REMARK VINA RESULT:     -10.3      2.489      7.084
REMARK  Name = 52913524
REMARK  9 active torsions:
REMARK  status: ('A' for Active; 'I' for Inactive)
REMARK    1  A    between atoms: C_1  and  C_10
REMARK    2  A    between atoms: C_4  and  C_24
REMARK    3  A    between atoms: C_5  and  C_22
REMARK    4  A    between atoms: C_8  and  O_13
REMARK    5  A    between atoms: C_9  and  O_15
REMARK    6  A    between atoms: C_11  and  O_17
REMARK    7  A    between atoms: C_12  and  C_19
REMARK    8  A    between atoms: C_19  and  O_20
REMARK    9  A    between atoms: C_24  and  C_27
REMARK                            x       y       z     vdW  Elec       q    Type
REMARK                         _______ _______ _______ _____ _____    ______ ____
ROOT
ATOM      1  C   UNL     1      33.620 -23.136 -17.200  0.00  0.00    +0.007 C 
ATOM      2  C   UNL     1      34.876 -22.945 -16.625  0.00  0.00    -0.006 C 
ATOM      3  C   UNL     1      33.361 -22.657 -18.485  0.00  0.00    -0.002 C 
ATOM      4  C   UNL     1      35.873 -22.274 -17.333  0.00  0.00    -0.022 C 
ATOM      5  C   UNL     1      35.613 -21.794 -18.618  0.00  0.00    -0.026 C 
ATOM      6  C   UNL     1      34.358 -21.986 -19.193  0.00  0.00    -0.005 C 
ENDROOT
BRANCH   1  10
ATOM      7  O   UNL     1      31.319 -23.134 -16.594  0.00  0.00    -0.347 OA
ATOM      8  C   UNL     1      32.890 -24.014 -14.943  0.00  0.00    +0.171 C 
ATOM      9  C   UNL     1      31.717 -24.609 -14.157  0.00  0.00    +0.169 C 
ATOM     10  C   UNL     1      32.537 -23.866 -16.430  0.00  0.00    +0.167 C 
ATOM     11  C   UNL     1      30.411 -23.882 -14.475  0.00  0.00    +0.169 C 
ATOM     12  C   UNL     1      30.199 -23.780 -15.986  0.00  0.00    +0.174 C 
BRANCH   8  13
ATOM     13  O   UNL     1      34.016 -24.883 -14.824  0.00  0.00    -0.379 OA
ATOM     14  H   UNL     1      33.899 -25.648 -15.407  0.00  0.00    +0.211 HD
ENDBRANCH   8  13
BRANCH   9  15
ATOM     15  O   UNL     1      31.968 -24.476 -12.757  0.00  0.00    -0.379 OA
ATOM     16  H   UNL     1      32.910 -24.623 -12.582  0.00  0.00    +0.211 HD
ENDBRANCH   9  15
BRANCH  11  17
ATOM     17  O   UNL     1      29.322 -24.597 -13.895  0.00  0.00    -0.379 OA
ATOM     18  H   UNL     1      29.386 -25.534 -14.137  0.00  0.00    +0.211 HD
ENDBRANCH  11  17
BRANCH  12  19
ATOM     19  C   UNL     1      28.958 -22.961 -16.329  0.00  0.00    +0.169 C 
BRANCH  19  20
ATOM     20  O   UNL     1      28.509 -22.311 -15.155  0.00  0.00    -0.379 OA
ATOM     21  H   UNL     1      27.837 -22.859 -14.719  0.00  0.00    +0.211 HD
ENDBRANCH  19  20
ENDBRANCH  12  19
ENDBRANCH   1  10
BRANCH   5  22
ATOM     22  C   UNL     1      36.664 -21.073 -19.395  0.00  0.00    +0.026 C 
ATOM     23  C   UNL     1      36.069 -20.134 -20.440  0.00  0.00    +0.005 C 
ENDBRANCH   5  22
BRANCH   4  24
ATOM     24  C   UNL     1      37.210 -22.080 -16.696  0.00  0.00    +0.052 C 
BRANCH  24  27
ATOM     25  O   UNL     1      36.157 -23.404 -12.121  0.00  0.00    -0.468 OA
ATOM     26  O   UNL     1      38.145 -25.488 -12.258  0.00  0.00    -0.468 OA
ATOM     27  C   UNL     1      37.453 -22.974 -15.498  0.00  0.00    -0.015 C 
ATOM     28  C   UNL     1      36.692 -22.808 -14.341  0.00  0.00    +0.036 C 
ATOM     29  C   UNL     1      38.442 -23.957 -15.551  0.00  0.00    -0.001 C 
ATOM     30  C   UNL     1      36.923 -23.628 -13.236  0.00  0.00    +0.172 C 
ATOM     31  C   UNL     1      37.894 -24.630 -13.298  0.00  0.00    +0.172 C 
ATOM     32  C   UNL     1      38.664 -24.785 -14.451  0.00  0.00    +0.040 C 
ATOM     33  C   UNL     1      36.701 -24.044 -10.964  0.00  0.00    +0.253 C 
ATOM     34  C   UNL     1      37.094 -25.471 -11.289  0.00  0.00    +0.253 C 
ENDBRANCH  24  27
ENDBRANCH   4  24
TORSDOF 9
ENDMDL
MODEL 8
REMARK VINA RESULT:     -10.0     11.241     17.460
REMARK  Name = 52913524
REMARK  9 active torsions:
REMARK  status: ('A' for Active; 'I' for Inactive)
REMARK    1  A    between atoms: C_1  and  C_10
REMARK    2  A    between atoms: C_4  and  C_24
REMARK    3  A    between atoms: C_5  and  C_22
REMARK    4  A    between atoms: C_8  and  O_13
REMARK    5  A    between atoms: C_9  and  O_15
REMARK    6  A    between atoms: C_11  and  O_17
REMARK    7  A    between atoms: C_12  and  C_19
REMARK    8  A    between atoms: C_19  and  O_20
REMARK    9  A    between atoms: C_24  and  C_27
REMARK                            x       y       z     vdW  Elec       q    Type
REMARK                         _______ _______ _______ _____ _____    ______ ____
ROOT
ATOM      1  C   UNL     1      32.225  -7.533 -22.615  0.00  0.00    +0.007 C 
ATOM      2  C   UNL     1      31.706  -8.826 -22.681  0.00  0.00    -0.006 C 
ATOM      3  C   UNL     1      32.763  -7.056 -21.420  0.00  0.00    -0.002 C 
ATOM      4  C   UNL     1      31.724  -9.642 -21.549  0.00  0.00    -0.022 C 
ATOM      5  C   UNL     1      32.262  -9.164 -20.353  0.00  0.00    -0.026 C 
ATOM      6  C   UNL     1      32.781  -7.872 -20.289  0.00  0.00    -0.005 C 
ENDROOT
BRANCH   1  10
ATOM      7  O   UNL     1      33.395  -6.918 -24.595  0.00  0.00    -0.347 OA
ATOM      8  C   UNL     1      32.119  -5.157 -23.479  0.00  0.00    +0.171 C 
ATOM      9  C   UNL     1      32.264  -4.277 -24.724  0.00  0.00    +0.169 C 
ATOM     10  C   UNL     1      32.206  -6.646 -23.845  0.00  0.00    +0.167 C 
ATOM     11  C   UNL     1      33.467  -4.698 -25.566  0.00  0.00    +0.169 C 
ATOM     12  C   UNL     1      33.445  -6.204 -25.831  0.00  0.00    +0.174 C 
BRANCH   8  13
ATOM     13  O   UNL     1      30.849  -4.907 -22.878  0.00  0.00    -0.379 OA
ATOM     14  H   UNL     1      30.937  -4.205 -22.215  0.00  0.00    +0.211 HD
ENDBRANCH   8  13
BRANCH   9  15
ATOM     15  O   UNL     1      32.457  -2.919 -24.325  0.00  0.00    -0.379 OA
ATOM     16  H   UNL     1      33.406  -2.719 -24.308  0.00  0.00    +0.211 HD
ENDBRANCH   9  15
BRANCH  11  17
ATOM     17  O   UNL     1      33.438  -4.002 -26.809  0.00  0.00    -0.379 OA
ATOM     18  H   UNL     1      33.747  -3.091 -26.677  0.00  0.00    +0.211 HD
ENDBRANCH  11  17
BRANCH  12  19
ATOM     19  C   UNL     1      34.695  -6.666 -26.575  0.00  0.00    +0.169 C 
BRANCH  19  20
ATOM     20  O   UNL     1      34.433  -6.624 -27.965  0.00  0.00    -0.379 OA
ATOM     21  H   UNL     1      34.874  -7.371 -28.400  0.00  0.00    +0.211 HD
ENDBRANCH  19  20
ENDBRANCH  12  19
ENDBRANCH   1  10
BRANCH   5  22
ATOM     22  C   UNL     1      32.291 -10.019 -19.129  0.00  0.00    +0.026 C 
ATOM     23  C   UNL     1      30.944 -10.052 -18.413  0.00  0.00    +0.005 C 
ENDBRANCH   5  22
BRANCH   4  24
ATOM     24  C   UNL     1      31.162 -11.022 -21.642  0.00  0.00    +0.052 C 
BRANCH  24  27
ATOM     25  O   UNL     1      33.528 -15.092 -20.364  0.00  0.00    -0.468 OA
ATOM     26  O   UNL     1      35.029 -15.001 -22.824  0.00  0.00    -0.468 OA
ATOM     27  C   UNL     1      32.198 -12.088 -21.937  0.00  0.00    -0.015 C 
ATOM     28  C   UNL     1      32.401 -13.129 -21.031  0.00  0.00    +0.036 C 
ATOM     29  C   UNL     1      32.952 -12.022 -23.109  0.00  0.00    -0.001 C 
ATOM     30  C   UNL     1      33.361 -14.105 -21.301  0.00  0.00    +0.172 C 
ATOM     31  C   UNL     1      34.096 -14.055 -22.487  0.00  0.00    +0.172 C 
ATOM     32  C   UNL     1      33.902 -13.005 -23.385  0.00  0.00    +0.040 C 
ATOM     33  C   UNL     1      34.744 -15.818 -20.566  0.00  0.00    +0.253 C 
ATOM     34  C   UNL     1      34.900 -16.183 -22.029  0.00  0.00    +0.253 C 
ENDBRANCH  24  27
ENDBRANCH   4  24
TORSDOF 9
ENDMDL
MODEL 9
REMARK VINA RESULT:      -9.7      1.776      7.024
REMARK  Name = 52913524
REMARK  9 active torsions:
REMARK  status: ('A' for Active; 'I' for Inactive)
REMARK    1  A    between atoms: C_1  and  C_10
REMARK    2  A    between atoms: C_4  and  C_24
REMARK    3  A    between atoms: C_5  and  C_22
REMARK    4  A    between atoms: C_8  and  O_13
REMARK    5  A    between atoms: C_9  and  O_15
REMARK    6  A    between atoms: C_11  and  O_17
REMARK    7  A    between atoms: C_12  and  C_19
REMARK    8  A    between atoms: C_19  and  O_20
REMARK    9  A    between atoms: C_24  and  C_27
REMARK                            x       y       z     vdW  Elec       q    Type
REMARK                         _______ _______ _______ _____ _____    ______ ____
ROOT
ATOM      1  C   UNL     1      33.292 -23.277 -16.659  0.00  0.00    +0.007 C 
ATOM      2  C   UNL     1      33.721 -23.794 -15.437  0.00  0.00    -0.006 C 
ATOM      3  C   UNL     1      31.929 -23.117 -16.909  0.00  0.00    -0.002 C 
ATOM      4  C   UNL     1      32.787 -24.150 -14.464  0.00  0.00    -0.022 C 
ATOM      5  C   UNL     1      31.424 -23.990 -14.714  0.00  0.00    -0.026 C 
ATOM      6  C   UNL     1      30.995 -23.474 -15.936  0.00  0.00    -0.005 C 
ENDROOT
BRANCH   1  10
ATOM      7  O   UNL     1      35.439 -22.328 -17.045  0.00  0.00    -0.347 OA
ATOM      8  C   UNL     1      33.726 -21.894 -18.733  0.00  0.00    +0.171 C 
ATOM      9  C   UNL     1      34.811 -21.394 -19.692  0.00  0.00    +0.169 C 
ATOM     10  C   UNL     1      34.307 -22.889 -17.716  0.00  0.00    +0.167 C 
ATOM     11  C   UNL     1      36.056 -20.937 -18.933  0.00  0.00    +0.169 C 
ATOM     12  C   UNL     1      36.508 -22.006 -17.937  0.00  0.00    +0.174 C 
BRANCH   8  13
ATOM     13  O   UNL     1      32.708 -22.552 -19.486  0.00  0.00    -0.379 OA
ATOM     14  H   UNL     1      32.017 -22.874 -18.886  0.00  0.00    +0.211 HD
ENDBRANCH   8  13
BRANCH   9  15
ATOM     15  O   UNL     1      34.312 -20.279 -20.433  0.00  0.00    -0.379 OA
ATOM     16  H   UNL     1      34.787 -19.476 -20.168  0.00  0.00    +0.211 HD
ENDBRANCH   9  15
BRANCH  11  17
ATOM     17  O   UNL     1      37.107 -20.686 -19.861  0.00  0.00    -0.379 OA
ATOM     18  H   UNL     1      37.004 -21.267 -20.632  0.00  0.00    +0.211 HD
ENDBRANCH  11  17
BRANCH  12  19
ATOM     19  C   UNL     1      37.683 -21.528 -17.088  0.00  0.00    +0.169 C 
BRANCH  19  20
ATOM     20  O   UNL     1      37.581 -20.126 -16.927  0.00  0.00    -0.379 OA
ATOM     21  H   UNL     1      37.703 -19.898 -15.992  0.00  0.00    +0.211 HD
ENDBRANCH  19  20
ENDBRANCH  12  19
ENDBRANCH   1  10
BRANCH   5  22
ATOM     22  C   UNL     1      30.405 -24.366 -13.689  0.00  0.00    +0.026 C 
ATOM     23  C   UNL     1      29.420 -25.409 -14.206  0.00  0.00    +0.005 C 
ENDBRANCH   5  22
BRANCH   4  24
ATOM     24  C   UNL     1      33.270 -24.702 -13.163  0.00  0.00    +0.052 C 
BRANCH  24  27
ATOM     25  O   UNL     1      37.657 -26.261 -14.618  0.00  0.00    -0.468 OA
ATOM     26  O   UNL     1      38.915 -24.632 -12.599  0.00  0.00    -0.468 OA
ATOM     27  C   UNL     1      34.778 -24.703 -13.020  0.00  0.00    -0.015 C 
ATOM     28  C   UNL     1      35.558 -25.468 -13.887  0.00  0.00    +0.036 C 
ATOM     29  C   UNL     1      35.385 -23.945 -12.018  0.00  0.00    -0.001 C 
ATOM     30  C   UNL     1      36.946 -25.474 -13.749  0.00  0.00    +0.172 C 
ATOM     31  C   UNL     1      37.555 -24.693 -12.764  0.00  0.00    +0.172 C 
ATOM     32  C   UNL     1      36.773 -23.940 -11.888  0.00  0.00    +0.040 C 
ATOM     33  C   UNL     1      39.002 -26.462 -14.176  0.00  0.00    +0.253 C 
ATOM     34  C   UNL     1      39.613 -25.147 -13.736  0.00  0.00    +0.253 C 
ENDBRANCH  24  27
ENDBRANCH   4  24
TORSDOF 9
ENDMDL
