MODEL 1
REMARK VINA RESULT:     -11.3      0.000      0.000
REMARK  Name = 11154925
REMARK  9 active torsions:
REMARK  status: ('A' for Active; 'I' for Inactive)
REMARK    1  A    between atoms: C_6  and  O_11
REMARK    2  A    between atoms: C_8  and  O_24
REMARK    3  A    between atoms: O_11  and  C_12
REMARK    4  A    between atoms: C_12  and  C_13
REMARK    5  A    between atoms: C_13  and  O_15
REMARK    6  A    between atoms: O_15  and  C_17
REMARK    7  A    between atoms: C_17  and  C_18
REMARK    8  A    between atoms: C_18  and  N_20
REMARK    9  A    between atoms: O_24  and  C_29
REMARK                            x       y       z     vdW  Elec       q    Type
REMARK                         _______ _______ _______ _____ _____    ______ ____
ROOT
ATOM      1  N   UNL     1      34.117 -15.981 -24.593  0.00  0.00    -0.180 N 
ATOM      2  N   UNL     1      33.667 -15.472 -25.774  0.00  0.00    -0.151 NA
ATOM      3  N   UNL     1      33.242 -13.411 -24.584  0.00  0.00    -0.187 NA
ATOM      4  C   UNL     1      34.149 -15.269 -23.422  0.00  0.00    +0.126 C 
ATOM      5  C   UNL     1      34.657 -16.080 -22.433  0.00  0.00    +0.034 C 
ATOM      6  C   UNL     1      34.942 -17.333 -23.035  0.00  0.00    +0.153 C 
ATOM      7  C   UNL     1      34.600 -17.244 -24.369  0.00  0.00    +0.126 C 
ATOM      8  C   UNL     1      33.678 -13.930 -23.482  0.00  0.00    +0.247 C 
ATOM      9  C   UNL     1      34.884 -15.766 -21.008  0.00  0.00    +0.036 C 
ATOM     10  C   UNL     1      33.260 -14.232 -25.702  0.00  0.00    +0.220 C 
ENDROOT
BRANCH   6  11
ATOM     11  O   UNL     1      35.452 -18.431 -22.458  0.00  0.00    -0.470 OA
BRANCH  11  12
ATOM     12  C   UNL     1      34.577 -19.552 -22.300  0.00  0.00    +0.249 C 
BRANCH  12  13
ATOM     13  C   UNL     1      34.468 -19.890 -20.819  0.00  0.00    +0.212 C 
ATOM     14  C   UNL     1      33.075 -20.385 -20.461  0.00  0.00    +0.051 C 
BRANCH  13  15
ATOM     15  O   UNL     1      35.414 -20.915 -20.521  0.00  0.00    -0.450 OA
BRANCH  15  17
ATOM     16  O   UNL     1      37.093 -19.549 -19.732  0.00  0.00    -0.252 OA
ATOM     17  C   UNL     1      36.417 -20.568 -19.657  0.00  0.00    +0.296 C 
BRANCH  17  18
ATOM     18  C   UNL     1      36.563 -21.644 -18.598  0.00  0.00    +0.036 C 
ATOM     19  C   UNL     1      35.236 -22.351 -18.363  0.00  0.00    -0.013 C 
BRANCH  18  20
ATOM     20  N   UNL     1      37.009 -21.006 -17.360  0.00  0.00    +0.389 N 
ATOM     21  H   UNL     1      38.010 -20.824 -17.413  0.00  0.00    -0.088 HD
ATOM     22  H   UNL     1      36.817 -21.625 -16.572  0.00  0.00    -0.088 HD
ATOM     23  H   UNL     1      36.508 -20.127 -17.231  0.00  0.00    -0.088 HD
ENDBRANCH  18  20
ENDBRANCH  17  18
ENDBRANCH  15  17
ENDBRANCH  13  15
ENDBRANCH  12  13
ENDBRANCH  11  12
ENDBRANCH   6  11
BRANCH   8  24
ATOM     24  O   UNL     1      33.699 -13.204 -22.339  0.00  0.00    -0.433 OA
BRANCH  24  29
ATOM     25  F   UNL     1      34.704 -10.985 -23.606  0.00  0.00    -0.201 F 
ATOM     26  N   UNL     1      30.838  -8.562 -22.902  0.00  0.00    -0.316 N 
ATOM     27  C   UNL     1      32.675  -9.792 -23.206  0.00  0.00    +0.045 C 
ATOM     28  C   UNL     1      31.388  -9.801 -22.662  0.00  0.00    +0.050 C 
ATOM     29  C   UNL     1      32.941 -12.078 -22.449  0.00  0.00    +0.175 C 
ATOM     30  C   UNL     1      31.730  -7.772 -23.577  0.00  0.00    +0.026 C 
ATOM     31  C   UNL     1      33.465 -10.953 -23.097  0.00  0.00    +0.176 C 
ATOM     32  C   UNL     1      32.876  -8.506 -23.779  0.00  0.00    +0.014 C 
ATOM     33  C   UNL     1      30.851 -10.918 -22.012  0.00  0.00    +0.018 C 
ATOM     34  C   UNL     1      31.653 -12.059 -21.917  0.00  0.00    +0.041 C 
ATOM     35  C   UNL     1      31.391  -6.389 -23.960  0.00  0.00    +0.047 C 
ATOM     36  H   UNL     1      29.934  -8.284 -22.627  0.00  0.00    +0.152 HD
ENDBRANCH  24  29
ENDBRANCH   8  24
TORSDOF 9
ENDMDL
MODEL 2
REMARK VINA RESULT:     -10.9      2.339      3.640
REMARK  Name = 11154925
REMARK  9 active torsions:
REMARK  status: ('A' for Active; 'I' for Inactive)
REMARK    1  A    between atoms: C_6  and  O_11
REMARK    2  A    between atoms: C_8  and  O_24
REMARK    3  A    between atoms: O_11  and  C_12
REMARK    4  A    between atoms: C_12  and  C_13
REMARK    5  A    between atoms: C_13  and  O_15
REMARK    6  A    between atoms: O_15  and  C_17
REMARK    7  A    between atoms: C_17  and  C_18
REMARK    8  A    between atoms: C_18  and  N_20
REMARK    9  A    between atoms: O_24  and  C_29
REMARK                            x       y       z     vdW  Elec       q    Type
REMARK                         _______ _______ _______ _____ _____    ______ ____
ROOT
ATOM      1  N   UNL     1      33.217 -13.734 -21.252  0.00  0.00    -0.180 N 
ATOM      2  N   UNL     1      32.552 -13.452 -20.097  0.00  0.00    -0.151 NA
ATOM      3  N   UNL     1      31.654 -11.515 -21.230  0.00  0.00    -0.187 NA
ATOM      4  C   UNL     1      33.135 -12.965 -22.384  0.00  0.00    +0.126 C 
ATOM      5  C   UNL     1      33.926 -13.532 -23.355  0.00  0.00    +0.034 C 
ATOM      6  C   UNL     1      34.509 -14.693 -22.784  0.00  0.00    +0.153 C 
ATOM      7  C   UNL     1      34.054 -14.794 -21.485  0.00  0.00    +0.126 C 
ATOM      8  C   UNL     1      32.301 -11.817 -22.309  0.00  0.00    +0.247 C 
ATOM      9  C   UNL     1      34.163 -13.072 -24.738  0.00  0.00    +0.036 C 
ATOM     10  C   UNL     1      31.819 -12.372 -20.152  0.00  0.00    +0.220 C 
ENDROOT
BRANCH   6  11
ATOM     11  O   UNL     1      35.351 -15.564 -23.358  0.00  0.00    -0.470 OA
BRANCH  11  12
ATOM     12  C   UNL     1      34.780 -16.556 -24.219  0.00  0.00    +0.249 C 
BRANCH  12  13
ATOM     13  C   UNL     1      34.461 -17.798 -23.397  0.00  0.00    +0.212 C 
ATOM     14  C   UNL     1      34.014 -18.952 -24.282  0.00  0.00    +0.051 C 
BRANCH  13  15
ATOM     15  O   UNL     1      35.640 -18.186 -22.693  0.00  0.00    -0.450 OA
BRANCH  15  17
ATOM     16  O   UNL     1      35.410 -17.467 -20.516  0.00  0.00    -0.252 OA
ATOM     17  C   UNL     1      35.495 -18.365 -21.343  0.00  0.00    +0.296 C 
BRANCH  17  18
ATOM     18  C   UNL     1      35.463 -19.850 -21.035  0.00  0.00    +0.036 C 
ATOM     19  C   UNL     1      34.070 -20.277 -20.593  0.00  0.00    -0.013 C 
BRANCH  18  20
ATOM     20  N   UNL     1      36.423 -20.113 -19.964  0.00  0.00    +0.389 N 
ATOM     21  H   UNL     1      36.885 -21.006 -20.134  0.00  0.00    -0.088 HD
ATOM     22  H   UNL     1      35.932 -20.149 -19.070  0.00  0.00    -0.088 HD
ATOM     23  H   UNL     1      37.119 -19.368 -19.939  0.00  0.00    -0.088 HD
ENDBRANCH  18  20
ENDBRANCH  17  18
ENDBRANCH  15  17
ENDBRANCH  13  15
ENDBRANCH  12  13
ENDBRANCH  11  12
ENDBRANCH   6  11
BRANCH   8  24
ATOM     24  O   UNL     1      32.202 -11.039 -23.413  0.00  0.00    -0.433 OA
BRANCH  24  29
ATOM     25  F   UNL     1      30.175  -9.279 -22.833  0.00  0.00    -0.201 F 
ATOM     26  N   UNL     1      33.104  -5.756 -22.256  0.00  0.00    -0.316 N 
ATOM     27  C   UNL     1      31.748  -7.504 -22.551  0.00  0.00    +0.045 C 
ATOM     28  C   UNL     1      33.085  -7.098 -22.568  0.00  0.00    +0.050 C 
ATOM     29  C   UNL     1      32.487  -9.737 -23.132  0.00  0.00    +0.175 C 
ATOM     30  C   UNL     1      31.830  -5.302 -22.045  0.00  0.00    +0.026 C 
ATOM     31  C   UNL     1      31.444  -8.849 -22.839  0.00  0.00    +0.176 C 
ATOM     32  C   UNL     1      30.969  -6.361 -22.219  0.00  0.00    +0.014 C 
ATOM     33  C   UNL     1      34.136  -7.973 -22.859  0.00  0.00    +0.018 C 
ATOM     34  C   UNL     1      33.811  -9.304 -23.141  0.00  0.00    +0.041 C 
ATOM     35  C   UNL     1      31.567  -3.894 -21.695  0.00  0.00    +0.047 C 
ATOM     36  H   UNL     1      33.917  -5.204 -22.196  0.00  0.00    +0.152 HD
ENDBRANCH  24  29
ENDBRANCH   8  24
TORSDOF 9
ENDMDL
MODEL 3
REMARK VINA RESULT:     -10.9      6.981     11.263
REMARK  Name = 11154925
REMARK  9 active torsions:
REMARK  status: ('A' for Active; 'I' for Inactive)
REMARK    1  A    between atoms: C_6  and  O_11
REMARK    2  A    between atoms: C_8  and  O_24
REMARK    3  A    between atoms: O_11  and  C_12
REMARK    4  A    between atoms: C_12  and  C_13
REMARK    5  A    between atoms: C_13  and  O_15
REMARK    6  A    between atoms: O_15  and  C_17
REMARK    7  A    between atoms: C_17  and  C_18
REMARK    8  A    between atoms: C_18  and  N_20
REMARK    9  A    between atoms: O_24  and  C_29
REMARK                            x       y       z     vdW  Elec       q    Type
REMARK                         _______ _______ _______ _____ _____    ______ ____
ROOT
ATOM      1  N   UNL     1      32.364 -23.624 -14.646  0.00  0.00    -0.180 N 
ATOM      2  N   UNL     1      31.107 -23.247 -15.014  0.00  0.00    -0.151 NA
ATOM      3  N   UNL     1      31.955 -23.055 -17.269  0.00  0.00    -0.187 NA
ATOM      4  C   UNL     1      33.413 -23.729 -15.524  0.00  0.00    +0.126 C 
ATOM      5  C   UNL     1      34.527 -24.130 -14.825  0.00  0.00    +0.034 C 
ATOM      6  C   UNL     1      34.133 -24.273 -13.469  0.00  0.00    +0.153 C 
ATOM      7  C   UNL     1      32.792 -23.955 -13.388  0.00  0.00    +0.126 C 
ATOM      8  C   UNL     1      33.135 -23.418 -16.882  0.00  0.00    +0.247 C 
ATOM      9  C   UNL     1      35.893 -24.379 -15.328  0.00  0.00    +0.036 C 
ATOM     10  C   UNL     1      30.977 -22.987 -16.287  0.00  0.00    +0.220 C 
ENDROOT
BRANCH   6  11
ATOM     11  O   UNL     1      34.885 -24.646 -12.423  0.00  0.00    -0.470 OA
BRANCH  11  12
ATOM     12  C   UNL     1      35.755 -23.659 -11.858  0.00  0.00    +0.249 C 
BRANCH  12  13
ATOM     13  C   UNL     1      36.473 -24.262 -10.658  0.00  0.00    +0.212 C 
ATOM     14  C   UNL     1      35.488 -24.730  -9.597  0.00  0.00    +0.051 C 
BRANCH  13  15
ATOM     15  O   UNL     1      37.234 -25.382 -11.107  0.00  0.00    -0.450 OA
BRANCH  15  17
ATOM     16  O   UNL     1      38.893 -24.073 -12.024  0.00  0.00    -0.252 OA
ATOM     17  C   UNL     1      38.232 -25.103 -12.001  0.00  0.00    +0.296 C 
BRANCH  17  18
ATOM     18  C   UNL     1      38.387 -26.267 -12.961  0.00  0.00    +0.036 C 
ATOM     19  C   UNL     1      38.973 -25.798 -14.286  0.00  0.00    -0.013 C 
BRANCH  18  20
ATOM     20  N   UNL     1      37.066 -26.851 -13.185  0.00  0.00    +0.389 N 
ATOM     21  H   UNL     1      36.722 -27.258 -12.316  0.00  0.00    -0.088 HD
ATOM     22  H   UNL     1      37.132 -27.577 -13.899  0.00  0.00    -0.088 HD
ATOM     23  H   UNL     1      36.421 -26.125 -13.499  0.00  0.00    -0.088 HD
ENDBRANCH  18  20
ENDBRANCH  17  18
ENDBRANCH  15  17
ENDBRANCH  13  15
ENDBRANCH  12  13
ENDBRANCH  11  12
ENDBRANCH   6  11
BRANCH   8  24
ATOM     24  O   UNL     1      34.153 -23.513 -17.770  0.00  0.00    -0.433 OA
BRANCH  24  29
ATOM     25  F   UNL     1      36.524 -22.362 -18.542  0.00  0.00    -0.201 F 
ATOM     26  N   UNL     1      34.401 -19.296 -21.264  0.00  0.00    -0.316 N 
ATOM     27  C   UNL     1      35.359 -20.806 -19.929  0.00  0.00    +0.045 C 
ATOM     28  C   UNL     1      34.132 -20.343 -20.412  0.00  0.00    +0.050 C 
ATOM     29  C   UNL     1      34.153 -22.467 -18.642  0.00  0.00    +0.175 C 
ATOM     30  C   UNL     1      35.751 -19.081 -21.336  0.00  0.00    +0.026 C 
ATOM     31  C   UNL     1      35.368 -21.888 -19.028  0.00  0.00    +0.176 C 
ATOM     32  C   UNL     1      36.371 -20.001 -20.521  0.00  0.00    +0.014 C 
ATOM     33  C   UNL     1      32.910 -20.912 -20.035  0.00  0.00    +0.018 C 
ATOM     34  C   UNL     1      32.944 -21.985 -19.140  0.00  0.00    +0.041 C 
ATOM     35  C   UNL     1      36.313 -18.011 -22.182  0.00  0.00    +0.047 C 
ATOM     36  H   UNL     1      33.720 -18.776 -21.750  0.00  0.00    +0.152 HD
ENDBRANCH  24  29
ENDBRANCH   8  24
TORSDOF 9
ENDMDL
MODEL 4
REMARK VINA RESULT:     -10.8      3.897      7.191
REMARK  Name = 11154925
REMARK  9 active torsions:
REMARK  status: ('A' for Active; 'I' for Inactive)
REMARK    1  A    between atoms: C_6  and  O_11
REMARK    2  A    between atoms: C_8  and  O_24
REMARK    3  A    between atoms: O_11  and  C_12
REMARK    4  A    between atoms: C_12  and  C_13
REMARK    5  A    between atoms: C_13  and  O_15
REMARK    6  A    between atoms: O_15  and  C_17
REMARK    7  A    between atoms: C_17  and  C_18
REMARK    8  A    between atoms: C_18  and  N_20
REMARK    9  A    between atoms: O_24  and  C_29
REMARK                            x       y       z     vdW  Elec       q    Type
REMARK                         _______ _______ _______ _____ _____    ______ ____
ROOT
ATOM      1  N   UNL     1      33.837 -21.596 -19.181  0.00  0.00    -0.180 N 
ATOM      2  N   UNL     1      32.543 -21.454 -19.584  0.00  0.00    -0.151 NA
ATOM      3  N   UNL     1      33.367 -19.953 -21.291  0.00  0.00    -0.187 NA
ATOM      4  C   UNL     1      34.894 -20.960 -19.781  0.00  0.00    +0.126 C 
ATOM      5  C   UNL     1      36.049 -21.324 -19.129  0.00  0.00    +0.034 C 
ATOM      6  C   UNL     1      35.671 -22.217 -18.092  0.00  0.00    +0.153 C 
ATOM      7  C   UNL     1      34.300 -22.367 -18.148  0.00  0.00    +0.126 C 
ATOM      8  C   UNL     1      34.582 -20.114 -20.879  0.00  0.00    +0.247 C 
ATOM      9  C   UNL     1      37.437 -20.903 -19.404  0.00  0.00    +0.036 C 
ATOM     10  C   UNL     1      32.385 -20.651 -20.602  0.00  0.00    +0.220 C 
ENDROOT
BRANCH   6  11
ATOM     11  O   UNL     1      36.462 -22.829 -17.199  0.00  0.00    -0.470 OA
BRANCH  11  12
ATOM     12  C   UNL     1      36.597 -22.211 -15.914  0.00  0.00    +0.249 C 
BRANCH  12  13
ATOM     13  C   UNL     1      36.280 -23.240 -14.836  0.00  0.00    +0.212 C 
ATOM     14  C   UNL     1      34.780 -23.390 -14.633  0.00  0.00    +0.051 C 
BRANCH  13  15
ATOM     15  O   UNL     1      36.819 -24.496 -15.243  0.00  0.00    -0.450 OA
BRANCH  15  17
ATOM     16  O   UNL     1      38.957 -24.647 -14.397  0.00  0.00    -0.252 OA
ATOM     17  C   UNL     1      37.791 -25.018 -14.432  0.00  0.00    +0.296 C 
BRANCH  17  18
ATOM     18  C   UNL     1      37.198 -26.131 -13.589  0.00  0.00    +0.036 C 
ATOM     19  C   UNL     1      37.453 -25.879 -12.109  0.00  0.00    -0.013 C 
BRANCH  18  20
ATOM     20  N   UNL     1      37.825 -27.389 -13.990  0.00  0.00    +0.389 N 
ATOM     21  H   UNL     1      37.603 -28.112 -13.306  0.00  0.00    -0.088 HD
ATOM     22  H   UNL     1      38.836 -27.265 -14.036  0.00  0.00    -0.088 HD
ATOM     23  H   UNL     1      37.475 -27.668 -14.906  0.00  0.00    -0.088 HD
ENDBRANCH  18  20
ENDBRANCH  17  18
ENDBRANCH  15  17
ENDBRANCH  13  15
ENDBRANCH  12  13
ENDBRANCH  11  12
ENDBRANCH   6  11
BRANCH   8  24
ATOM     24  O   UNL     1      35.608 -19.474 -21.490  0.00  0.00    -0.433 OA
BRANCH  24  29
ATOM     25  F   UNL     1      34.776 -19.129 -24.085  0.00  0.00    -0.201 F 
ATOM     26  N   UNL     1      34.059 -14.608 -23.485  0.00  0.00    -0.316 N 
ATOM     27  C   UNL     1      34.428 -16.798 -23.702  0.00  0.00    +0.045 C 
ATOM     28  C   UNL     1      34.481 -15.728 -22.804  0.00  0.00    +0.050 C 
ATOM     29  C   UNL     1      35.233 -18.240 -21.930  0.00  0.00    +0.175 C 
ATOM     30  C   UNL     1      33.743 -14.931 -24.777  0.00  0.00    +0.026 C 
ATOM     31  C   UNL     1      34.812 -18.077 -23.255  0.00  0.00    +0.176 C 
ATOM     32  C   UNL     1      33.961 -16.280 -24.942  0.00  0.00    +0.014 C 
ATOM     33  C   UNL     1      34.899 -15.876 -21.478  0.00  0.00    +0.018 C 
ATOM     34  C   UNL     1      35.275 -17.155 -21.056  0.00  0.00    +0.041 C 
ATOM     35  C   UNL     1      33.263 -13.910 -25.727  0.00  0.00    +0.047 C 
ATOM     36  H   UNL     1      33.995 -13.705 -23.098  0.00  0.00    +0.152 HD
ENDBRANCH  24  29
ENDBRANCH   8  24
TORSDOF 9
ENDMDL
MODEL 5
REMARK VINA RESULT:     -10.8      3.686      6.865
REMARK  Name = 11154925
REMARK  9 active torsions:
REMARK  status: ('A' for Active; 'I' for Inactive)
REMARK    1  A    between atoms: C_6  and  O_11
REMARK    2  A    between atoms: C_8  and  O_24
REMARK    3  A    between atoms: O_11  and  C_12
REMARK    4  A    between atoms: C_12  and  C_13
REMARK    5  A    between atoms: C_13  and  O_15
REMARK    6  A    between atoms: O_15  and  C_17
REMARK    7  A    between atoms: C_17  and  C_18
REMARK    8  A    between atoms: C_18  and  N_20
REMARK    9  A    between atoms: O_24  and  C_29
REMARK                            x       y       z     vdW  Elec       q    Type
REMARK                         _______ _______ _______ _____ _____    ______ ____
ROOT
ATOM      1  N   UNL     1      33.848 -21.445 -19.438  0.00  0.00    -0.180 N 
ATOM      2  N   UNL     1      32.563 -21.310 -19.870  0.00  0.00    -0.151 NA
ATOM      3  N   UNL     1      33.408 -19.750 -21.512  0.00  0.00    -0.187 NA
ATOM      4  C   UNL     1      34.910 -20.778 -19.992  0.00  0.00    +0.126 C 
ATOM      5  C   UNL     1      36.053 -21.144 -19.320  0.00  0.00    +0.034 C 
ATOM      6  C   UNL     1      35.663 -22.071 -18.319  0.00  0.00    +0.153 C 
ATOM      7  C   UNL     1      34.296 -22.239 -18.415  0.00  0.00    +0.126 C 
ATOM      8  C   UNL     1      34.615 -19.906 -21.074  0.00  0.00    +0.247 C 
ATOM      9  C   UNL     1      37.442 -20.696 -19.548  0.00  0.00    +0.036 C 
ATOM     10  C   UNL     1      32.419 -20.480 -20.869  0.00  0.00    +0.220 C 
ENDROOT
BRANCH   6  11
ATOM     11  O   UNL     1      36.439 -22.697 -17.423  0.00  0.00    -0.470 OA
BRANCH  11  12
ATOM     12  C   UNL     1      36.607 -22.066 -16.149  0.00  0.00    +0.249 C 
BRANCH  12  13
ATOM     13  C   UNL     1      36.185 -23.039 -15.056  0.00  0.00    +0.212 C 
ATOM     14  C   UNL     1      34.671 -23.111 -14.928  0.00  0.00    +0.051 C 
BRANCH  13  15
ATOM     15  O   UNL     1      36.682 -24.333 -15.392  0.00  0.00    -0.450 OA
BRANCH  15  17
ATOM     16  O   UNL     1      38.636 -24.739 -14.239  0.00  0.00    -0.252 OA
ATOM     17  C   UNL     1      37.445 -24.946 -14.433  0.00  0.00    +0.296 C 
BRANCH  17  18
ATOM     18  C   UNL     1      36.584 -25.922 -13.654  0.00  0.00    +0.036 C 
ATOM     19  C   UNL     1      37.381 -26.559 -12.524  0.00  0.00    -0.013 C 
BRANCH  18  20
ATOM     20  N   UNL     1      36.123 -26.958 -14.577  0.00  0.00    +0.389 N 
ATOM     21  H   UNL     1      35.691 -26.521 -15.390  0.00  0.00    -0.088 HD
ATOM     22  H   UNL     1      35.439 -27.552 -14.106  0.00  0.00    -0.088 HD
ATOM     23  H   UNL     1      36.916 -27.525 -14.876  0.00  0.00    -0.088 HD
ENDBRANCH  18  20
ENDBRANCH  17  18
ENDBRANCH  15  17
ENDBRANCH  13  15
ENDBRANCH  12  13
ENDBRANCH  11  12
ENDBRANCH   6  11
BRANCH   8  24
ATOM     24  O   UNL     1      35.646 -19.234 -21.640  0.00  0.00    -0.433 OA
BRANCH  24  29
ATOM     25  F   UNL     1      35.410 -16.796 -20.398  0.00  0.00    -0.201 F 
ATOM     26  N   UNL     1      33.913 -14.735 -24.249  0.00  0.00    -0.316 N 
ATOM     27  C   UNL     1      34.641 -15.797 -22.426  0.00  0.00    +0.045 C 
ATOM     28  C   UNL     1      34.322 -15.962 -23.777  0.00  0.00    +0.050 C 
ATOM     29  C   UNL     1      35.210 -18.150 -22.340  0.00  0.00    +0.175 C 
ATOM     30  C   UNL     1      33.961 -13.803 -23.247  0.00  0.00    +0.026 C 
ATOM     31  C   UNL     1      35.093 -16.912 -21.695  0.00  0.00    +0.176 C 
ATOM     32  C   UNL     1      34.409 -14.430 -22.107  0.00  0.00    +0.014 C 
ATOM     33  C   UNL     1      34.434 -17.192 -24.434  0.00  0.00    +0.018 C 
ATOM     34  C   UNL     1      34.886 -18.285 -23.688  0.00  0.00    +0.041 C 
ATOM     35  C   UNL     1      33.573 -12.401 -23.486  0.00  0.00    +0.047 C 
ATOM     36  H   UNL     1      33.626 -14.555 -25.174  0.00  0.00    +0.152 HD
ENDBRANCH  24  29
ENDBRANCH   8  24
TORSDOF 9
ENDMDL
MODEL 6
REMARK VINA RESULT:     -10.0      5.851     10.390
REMARK  Name = 11154925
REMARK  9 active torsions:
REMARK  status: ('A' for Active; 'I' for Inactive)
REMARK    1  A    between atoms: C_6  and  O_11
REMARK    2  A    between atoms: C_8  and  O_24
REMARK    3  A    between atoms: O_11  and  C_12
REMARK    4  A    between atoms: C_12  and  C_13
REMARK    5  A    between atoms: C_13  and  O_15
REMARK    6  A    between atoms: O_15  and  C_17
REMARK    7  A    between atoms: C_17  and  C_18
REMARK    8  A    between atoms: C_18  and  N_20
REMARK    9  A    between atoms: O_24  and  C_29
REMARK                            x       y       z     vdW  Elec       q    Type
REMARK                         _______ _______ _______ _____ _____    ______ ____
ROOT
ATOM      1  N   UNL     1      35.831 -22.862 -15.151  0.00  0.00    -0.180 N 
ATOM      2  N   UNL     1      37.040 -22.255 -14.987  0.00  0.00    -0.151 NA
ATOM      3  N   UNL     1      36.993 -21.791 -17.359  0.00  0.00    -0.187 NA
ATOM      4  C   UNL     1      35.185 -22.954 -16.357  0.00  0.00    +0.126 C 
ATOM      5  C   UNL     1      33.998 -23.622 -16.166  0.00  0.00    +0.034 C 
ATOM      6  C   UNL     1      33.926 -23.946 -14.786  0.00  0.00    +0.153 C 
ATOM      7  C   UNL     1      35.071 -23.464 -14.183  0.00  0.00    +0.126 C 
ATOM      8  C   UNL     1      35.845 -22.374 -17.474  0.00  0.00    +0.247 C 
ATOM      9  C   UNL     1      32.961 -23.966 -17.160  0.00  0.00    +0.036 C 
ATOM     10  C   UNL     1      37.545 -21.762 -16.086  0.00  0.00    +0.220 C 
ENDROOT
BRANCH   6  11
ATOM     11  O   UNL     1      32.949 -24.597 -14.139  0.00  0.00    -0.470 OA
BRANCH  11  12
ATOM     12  C   UNL     1      31.773 -23.850 -13.809  0.00  0.00    +0.249 C 
BRANCH  12  13
ATOM     13  C   UNL     1      30.607 -24.373 -14.640  0.00  0.00    +0.212 C 
ATOM     14  C   UNL     1      29.894 -25.519 -13.939  0.00  0.00    +0.051 C 
BRANCH  13  15
ATOM     15  O   UNL     1      29.683 -23.304 -14.836  0.00  0.00    -0.450 OA
BRANCH  15  17
ATOM     16  O   UNL     1      30.398 -22.448 -16.852  0.00  0.00    -0.252 OA
ATOM     17  C   UNL     1      29.514 -22.894 -16.131  0.00  0.00    +0.296 C 
BRANCH  17  18
ATOM     18  C   UNL     1      28.062 -23.073 -16.530  0.00  0.00    +0.036 C 
ATOM     19  C   UNL     1      27.136 -22.606 -15.415  0.00  0.00    -0.013 C 
BRANCH  18  20
ATOM     20  N   UNL     1      27.835 -24.492 -16.798  0.00  0.00    +0.389 N 
ATOM     21  H   UNL     1      27.802 -25.003 -15.916  0.00  0.00    -0.088 HD
ATOM     22  H   UNL     1      28.596 -24.855 -17.373  0.00  0.00    -0.088 HD
ATOM     23  H   UNL     1      26.951 -24.608 -17.293  0.00  0.00    -0.088 HD
ENDBRANCH  18  20
ENDBRANCH  17  18
ENDBRANCH  15  17
ENDBRANCH  13  15
ENDBRANCH  12  13
ENDBRANCH  11  12
ENDBRANCH   6  11
BRANCH   8  24
ATOM     24  O   UNL     1      35.228 -22.452 -18.678  0.00  0.00    -0.433 OA
BRANCH  24  29
ATOM     25  F   UNL     1      33.334 -21.317 -20.310  0.00  0.00    -0.201 F 
ATOM     26  N   UNL     1      36.312 -18.203 -21.969  0.00  0.00    -0.316 N 
ATOM     27  C   UNL     1      34.928 -19.737 -21.124  0.00  0.00    +0.045 C 
ATOM     28  C   UNL     1      36.240 -19.256 -21.085  0.00  0.00    +0.050 C 
ATOM     29  C   UNL     1      35.556 -21.396 -19.474  0.00  0.00    +0.175 C 
ATOM     30  C   UNL     1      35.095 -18.002 -22.563  0.00  0.00    +0.026 C 
ATOM     31  C   UNL     1      34.581 -20.827 -20.303  0.00  0.00    +0.176 C 
ATOM     32  C   UNL     1      34.219 -18.935 -22.060  0.00  0.00    +0.014 C 
ATOM     33  C   UNL     1      37.224 -19.815 -20.262  0.00  0.00    +0.018 C 
ATOM     34  C   UNL     1      36.856 -20.896 -19.455  0.00  0.00    +0.041 C 
ATOM     35  C   UNL     1      34.896 -16.930 -23.557  0.00  0.00    +0.047 C 
ATOM     36  H   UNL     1      37.122 -17.672 -22.147  0.00  0.00    +0.152 HD
ENDBRANCH  24  29
ENDBRANCH   8  24
TORSDOF 9
ENDMDL
MODEL 7
REMARK VINA RESULT:      -9.8      3.715     10.755
REMARK  Name = 11154925
REMARK  9 active torsions:
REMARK  status: ('A' for Active; 'I' for Inactive)
REMARK    1  A    between atoms: C_6  and  O_11
REMARK    2  A    between atoms: C_8  and  O_24
REMARK    3  A    between atoms: O_11  and  C_12
REMARK    4  A    between atoms: C_12  and  C_13
REMARK    5  A    between atoms: C_13  and  O_15
REMARK    6  A    between atoms: O_15  and  C_17
REMARK    7  A    between atoms: C_17  and  C_18
REMARK    8  A    between atoms: C_18  and  N_20
REMARK    9  A    between atoms: O_24  and  C_29
REMARK                            x       y       z     vdW  Elec       q    Type
REMARK                         _______ _______ _______ _____ _____    ______ ____
ROOT
ATOM      1  N   UNL     1      31.798 -10.007 -21.375  0.00  0.00    -0.180 N 
ATOM      2  N   UNL     1      30.931 -10.940 -20.890  0.00  0.00    -0.151 NA
ATOM      3  N   UNL     1      31.986 -12.521 -22.384  0.00  0.00    -0.187 NA
ATOM      4  C   UNL     1      32.744 -10.274 -22.331  0.00  0.00    +0.126 C 
ATOM      5  C   UNL     1      33.443  -9.117 -22.587  0.00  0.00    +0.034 C 
ATOM      6  C   UNL     1      32.894  -8.111 -21.750  0.00  0.00    +0.153 C 
ATOM      7  C   UNL     1      31.880  -8.689 -21.012  0.00  0.00    +0.126 C 
ATOM      8  C   UNL     1      32.792 -11.608 -22.818  0.00  0.00    +0.247 C 
ATOM      9  C   UNL     1      34.555  -8.900 -23.535  0.00  0.00    +0.036 C 
ATOM     10  C   UNL     1      31.073 -12.127 -21.416  0.00  0.00    +0.220 C 
ENDROOT
BRANCH   6  11
ATOM     11  O   UNL     1      33.257  -6.824 -21.656  0.00  0.00    -0.470 OA
BRANCH  11  12
ATOM     12  C   UNL     1      32.309  -5.917 -21.083  0.00  0.00    +0.249 C 
BRANCH  12  13
ATOM     13  C   UNL     1      31.742  -5.033 -22.187  0.00  0.00    +0.212 C 
ATOM     14  C   UNL     1      31.576  -3.595 -21.720  0.00  0.00    +0.051 C 
BRANCH  13  15
ATOM     15  O   UNL     1      32.646  -5.059 -23.291  0.00  0.00    -0.450 OA
BRANCH  15  17
ATOM     16  O   UNL     1      31.194  -6.407 -24.466  0.00  0.00    -0.252 OA
ATOM     17  C   UNL     1      32.207  -5.722 -24.405  0.00  0.00    +0.296 C 
BRANCH  17  18
ATOM     18  C   UNL     1      33.174  -5.480 -25.548  0.00  0.00    +0.036 C 
ATOM     19  C   UNL     1      34.613  -5.513 -25.050  0.00  0.00    -0.013 C 
BRANCH  18  20
ATOM     20  N   UNL     1      32.881  -4.169 -26.123  0.00  0.00    +0.389 N 
ATOM     21  H   UNL     1      32.214  -3.679 -25.528  0.00  0.00    -0.088 HD
ATOM     22  H   UNL     1      32.482  -4.288 -27.054  0.00  0.00    -0.088 HD
ATOM     23  H   UNL     1      33.741  -3.626 -26.189  0.00  0.00    -0.088 HD
ENDBRANCH  18  20
ENDBRANCH  17  18
ENDBRANCH  15  17
ENDBRANCH  13  15
ENDBRANCH  12  13
ENDBRANCH  11  12
ENDBRANCH   6  11
BRANCH   8  24
ATOM     24  O   UNL     1      33.718 -11.898 -23.763  0.00  0.00    -0.433 OA
BRANCH  24  29
ATOM     25  F   UNL     1      34.900 -13.464 -21.842  0.00  0.00    -0.201 F 
ATOM     26  N   UNL     1      34.293 -17.324 -24.303  0.00  0.00    -0.316 N 
ATOM     27  C   UNL     1      34.554 -15.419 -23.170  0.00  0.00    +0.045 C 
ATOM     28  C   UNL     1      34.058 -15.968 -24.355  0.00  0.00    +0.050 C 
ATOM     29  C   UNL     1      33.833 -13.242 -23.952  0.00  0.00    +0.175 C 
ATOM     30  C   UNL     1      34.919 -17.649 -23.129  0.00  0.00    +0.026 C 
ATOM     31  C   UNL     1      34.438 -14.030 -22.965  0.00  0.00    +0.176 C 
ATOM     32  C   UNL     1      35.093 -16.491 -22.407  0.00  0.00    +0.014 C 
ATOM     33  C   UNL     1      33.451 -15.193 -25.350  0.00  0.00    +0.018 C 
ATOM     34  C   UNL     1      33.347 -13.817 -25.125  0.00  0.00    +0.041 C 
ATOM     35  C   UNL     1      35.287 -19.043 -22.819  0.00  0.00    +0.047 C 
ATOM     36  H   UNL     1      34.048 -17.965 -25.008  0.00  0.00    +0.152 HD
ENDBRANCH  24  29
ENDBRANCH   8  24
TORSDOF 9
ENDMDL
MODEL 8
REMARK VINA RESULT:      -9.8      3.447      6.291
REMARK  Name = 11154925
REMARK  9 active torsions:
REMARK  status: ('A' for Active; 'I' for Inactive)
REMARK    1  A    between atoms: C_6  and  O_11
REMARK    2  A    between atoms: C_8  and  O_24
REMARK    3  A    between atoms: O_11  and  C_12
REMARK    4  A    between atoms: C_12  and  C_13
REMARK    5  A    between atoms: C_13  and  O_15
REMARK    6  A    between atoms: O_15  and  C_17
REMARK    7  A    between atoms: C_17  and  C_18
REMARK    8  A    between atoms: C_18  and  N_20
REMARK    9  A    between atoms: O_24  and  C_29
REMARK                            x       y       z     vdW  Elec       q    Type
REMARK                         _______ _______ _______ _____ _____    ______ ____
ROOT
ATOM      1  N   UNL     1      31.514 -10.690 -20.345  0.00  0.00    -0.180 N 
ATOM      2  N   UNL     1      30.956 -10.404 -19.135  0.00  0.00    -0.151 NA
ATOM      3  N   UNL     1      32.134  -8.295 -19.227  0.00  0.00    -0.187 NA
ATOM      4  C   UNL     1      32.358  -9.840 -21.013  0.00  0.00    +0.126 C 
ATOM      5  C   UNL     1      32.733 -10.437 -22.194  0.00  0.00    +0.034 C 
ATOM      6  C   UNL     1      32.088 -11.700 -22.239  0.00  0.00    +0.153 C 
ATOM      7  C   UNL     1      31.341 -11.830 -21.085  0.00  0.00    +0.126 C 
ATOM      8  C   UNL     1      32.643  -8.603 -20.376  0.00  0.00    +0.247 C 
ATOM      9  C   UNL     1      33.628  -9.918 -23.248  0.00  0.00    +0.036 C 
ATOM     10  C   UNL     1      31.295  -9.238 -18.652  0.00  0.00    +0.220 C 
ENDROOT
BRANCH   6  11
ATOM     11  O   UNL     1      32.157 -12.631 -23.202  0.00  0.00    -0.470 OA
BRANCH  11  12
ATOM     12  C   UNL     1      33.113 -13.682 -23.028  0.00  0.00    +0.249 C 
BRANCH  12  13
ATOM     13  C   UNL     1      33.193 -14.495 -24.314  0.00  0.00    +0.212 C 
ATOM     14  C   UNL     1      33.365 -13.597 -25.530  0.00  0.00    +0.051 C 
BRANCH  13  15
ATOM     15  O   UNL     1      34.317 -15.368 -24.223  0.00  0.00    -0.450 OA
BRANCH  15  17
ATOM     16  O   UNL     1      33.217 -17.088 -25.291  0.00  0.00    -0.252 OA
ATOM     17  C   UNL     1      34.075 -16.684 -24.516  0.00  0.00    +0.296 C 
BRANCH  17  18
ATOM     18  C   UNL     1      35.031 -17.559 -23.729  0.00  0.00    +0.036 C 
ATOM     19  C   UNL     1      34.396 -18.908 -23.421  0.00  0.00    -0.013 C 
BRANCH  18  20
ATOM     20  N   UNL     1      35.356 -16.870 -22.482  0.00  0.00    +0.389 N 
ATOM     21  H   UNL     1      35.718 -15.940 -22.691  0.00  0.00    -0.088 HD
ATOM     22  H   UNL     1      36.063 -17.403 -21.974  0.00  0.00    -0.088 HD
ATOM     23  H   UNL     1      34.517 -16.788 -21.909  0.00  0.00    -0.088 HD
ENDBRANCH  18  20
ENDBRANCH  17  18
ENDBRANCH  15  17
ENDBRANCH  13  15
ENDBRANCH  12  13
ENDBRANCH  11  12
ENDBRANCH   6  11
BRANCH   8  24
ATOM     24  O   UNL     1      33.474  -7.744 -21.014  0.00  0.00    -0.433 OA
BRANCH  24  29
ATOM     25  F   UNL     1      34.546  -6.592 -23.265  0.00  0.00    -0.201 F 
ATOM     26  N   UNL     1      30.868  -3.871 -23.888  0.00  0.00    -0.316 N 
ATOM     27  C   UNL     1      32.612  -5.215 -23.524  0.00  0.00    +0.045 C 
ATOM     28  C   UNL     1      31.355  -4.842 -23.042  0.00  0.00    +0.050 C 
ATOM     29  C   UNL     1      32.779  -6.786 -21.688  0.00  0.00    +0.175 C 
ATOM     30  C   UNL     1      31.771  -3.618 -24.886  0.00  0.00    +0.026 C 
ATOM     31  C   UNL     1      33.337  -6.206 -22.834  0.00  0.00    +0.176 C 
ATOM     32  C   UNL     1      32.860  -4.435 -24.688  0.00  0.00    +0.014 C 
ATOM     33  C   UNL     1      30.786  -5.413 -21.899  0.00  0.00    +0.018 C 
ATOM     34  C   UNL     1      31.523  -6.395 -21.230  0.00  0.00    +0.041 C 
ATOM     35  C   UNL     1      31.496  -2.615 -25.931  0.00  0.00    +0.047 C 
ATOM     36  H   UNL     1      29.996  -3.423 -23.789  0.00  0.00    +0.152 HD
ENDBRANCH  24  29
ENDBRANCH   8  24
TORSDOF 9
ENDMDL
MODEL 9
REMARK VINA RESULT:      -9.6      4.689     10.591
REMARK  Name = 11154925
REMARK  9 active torsions:
REMARK  status: ('A' for Active; 'I' for Inactive)
REMARK    1  A    between atoms: C_6  and  O_11
REMARK    2  A    between atoms: C_8  and  O_24
REMARK    3  A    between atoms: O_11  and  C_12
REMARK    4  A    between atoms: C_12  and  C_13
REMARK    5  A    between atoms: C_13  and  O_15
REMARK    6  A    between atoms: O_15  and  C_17
REMARK    7  A    between atoms: C_17  and  C_18
REMARK    8  A    between atoms: C_18  and  N_20
REMARK    9  A    between atoms: O_24  and  C_29
REMARK                            x       y       z     vdW  Elec       q    Type
REMARK                         _______ _______ _______ _____ _____    ______ ____
ROOT
ATOM      1  N   UNL     1      32.232  -6.861 -21.132  0.00  0.00    -0.180 N 
ATOM      2  N   UNL     1      32.619  -7.070 -19.842  0.00  0.00    -0.151 NA
ATOM      3  N   UNL     1      31.958  -9.375 -20.144  0.00  0.00    -0.187 NA
ATOM      4  C   UNL     1      31.721  -7.844 -21.940  0.00  0.00    +0.126 C 
ATOM      5  C   UNL     1      31.436  -7.294 -23.168  0.00  0.00    +0.034 C 
ATOM      6  C   UNL     1      31.792  -5.922 -23.097  0.00  0.00    +0.153 C 
ATOM      7  C   UNL     1      32.281  -5.682 -21.828  0.00  0.00    +0.126 C 
ATOM      8  C   UNL     1      31.602  -9.138 -21.365  0.00  0.00    +0.247 C 
ATOM      9  C   UNL     1      30.871  -7.950 -24.365  0.00  0.00    +0.036 C 
ATOM     10  C   UNL     1      32.462  -8.299 -19.428  0.00  0.00    +0.220 C 
ENDROOT
BRANCH   6  11
ATOM     11  O   UNL     1      31.692  -4.991 -24.056  0.00  0.00    -0.470 OA
BRANCH  11  12
ATOM     12  C   UNL     1      32.844  -4.177 -24.300  0.00  0.00    +0.249 C 
BRANCH  12  13
ATOM     13  C   UNL     1      33.684  -4.824 -25.394  0.00  0.00    +0.212 C 
ATOM     14  C   UNL     1      34.404  -3.781 -26.234  0.00  0.00    +0.051 C 
BRANCH  13  15
ATOM     15  O   UNL     1      34.653  -5.668 -24.775  0.00  0.00    -0.450 OA
BRANCH  15  17
ATOM     16  O   UNL     1      34.876  -7.155 -26.521  0.00  0.00    -0.252 OA
ATOM     17  C   UNL     1      34.794  -6.915 -25.323  0.00  0.00    +0.296 C 
BRANCH  17  18
ATOM     18  C   UNL     1      34.828  -7.950 -24.215  0.00  0.00    +0.036 C 
ATOM     19  C   UNL     1      35.289  -7.322 -22.906  0.00  0.00    -0.013 C 
BRANCH  18  20
ATOM     20  N   UNL     1      35.757  -9.008 -24.609  0.00  0.00    +0.389 N 
ATOM     21  H   UNL     1      35.231  -9.823 -24.920  0.00  0.00    -0.088 HD
ATOM     22  H   UNL     1      36.339  -9.263 -23.810  0.00  0.00    -0.088 HD
ATOM     23  H   UNL     1      36.350  -8.675 -25.368  0.00  0.00    -0.088 HD
ENDBRANCH  18  20
ENDBRANCH  17  18
ENDBRANCH  15  17
ENDBRANCH  13  15
ENDBRANCH  12  13
ENDBRANCH  11  12
ENDBRANCH   6  11
BRANCH   8  24
ATOM     24  O   UNL     1      31.100 -10.127 -22.141  0.00  0.00    -0.433 OA
BRANCH  24  29
ATOM     25  F   UNL     1      31.101 -12.341 -20.516  0.00  0.00    -0.201 F 
ATOM     26  N   UNL     1      34.675 -14.240 -22.739  0.00  0.00    -0.316 N 
ATOM     27  C   UNL     1      32.952 -13.262 -21.712  0.00  0.00    +0.045 C 
ATOM     28  C   UNL     1      33.875 -13.120 -22.752  0.00  0.00    +0.050 C 
ATOM     29  C   UNL     1      32.013 -11.119 -22.338  0.00  0.00    +0.175 C 
ATOM     30  C   UNL     1      34.292 -15.083 -21.730  0.00  0.00    +0.026 C 
ATOM     31  C   UNL     1      32.004 -12.242 -21.502  0.00  0.00    +0.176 C 
ATOM     32  C   UNL     1      33.227 -14.505 -21.077  0.00  0.00    +0.014 C 
ATOM     33  C   UNL     1      33.895 -12.003 -23.594  0.00  0.00    +0.018 C 
ATOM     34  C   UNL     1      32.944 -11.004 -23.368  0.00  0.00    +0.041 C 
ATOM     35  C   UNL     1      34.988 -16.361 -21.495  0.00  0.00    +0.047 C 
ATOM     36  H   UNL     1      35.417 -14.409 -23.365  0.00  0.00    +0.152 HD
ENDBRANCH  24  29
ENDBRANCH   8  24
TORSDOF 9
ENDMDL
