MODEL 1
REMARK VINA RESULT:     -11.7      0.000      0.000
REMARK  Name = 6419789
REMARK  3 active torsions:
REMARK  status: ('A' for Active; 'I' for Inactive)
REMARK    1  A    between atoms: N_4  and  C_13
REMARK    2  A    between atoms: C_5  and  C_19
REMARK    3  A    between atoms: C_22  and  N_25
REMARK                            x       y       z     vdW  Elec       q    Type
REMARK                         _______ _______ _______ _____ _____    ______ ____
ROOT
ATOM      1  N   UNL     1      35.936 -23.471 -14.182  0.00  0.00    -0.164 N 
ATOM      2  N   UNL     1      34.873 -23.087 -16.304  0.00  0.00    -0.374 NA
ATOM      3  N   UNL     1      35.634 -23.866 -12.918  0.00  0.00    -0.174 NA
ATOM      4  N   UNL     1      36.152 -22.373 -18.113  0.00  0.00    -0.288 N 
ATOM      5  C   UNL     1      33.754 -23.854 -14.203  0.00  0.00    +0.134 C 
ATOM      6  C   UNL     1      34.807 -23.452 -14.994  0.00  0.00    +0.194 C 
ATOM      7  C   UNL     1      34.321 -24.093 -12.945  0.00  0.00    +0.104 C 
ATOM      8  C   UNL     1      36.046 -22.746 -16.791  0.00  0.00    +0.186 C 
ATOM      9  C   UNL     1      37.178 -23.112 -14.686  0.00  0.00    +0.096 C 
ATOM     10  C   UNL     1      37.304 -22.744 -15.964  0.00  0.00    +0.066 C 
ATOM     11  H   UNL     1      37.009 -22.561 -18.559  0.00  0.00    +0.155 HD
ENDROOT
BRANCH   4  13
ATOM     12 CL   UNL     1      34.978 -19.120 -21.903  0.00  0.00    -0.082 Cl
ATOM     13  C   UNL     1      35.170 -21.756 -18.882  0.00  0.00    +0.051 C 
ATOM     14  C   UNL     1      35.518 -20.847 -19.895  0.00  0.00    +0.026 C 
ATOM     15  C   UNL     1      33.811 -22.030 -18.661  0.00  0.00    +0.015 C 
ATOM     16  C   UNL     1      34.533 -20.230 -20.666  0.00  0.00    +0.059 C 
ATOM     17  C   UNL     1      32.826 -21.412 -19.433  0.00  0.00    +0.002 C 
ATOM     18  C   UNL     1      33.186 -20.512 -20.435  0.00  0.00    +0.011 C 
ENDBRANCH   4  13
BRANCH   5  19
ATOM     19  C   UNL     1      32.401 -23.973 -14.654  0.00  0.00    -0.008 C 
ATOM     20  C   UNL     1      31.543 -24.905 -14.067  0.00  0.00    +0.011 C 
ATOM     21  C   UNL     1      31.932 -23.156 -15.686  0.00  0.00    -0.003 C 
ATOM     22  C   UNL     1      30.224 -25.021 -14.507  0.00  0.00    +0.041 C 
ATOM     23  C   UNL     1      30.614 -23.271 -16.128  0.00  0.00    +0.001 C 
ATOM     24  C   UNL     1      29.760 -24.204 -15.539  0.00  0.00    +0.014 C 
BRANCH  22  25
ATOM     25  N   UNL     1      29.361 -25.964 -13.912  0.00  0.00    -0.357 N 
ATOM     26  H   UNL     1      29.243 -26.851 -14.323  0.00  0.00    +0.142 HD
ATOM     27  H   UNL     1      28.875 -25.734 -13.088  0.00  0.00    +0.142 HD
ENDBRANCH  22  25
ENDBRANCH   5  19
TORSDOF 3
ENDMDL
MODEL 2
REMARK VINA RESULT:     -11.0      2.328      5.881
REMARK  Name = 6419789
REMARK  3 active torsions:
REMARK  status: ('A' for Active; 'I' for Inactive)
REMARK    1  A    between atoms: N_4  and  C_13
REMARK    2  A    between atoms: C_5  and  C_19
REMARK    3  A    between atoms: C_22  and  N_25
REMARK                            x       y       z     vdW  Elec       q    Type
REMARK                         _______ _______ _______ _____ _____    ______ ____
ROOT
ATOM      1  N   UNL     1      36.757 -23.468 -14.225  0.00  0.00    -0.164 N 
ATOM      2  N   UNL     1      34.384 -23.353 -14.595  0.00  0.00    -0.374 NA
ATOM      3  N   UNL     1      37.929 -23.256 -14.878  0.00  0.00    -0.174 NA
ATOM      4  N   UNL     1      32.927 -23.907 -12.868  0.00  0.00    -0.288 N 
ATOM      5  C   UNL     1      36.172 -22.815 -16.259  0.00  0.00    +0.134 C 
ATOM      6  C   UNL     1      35.662 -23.207 -15.042  0.00  0.00    +0.194 C 
ATOM      7  C   UNL     1      37.562 -22.864 -16.098  0.00  0.00    +0.104 C 
ATOM      8  C   UNL     1      34.206 -23.751 -13.355  0.00  0.00    +0.186 C 
ATOM      9  C   UNL     1      36.579 -23.890 -12.915  0.00  0.00    +0.096 C 
ATOM     10  C   UNL     1      35.348 -24.051 -12.421  0.00  0.00    +0.066 C 
ATOM     11  H   UNL     1      32.799 -23.756 -11.903  0.00  0.00    +0.155 HD
ENDROOT
BRANCH   4  13
ATOM     12 CL   UNL     1      29.325 -22.544 -16.258  0.00  0.00    -0.082 Cl
ATOM     13  C   UNL     1      31.797 -24.257 -13.599  0.00  0.00    +0.051 C 
ATOM     14  C   UNL     1      31.188 -23.334 -14.467  0.00  0.00    +0.026 C 
ATOM     15  C   UNL     1      31.241 -25.542 -13.487  0.00  0.00    +0.015 C 
ATOM     16  C   UNL     1      30.056 -23.688 -15.201  0.00  0.00    +0.059 C 
ATOM     17  C   UNL     1      30.108 -25.894 -14.220  0.00  0.00    +0.002 C 
ATOM     18  C   UNL     1      29.515 -24.968 -15.077  0.00  0.00    +0.011 C 
ENDBRANCH   4  13
BRANCH   5  19
ATOM     19  C   UNL     1      35.376 -22.452 -17.392  0.00  0.00    -0.008 C 
ATOM     20  C   UNL     1      35.920 -21.668 -18.412  0.00  0.00    +0.011 C 
ATOM     21  C   UNL     1      34.050 -22.881 -17.483  0.00  0.00    -0.003 C 
ATOM     22  C   UNL     1      35.144 -21.315 -19.516  0.00  0.00    +0.041 C 
ATOM     23  C   UNL     1      33.272 -22.528 -18.586  0.00  0.00    +0.001 C 
ATOM     24  C   UNL     1      33.819 -21.745 -19.602  0.00  0.00    +0.014 C 
BRANCH  22  25
ATOM     25  N   UNL     1      35.696 -20.523 -20.544  0.00  0.00    -0.357 N 
ATOM     26  H   UNL     1      36.552 -20.779 -20.956  0.00  0.00    +0.142 HD
ATOM     27  H   UNL     1      35.226 -19.713 -20.847  0.00  0.00    +0.142 HD
ENDBRANCH  22  25
ENDBRANCH   5  19
TORSDOF 3
ENDMDL
MODEL 3
REMARK VINA RESULT:     -10.6      3.217      5.785
REMARK  Name = 6419789
REMARK  3 active torsions:
REMARK  status: ('A' for Active; 'I' for Inactive)
REMARK    1  A    between atoms: N_4  and  C_13
REMARK    2  A    between atoms: C_5  and  C_19
REMARK    3  A    between atoms: C_22  and  N_25
REMARK                            x       y       z     vdW  Elec       q    Type
REMARK                         _______ _______ _______ _____ _____    ______ ____
ROOT
ATOM      1  N   UNL     1      34.916 -22.414 -17.781  0.00  0.00    -0.164 N 
ATOM      2  N   UNL     1      35.316 -23.184 -15.539  0.00  0.00    -0.374 NA
ATOM      3  N   UNL     1      33.904 -22.283 -18.678  0.00  0.00    -0.174 NA
ATOM      4  N   UNL     1      37.464 -23.070 -14.655  0.00  0.00    -0.288 N 
ATOM      5  C   UNL     1      33.120 -23.185 -16.739  0.00  0.00    +0.134 C 
ATOM      6  C   UNL     1      34.470 -22.963 -16.583  0.00  0.00    +0.194 C 
ATOM      7  C   UNL     1      32.831 -22.750 -18.038  0.00  0.00    +0.104 C 
ATOM      8  C   UNL     1      36.581 -22.863 -15.691  0.00  0.00    +0.186 C 
ATOM      9  C   UNL     1      36.250 -22.072 -17.951  0.00  0.00    +0.096 C 
ATOM     10  C   UNL     1      37.126 -22.267 -16.961  0.00  0.00    +0.066 C 
ATOM     11  H   UNL     1      38.230 -22.455 -14.596  0.00  0.00    +0.155 HD
ENDROOT
BRANCH   4  13
ATOM     12 CL   UNL     1      35.750 -24.544 -10.049  0.00  0.00    -0.082 Cl
ATOM     13  C   UNL     1      37.386 -24.063 -13.683  0.00  0.00    +0.051 C 
ATOM     14  C   UNL     1      36.688 -23.839 -12.484  0.00  0.00    +0.026 C 
ATOM     15  C   UNL     1      38.001 -25.309 -13.881  0.00  0.00    +0.015 C 
ATOM     16  C   UNL     1      36.609 -24.836 -11.511  0.00  0.00    +0.059 C 
ATOM     17  C   UNL     1      37.923 -26.305 -12.907  0.00  0.00    +0.002 C 
ATOM     18  C   UNL     1      37.227 -26.069 -11.722  0.00  0.00    +0.011 C 
ENDBRANCH   4  13
BRANCH   5  19
ATOM     19  C   UNL     1      32.271 -23.745 -15.731  0.00  0.00    -0.008 C 
ATOM     20  C   UNL     1      30.889 -23.797 -15.926  0.00  0.00    +0.011 C 
ATOM     21  C   UNL     1      32.822 -24.244 -14.548  0.00  0.00    -0.003 C 
ATOM     22  C   UNL     1      30.062 -24.343 -14.944  0.00  0.00    +0.041 C 
ATOM     23  C   UNL     1      31.996 -24.790 -13.566  0.00  0.00    +0.001 C 
ATOM     24  C   UNL     1      30.616 -24.839 -13.763  0.00  0.00    +0.014 C 
BRANCH  22  25
ATOM     25  N   UNL     1      28.667 -24.392 -15.143  0.00  0.00    -0.357 N 
ATOM     26  H   UNL     1      28.304 -24.623 -16.029  0.00  0.00    +0.142 HD
ATOM     27  H   UNL     1      28.056 -24.196 -14.397  0.00  0.00    +0.142 HD
ENDBRANCH  22  25
ENDBRANCH   5  19
TORSDOF 3
ENDMDL
MODEL 4
REMARK VINA RESULT:     -10.4      3.103      6.918
REMARK  Name = 6419789
REMARK  3 active torsions:
REMARK  status: ('A' for Active; 'I' for Inactive)
REMARK    1  A    between atoms: N_4  and  C_13
REMARK    2  A    between atoms: C_5  and  C_19
REMARK    3  A    between atoms: C_22  and  N_25
REMARK                            x       y       z     vdW  Elec       q    Type
REMARK                         _______ _______ _______ _____ _____    ______ ____
ROOT
ATOM      1  N   UNL     1      31.453 -24.032 -15.025  0.00  0.00    -0.164 N 
ATOM      2  N   UNL     1      33.768 -24.304 -14.437  0.00  0.00    -0.374 NA
ATOM      3  N   UNL     1      30.678 -23.499 -16.005  0.00  0.00    -0.174 NA
ATOM      4  N   UNL     1      34.327 -25.406 -12.466  0.00  0.00    -0.288 N 
ATOM      5  C   UNL     1      32.881 -23.172 -16.483  0.00  0.00    +0.134 C 
ATOM      6  C   UNL     1      32.806 -23.849 -15.287  0.00  0.00    +0.194 C 
ATOM      7  C   UNL     1      31.549 -22.986 -16.874  0.00  0.00    +0.104 C 
ATOM      8  C   UNL     1      33.382 -24.930 -13.347  0.00  0.00    +0.186 C 
ATOM      9  C   UNL     1      31.035 -24.691 -13.877  0.00  0.00    +0.096 C 
ATOM     10  C   UNL     1      31.934 -25.159 -13.006  0.00  0.00    +0.066 C 
ATOM     11  H   UNL     1      34.086 -26.209 -11.949  0.00  0.00    +0.155 HD
ENDROOT
BRANCH   4  13
ATOM     12 CL   UNL     1      39.387 -25.616 -13.289  0.00  0.00    -0.082 Cl
ATOM     13  C   UNL     1      35.588 -24.868 -12.230  0.00  0.00    +0.051 C 
ATOM     14  C   UNL     1      36.733 -25.442 -12.808  0.00  0.00    +0.026 C 
ATOM     15  C   UNL     1      35.742 -23.739 -11.409  0.00  0.00    +0.015 C 
ATOM     16  C   UNL     1      37.997 -24.900 -12.572  0.00  0.00    +0.059 C 
ATOM     17  C   UNL     1      37.007 -23.199 -11.172  0.00  0.00    +0.002 C 
ATOM     18  C   UNL     1      38.134 -23.779 -11.753  0.00  0.00    +0.011 C 
ENDBRANCH   4  13
BRANCH   5  19
ATOM     19  C   UNL     1      34.103 -22.781 -17.118  0.00  0.00    -0.008 C 
ATOM     20  C   UNL     1      35.284 -22.697 -16.378  0.00  0.00    +0.011 C 
ATOM     21  C   UNL     1      34.119 -22.482 -18.483  0.00  0.00    -0.003 C 
ATOM     22  C   UNL     1      36.475 -22.316 -16.997  0.00  0.00    +0.041 C 
ATOM     23  C   UNL     1      35.309 -22.101 -19.103  0.00  0.00    +0.001 C 
ATOM     24  C   UNL     1      36.487 -22.017 -18.360  0.00  0.00    +0.014 C 
BRANCH  22  25
ATOM     25  N   UNL     1      37.666 -22.231 -16.246  0.00  0.00    -0.357 N 
ATOM     26  H   UNL     1      38.508 -22.575 -16.621  0.00  0.00    +0.142 HD
ATOM     27  H   UNL     1      37.653 -21.830 -15.348  0.00  0.00    +0.142 HD
ENDBRANCH  22  25
ENDBRANCH   5  19
TORSDOF 3
ENDMDL
MODEL 5
REMARK VINA RESULT:     -10.3      1.498      4.628
REMARK  Name = 6419789
REMARK  3 active torsions:
REMARK  status: ('A' for Active; 'I' for Inactive)
REMARK    1  A    between atoms: N_4  and  C_13
REMARK    2  A    between atoms: C_5  and  C_19
REMARK    3  A    between atoms: C_22  and  N_25
REMARK                            x       y       z     vdW  Elec       q    Type
REMARK                         _______ _______ _______ _____ _____    ______ ____
ROOT
ATOM      1  N   UNL     1      31.110 -24.726 -14.541  0.00  0.00    -0.164 N 
ATOM      2  N   UNL     1      32.607 -23.308 -15.777  0.00  0.00    -0.374 NA
ATOM      3  N   UNL     1      31.091 -25.517 -13.437  0.00  0.00    -0.174 NA
ATOM      4  N   UNL     1      31.842 -22.224 -17.689  0.00  0.00    -0.288 N 
ATOM      5  C   UNL     1      33.153 -24.587 -13.698  0.00  0.00    +0.134 C 
ATOM      6  C   UNL     1      32.358 -24.142 -14.730  0.00  0.00    +0.194 C 
ATOM      7  C   UNL     1      32.324 -25.423 -12.941  0.00  0.00    +0.104 C 
ATOM      8  C   UNL     1      31.627 -23.064 -16.619  0.00  0.00    +0.186 C 
ATOM      9  C   UNL     1      30.069 -24.476 -15.425  0.00  0.00    +0.096 C 
ATOM     10  C   UNL     1      30.255 -23.666 -16.471  0.00  0.00    +0.066 C 
ATOM     11  H   UNL     1      31.065 -21.713 -18.013  0.00  0.00    +0.155 HD
ENDROOT
BRANCH   4  13
ATOM     12 CL   UNL     1      34.379 -19.938 -21.518  0.00  0.00    -0.082 Cl
ATOM     13  C   UNL     1      33.044 -22.025 -18.359  0.00  0.00    +0.051 C 
ATOM     14  C   UNL     1      33.111 -21.179 -19.479  0.00  0.00    +0.026 C 
ATOM     15  C   UNL     1      34.218 -22.665 -17.929  0.00  0.00    +0.015 C 
ATOM     16  C   UNL     1      34.318 -20.978 -20.149  0.00  0.00    +0.059 C 
ATOM     17  C   UNL     1      35.425 -22.465 -18.600  0.00  0.00    +0.002 C 
ATOM     18  C   UNL     1      35.475 -21.622 -19.709  0.00  0.00    +0.011 C 
ENDBRANCH   4  13
BRANCH   5  19
ATOM     19  C   UNL     1      34.525 -24.220 -13.517  0.00  0.00    -0.008 C 
ATOM     20  C   UNL     1      35.354 -24.031 -14.625  0.00  0.00    +0.011 C 
ATOM     21  C   UNL     1      35.041 -24.051 -12.230  0.00  0.00    -0.003 C 
ATOM     22  C   UNL     1      36.691 -23.674 -14.448  0.00  0.00    +0.041 C 
ATOM     23  C   UNL     1      36.378 -23.694 -12.052  0.00  0.00    +0.001 C 
ATOM     24  C   UNL     1      37.203 -23.506 -13.160  0.00  0.00    +0.014 C 
BRANCH  22  25
ATOM     25  N   UNL     1      37.526 -23.484 -15.568  0.00  0.00    -0.357 N 
ATOM     26  H   UNL     1      37.892 -22.591 -15.763  0.00  0.00    +0.142 HD
ATOM     27  H   UNL     1      37.742 -24.244 -16.155  0.00  0.00    +0.142 HD
ENDBRANCH  22  25
ENDBRANCH   5  19
TORSDOF 3
ENDMDL
MODEL 6
REMARK VINA RESULT:     -10.0      3.157      6.502
REMARK  Name = 6419789
REMARK  3 active torsions:
REMARK  status: ('A' for Active; 'I' for Inactive)
REMARK    1  A    between atoms: N_4  and  C_13
REMARK    2  A    between atoms: C_5  and  C_19
REMARK    3  A    between atoms: C_22  and  N_25
REMARK                            x       y       z     vdW  Elec       q    Type
REMARK                         _______ _______ _______ _____ _____    ______ ____
ROOT
ATOM      1  N   UNL     1      35.607 -22.174 -17.872  0.00  0.00    -0.164 N 
ATOM      2  N   UNL     1      34.236 -23.428 -16.346  0.00  0.00    -0.374 NA
ATOM      3  N   UNL     1      36.883 -21.729 -18.008  0.00  0.00    -0.174 NA
ATOM      4  N   UNL     1      31.996 -23.793 -16.854  0.00  0.00    -0.288 N 
ATOM      5  C   UNL     1      36.662 -22.887 -16.060  0.00  0.00    +0.134 C 
ATOM      6  C   UNL     1      35.438 -22.887 -16.690  0.00  0.00    +0.194 C 
ATOM      7  C   UNL     1      37.505 -22.165 -16.913  0.00  0.00    +0.104 C 
ATOM      8  C   UNL     1      33.225 -23.258 -17.168  0.00  0.00    +0.186 C 
ATOM      9  C   UNL     1      34.545 -21.989 -18.746  0.00  0.00    +0.096 C 
ATOM     10  C   UNL     1      33.343 -22.497 -18.461  0.00  0.00    +0.066 C 
ATOM     11  H   UNL     1      31.420 -24.055 -17.609  0.00  0.00    +0.155 HD
ENDROOT
BRANCH   4  13
ATOM     12 CL   UNL     1      28.652 -26.257 -13.841  0.00  0.00    -0.082 Cl
ATOM     13  C   UNL     1      31.483 -24.002 -15.578  0.00  0.00    +0.051 C 
ATOM     14  C   UNL     1      30.441 -24.920 -15.364  0.00  0.00    +0.026 C 
ATOM     15  C   UNL     1      31.997 -23.298 -14.477  0.00  0.00    +0.015 C 
ATOM     16  C   UNL     1      29.928 -25.128 -14.083  0.00  0.00    +0.059 C 
ATOM     17  C   UNL     1      31.483 -23.506 -13.196  0.00  0.00    +0.002 C 
ATOM     18  C   UNL     1      30.449 -24.421 -12.999  0.00  0.00    +0.011 C 
ENDBRANCH   4  13
BRANCH   5  19
ATOM     19  C   UNL     1      36.925 -23.518 -14.801  0.00  0.00    -0.008 C 
ATOM     20  C   UNL     1      37.917 -24.495 -14.699  0.00  0.00    +0.011 C 
ATOM     21  C   UNL     1      36.189 -23.158 -13.670  0.00  0.00    -0.003 C 
ATOM     22  C   UNL     1      38.173 -25.110 -13.473  0.00  0.00    +0.041 C 
ATOM     23  C   UNL     1      36.443 -23.772 -12.444  0.00  0.00    +0.001 C 
ATOM     24  C   UNL     1      37.435 -24.748 -12.345  0.00  0.00    +0.014 C 
BRANCH  22  25
ATOM     25  N   UNL     1      39.175 -26.097 -13.372  0.00  0.00    -0.357 N 
ATOM     26  H   UNL     1      40.085 -25.908 -13.699  0.00  0.00    +0.142 HD
ATOM     27  H   UNL     1      38.965 -26.973 -12.977  0.00  0.00    +0.142 HD
ENDBRANCH  22  25
ENDBRANCH   5  19
TORSDOF 3
ENDMDL
MODEL 7
REMARK VINA RESULT:      -9.9      2.534      6.486
REMARK  Name = 6419789
REMARK  3 active torsions:
REMARK  status: ('A' for Active; 'I' for Inactive)
REMARK    1  A    between atoms: N_4  and  C_13
REMARK    2  A    between atoms: C_5  and  C_19
REMARK    3  A    between atoms: C_22  and  N_25
REMARK                            x       y       z     vdW  Elec       q    Type
REMARK                         _______ _______ _______ _____ _____    ______ ____
ROOT
ATOM      1  N   UNL     1      30.454 -24.127 -14.841  0.00  0.00    -0.164 N 
ATOM      2  N   UNL     1      32.845 -24.223 -14.602  0.00  0.00    -0.374 NA
ATOM      3  N   UNL     1      29.506 -23.682 -15.705  0.00  0.00    -0.174 NA
ATOM      4  N   UNL     1      33.769 -25.216 -12.712  0.00  0.00    -0.288 N 
ATOM      5  C   UNL     1      31.584 -23.225 -16.518  0.00  0.00    +0.134 C 
ATOM      6  C   UNL     1      31.737 -23.863 -15.309  0.00  0.00    +0.194 C 
ATOM      7  C   UNL     1      30.199 -23.142 -16.708  0.00  0.00    +0.104 C 
ATOM      8  C   UNL     1      32.672 -24.835 -13.452  0.00  0.00    +0.186 C 
ATOM      9  C   UNL     1      30.261 -24.772 -13.627  0.00  0.00    +0.096 C 
ATOM     10  C   UNL     1      31.310 -25.148 -12.891  0.00  0.00    +0.066 C 
ATOM     11  H   UNL     1      33.665 -26.014 -12.145  0.00  0.00    +0.155 HD
ENDROOT
BRANCH   4  13
ATOM     12 CL   UNL     1      37.846 -23.481 -15.298  0.00  0.00    -0.082 Cl
ATOM     13  C   UNL     1      35.009 -24.587 -12.683  0.00  0.00    +0.051 C 
ATOM     14  C   UNL     1      35.732 -24.370 -13.868  0.00  0.00    +0.026 C 
ATOM     15  C   UNL     1      35.564 -24.155 -11.467  0.00  0.00    +0.015 C 
ATOM     16  C   UNL     1      36.976 -23.738 -13.837  0.00  0.00    +0.059 C 
ATOM     17  C   UNL     1      36.808 -23.524 -11.437  0.00  0.00    +0.002 C 
ATOM     18  C   UNL     1      37.514 -23.315 -12.621  0.00  0.00    +0.011 C 
ENDBRANCH   4  13
BRANCH   5  19
ATOM     19  C   UNL     1      32.667 -22.775 -17.340  0.00  0.00    -0.008 C 
ATOM     20  C   UNL     1      32.420 -21.954 -18.442  0.00  0.00    +0.011 C 
ATOM     21  C   UNL     1      33.977 -23.158 -17.042  0.00  0.00    -0.003 C 
ATOM     22  C   UNL     1      33.476 -21.517 -19.243  0.00  0.00    +0.041 C 
ATOM     23  C   UNL     1      35.034 -22.721 -17.842  0.00  0.00    +0.001 C 
ATOM     24  C   UNL     1      34.783 -21.902 -18.942  0.00  0.00    +0.014 C 
BRANCH  22  25
ATOM     25  N   UNL     1      33.223 -20.689 -20.355  0.00  0.00    -0.357 N 
ATOM     26  H   UNL     1      33.822 -20.718 -21.136  0.00  0.00    +0.142 HD
ATOM     27  H   UNL     1      32.448 -20.081 -20.350  0.00  0.00    +0.142 HD
ENDBRANCH  22  25
ENDBRANCH   5  19
TORSDOF 3
ENDMDL
MODEL 8
REMARK VINA RESULT:      -9.7      3.016      5.865
REMARK  Name = 6419789
REMARK  3 active torsions:
REMARK  status: ('A' for Active; 'I' for Inactive)
REMARK    1  A    between atoms: N_4  and  C_13
REMARK    2  A    between atoms: C_5  and  C_19
REMARK    3  A    between atoms: C_22  and  N_25
REMARK                            x       y       z     vdW  Elec       q    Type
REMARK                         _______ _______ _______ _____ _____    ______ ____
ROOT
ATOM      1  N   UNL     1      36.045 -22.237 -17.537  0.00  0.00    -0.164 N 
ATOM      2  N   UNL     1      34.188 -23.320 -16.461  0.00  0.00    -0.374 NA
ATOM      3  N   UNL     1      37.363 -21.978 -17.339  0.00  0.00    -0.174 NA
ATOM      4  N   UNL     1      32.110 -23.343 -17.507  0.00  0.00    -0.288 N 
ATOM      5  C   UNL     1      36.521 -23.145 -15.574  0.00  0.00    +0.134 C 
ATOM      6  C   UNL     1      35.499 -22.950 -16.476  0.00  0.00    +0.194 C 
ATOM      7  C   UNL     1      37.635 -22.530 -16.157  0.00  0.00    +0.104 C 
ATOM      8  C   UNL     1      33.440 -22.983 -17.487  0.00  0.00    +0.186 C 
ATOM      9  C   UNL     1      35.262 -21.875 -18.625  0.00  0.00    +0.096 C 
ATOM     10  C   UNL     1      33.970 -22.211 -18.666  0.00  0.00    +0.066 C 
ATOM     11  H   UNL     1      31.707 -23.497 -18.392  0.00  0.00    +0.155 HD
ENDROOT
BRANCH   4  13
ATOM     12 CL   UNL     1      31.338 -25.474 -12.904  0.00  0.00    -0.082 Cl
ATOM     13  C   UNL     1      31.279 -23.509 -16.405  0.00  0.00    +0.051 C 
ATOM     14  C   UNL     1      31.672 -24.317 -15.324  0.00  0.00    +0.026 C 
ATOM     15  C   UNL     1      30.028 -22.873 -16.349  0.00  0.00    +0.015 C 
ATOM     16  C   UNL     1      30.838 -24.482 -14.219  0.00  0.00    +0.059 C 
ATOM     17  C   UNL     1      29.194 -23.040 -15.243  0.00  0.00    +0.002 C 
ATOM     18  C   UNL     1      29.598 -23.844 -14.178  0.00  0.00    +0.011 C 
ENDBRANCH   4  13
BRANCH   5  19
ATOM     19  C   UNL     1      36.382 -23.842 -14.331  0.00  0.00    -0.008 C 
ATOM     20  C   UNL     1      37.323 -24.804 -13.956  0.00  0.00    +0.011 C 
ATOM     21  C   UNL     1      35.304 -23.563 -13.488  0.00  0.00    -0.003 C 
ATOM     22  C   UNL     1      37.188 -25.483 -12.745  0.00  0.00    +0.041 C 
ATOM     23  C   UNL     1      35.168 -24.242 -12.277  0.00  0.00    +0.001 C 
ATOM     24  C   UNL     1      36.109 -25.201 -11.905  0.00  0.00    +0.014 C 
BRANCH  22  25
ATOM     25  N   UNL     1      38.139 -26.454 -12.369  0.00  0.00    -0.357 N 
ATOM     26  H   UNL     1      38.098 -27.358 -12.757  0.00  0.00    +0.142 HD
ATOM     27  H   UNL     1      38.841 -26.228 -11.718  0.00  0.00    +0.142 HD
ENDBRANCH  22  25
ENDBRANCH   5  19
TORSDOF 3
ENDMDL
MODEL 9
REMARK VINA RESULT:      -9.7     11.372     15.108
REMARK  Name = 6419789
REMARK  3 active torsions:
REMARK  status: ('A' for Active; 'I' for Inactive)
REMARK    1  A    between atoms: N_4  and  C_13
REMARK    2  A    between atoms: C_5  and  C_19
REMARK    3  A    between atoms: C_22  and  N_25
REMARK                            x       y       z     vdW  Elec       q    Type
REMARK                         _______ _______ _______ _____ _____    ______ ____
ROOT
ATOM      1  N   UNL     1      31.955  -8.582 -19.555  0.00  0.00    -0.164 N 
ATOM      2  N   UNL     1      32.395 -10.139 -21.333  0.00  0.00    -0.374 NA
ATOM      3  N   UNL     1      32.206  -7.293 -19.207  0.00  0.00    -0.174 NA
ATOM      4  N   UNL     1      31.568 -12.309 -21.186  0.00  0.00    -0.288 N 
ATOM      5  C   UNL     1      33.152  -7.757 -21.226  0.00  0.00    +0.134 C 
ATOM      6  C   UNL     1      32.520  -8.898 -20.785  0.00  0.00    +0.194 C 
ATOM      7  C   UNL     1      32.925  -6.810 -20.220  0.00  0.00    +0.104 C 
ATOM      8  C   UNL     1      31.717 -11.044 -20.662  0.00  0.00    +0.186 C 
ATOM      9  C   UNL     1      31.238  -9.530 -18.839  0.00  0.00    +0.096 C 
ATOM     10  C   UNL     1      31.082 -10.764 -19.326  0.00  0.00    +0.066 C 
ATOM     11  H   UNL     1      30.746 -12.794 -20.944  0.00  0.00    +0.155 HD
ENDROOT
BRANCH   4  13
ATOM     12 CL   UNL     1      34.932 -16.129 -21.831  0.00  0.00    -0.082 Cl
ATOM     13  C   UNL     1      32.460 -12.971 -22.022  0.00  0.00    +0.051 C 
ATOM     14  C   UNL     1      33.174 -14.093 -21.566  0.00  0.00    +0.026 C 
ATOM     15  C   UNL     1      32.666 -12.533 -23.340  0.00  0.00    +0.015 C 
ATOM     16  C   UNL     1      34.068 -14.757 -22.406  0.00  0.00    +0.059 C 
ATOM     17  C   UNL     1      33.561 -13.197 -24.180  0.00  0.00    +0.002 C 
ATOM     18  C   UNL     1      34.262 -14.309 -23.713  0.00  0.00    +0.011 C 
ENDBRANCH   4  13
BRANCH   5  19
ATOM     19  C   UNL     1      33.866  -7.653 -22.463  0.00  0.00    -0.008 C 
ATOM     20  C   UNL     1      34.604  -8.737 -22.942  0.00  0.00    +0.011 C 
ATOM     21  C   UNL     1      33.827  -6.464 -23.196  0.00  0.00    -0.003 C 
ATOM     22  C   UNL     1      35.300  -8.635 -24.147  0.00  0.00    +0.041 C 
ATOM     23  C   UNL     1      34.522  -6.361 -24.401  0.00  0.00    +0.001 C 
ATOM     24  C   UNL     1      35.259  -7.446 -24.876  0.00  0.00    +0.014 C 
BRANCH  22  25
ATOM     25  N   UNL     1      36.045  -9.731 -24.628  0.00  0.00    -0.357 N 
ATOM     26  H   UNL     1      37.001  -9.809 -24.410  0.00  0.00    +0.142 HD
ATOM     27  H   UNL     1      35.608 -10.416 -25.183  0.00  0.00    +0.142 HD
ENDBRANCH  22  25
ENDBRANCH   5  19
TORSDOF 3
ENDMDL
