MODEL 1
REMARK VINA RESULT:     -11.4      0.000      0.000
REMARK  Name = 57336276
REMARK  5 active torsions:
REMARK  status: ('A' for Active; 'I' for Inactive)
REMARK    1  A    between atoms: C_2  and  C_16
REMARK    2  A    between atoms: C_6  and  O_17
REMARK    3  A    between atoms: O_17  and  C_18
REMARK    4  A    between atoms: C_18  and  C_21
REMARK    5  A    between atoms: C_22  and  C_26
REMARK                            x       y       z     vdW  Elec       q    Type
REMARK                         _______ _______ _______ _____ _____    ______ ____
ROOT
ATOM      1  N   UNL     1      34.041 -11.898 -24.157  0.00  0.00    -0.210 NA
ATOM      2  C   UNL     1      33.528 -14.253 -23.973  0.00  0.00    +0.073 C 
ATOM      3  C   UNL     1      32.697 -13.994 -22.889  0.00  0.00    +0.011 C 
ATOM      4  C   UNL     1      34.172 -13.179 -24.567  0.00  0.00    +0.107 C 
ATOM      5  C   UNL     1      32.536 -12.688 -22.438  0.00  0.00    +0.058 C 
ATOM      6  C   UNL     1      33.225 -11.685 -23.101  0.00  0.00    +0.225 C 
ENDROOT
BRANCH   2  16
ATOM      7  S   UNL     1      35.229 -18.519 -21.649  0.00  0.00    -0.007 S 
ATOM      8  O   UNL     1      34.470 -19.147 -20.585  0.00  0.00    -0.173 OA
ATOM      9  O   UNL     1      36.621 -18.861 -21.871  0.00  0.00    -0.173 OA
ATOM     10  O   UNL     1      33.008 -15.955 -25.418  0.00  0.00    -0.270 OA
ATOM     11  N   UNL     1      34.669 -16.425 -23.840  0.00  0.00    -0.272 N 
ATOM     12  C   UNL     1      34.343 -18.772 -23.178  0.00  0.00    +0.172 C 
ATOM     13  C   UNL     1      35.115 -16.750 -21.436  0.00  0.00    +0.172 C 
ATOM     14  C   UNL     1      34.826 -17.819 -24.262  0.00  0.00    +0.119 C 
ATOM     15  C   UNL     1      35.514 -16.015 -22.707  0.00  0.00    +0.119 C 
ATOM     16  C   UNL     1      33.718 -15.620 -24.472  0.00  0.00    +0.251 C 
ENDBRANCH   2  16
BRANCH   6  17
ATOM     17  O   UNL     1      33.082 -10.390 -22.676  0.00  0.00    -0.455 OA
BRANCH  17  18
ATOM     18  C   UNL     1      31.868 -10.064 -22.011  0.00  0.00    +0.238 C 
BRANCH  18  21
ATOM     19  O   UNL     1      32.287  -8.248 -18.828  0.00  0.00    -0.358 OA
ATOM     20  N   UNL     1      32.934  -7.358 -19.675  0.00  0.00    -0.078 NA
ATOM     21  C   UNL     1      32.169  -9.140 -20.868  0.00  0.00    +0.075 A 
ATOM     22  C   UNL     1      32.851  -7.911 -20.888  0.00  0.00    +0.122 A 
ATOM     23  C   UNL     1      31.835  -9.305 -19.549  0.00  0.00    +0.154 A 
ATOM     24  C   UNL     1      31.121 -10.349 -18.801  0.00  0.00    +0.075 C 
BRANCH  22  26
ATOM     25  F   UNL     1      35.076  -5.353 -25.305  0.00  0.00    -0.204 F 
ATOM     26  C   UNL     1      33.426  -7.250 -22.029  0.00  0.00    +0.021 C 
ATOM     27  C   UNL     1      32.697  -6.276 -22.711  0.00  0.00    +0.004 C 
ATOM     28  C   UNL     1      34.712  -7.584 -22.455  0.00  0.00    +0.004 C 
ATOM     29  C   UNL     1      33.255  -5.634 -23.817  0.00  0.00    +0.030 C 
ATOM     30  C   UNL     1      35.269  -6.943 -23.562  0.00  0.00    +0.030 C 
ATOM     31  C   UNL     1      34.541  -5.969 -24.243  0.00  0.00    +0.140 C 
ENDBRANCH  22  26
ENDBRANCH  18  21
ENDBRANCH  17  18
ENDBRANCH   6  17
TORSDOF 5
ENDMDL
MODEL 2
REMARK VINA RESULT:     -11.4      4.343      9.913
REMARK  Name = 57336276
REMARK  5 active torsions:
REMARK  status: ('A' for Active; 'I' for Inactive)
REMARK    1  A    between atoms: C_2  and  C_16
REMARK    2  A    between atoms: C_6  and  O_17
REMARK    3  A    between atoms: O_17  and  C_18
REMARK    4  A    between atoms: C_18  and  C_21
REMARK    5  A    between atoms: C_22  and  C_26
REMARK                            x       y       z     vdW  Elec       q    Type
REMARK                         _______ _______ _______ _____ _____    ______ ____
ROOT
ATOM      1  N   UNL     1      33.729 -13.384 -22.783  0.00  0.00    -0.210 NA
ATOM      2  C   UNL     1      32.052 -11.872 -21.919  0.00  0.00    +0.073 C 
ATOM      3  C   UNL     1      31.909 -12.667 -20.787  0.00  0.00    +0.011 C 
ATOM      4  C   UNL     1      32.968 -12.271 -22.880  0.00  0.00    +0.107 C 
ATOM      5  C   UNL     1      32.676 -13.819 -20.651  0.00  0.00    +0.058 C 
ATOM      6  C   UNL     1      33.563 -14.131 -21.669  0.00  0.00    +0.225 C 
ENDROOT
BRANCH   2  16
ATOM      7  S   UNL     1      33.238  -7.306 -23.976  0.00  0.00    -0.007 S 
ATOM      8  O   UNL     1      33.521  -7.172 -25.391  0.00  0.00    -0.173 OA
ATOM      9  O   UNL     1      33.594  -6.253 -23.044  0.00  0.00    -0.173 OA
ATOM     10  O   UNL     1      30.040 -10.802 -22.168  0.00  0.00    -0.270 OA
ATOM     11  N   UNL     1      31.936  -9.431 -22.163  0.00  0.00    -0.272 N 
ATOM     12  C   UNL     1      31.494  -7.644 -23.795  0.00  0.00    +0.172 C 
ATOM     13  C   UNL     1      33.977  -8.829 -23.409  0.00  0.00    +0.172 C 
ATOM     14  C   UNL     1      31.178  -8.201 -22.415  0.00  0.00    +0.119 C 
ATOM     15  C   UNL     1      33.394  -9.260 -22.071  0.00  0.00    +0.119 C 
ATOM     16  C   UNL     1      31.258 -10.650 -22.091  0.00  0.00    +0.251 C 
ENDBRANCH   2  16
BRANCH   6  17
ATOM     17  O   UNL     1      34.329 -15.262 -21.558  0.00  0.00    -0.455 OA
BRANCH  17  18
ATOM     18  C   UNL     1      35.212 -15.545 -22.637  0.00  0.00    +0.238 C 
BRANCH  18  21
ATOM     19  O   UNL     1      33.503 -17.596 -25.182  0.00  0.00    -0.358 OA
ATOM     20  N   UNL     1      33.925 -18.609 -24.331  0.00  0.00    -0.078 NA
ATOM     21  C   UNL     1      34.591 -16.590 -23.517  0.00  0.00    +0.075 A 
ATOM     22  C   UNL     1      34.572 -17.985 -23.343  0.00  0.00    +0.122 A 
ATOM     23  C   UNL     1      33.905 -16.398 -24.687  0.00  0.00    +0.154 A 
ATOM     24  C   UNL     1      33.538 -15.210 -25.471  0.00  0.00    +0.075 C 
BRANCH  22  26
ATOM     25  F   UNL     1      36.822 -20.905 -19.171  0.00  0.00    -0.204 F 
ATOM     26  C   UNL     1      35.153 -18.739 -22.265  0.00  0.00    +0.021 C 
ATOM     27  C   UNL     1      36.476 -18.509 -21.887  0.00  0.00    +0.004 C 
ATOM     28  C   UNL     1      34.395 -19.702 -21.598  0.00  0.00    +0.004 C 
ATOM     29  C   UNL     1      37.039 -19.240 -20.841  0.00  0.00    +0.030 C 
ATOM     30  C   UNL     1      34.959 -20.433 -20.553  0.00  0.00    +0.030 C 
ATOM     31  C   UNL     1      36.281 -20.203 -20.175  0.00  0.00    +0.140 C 
ENDBRANCH  22  26
ENDBRANCH  18  21
ENDBRANCH  17  18
ENDBRANCH   6  17
TORSDOF 5
ENDMDL
MODEL 3
REMARK VINA RESULT:     -11.3      0.930      1.146
REMARK  Name = 57336276
REMARK  5 active torsions:
REMARK  status: ('A' for Active; 'I' for Inactive)
REMARK    1  A    between atoms: C_2  and  C_16
REMARK    2  A    between atoms: C_6  and  O_17
REMARK    3  A    between atoms: O_17  and  C_18
REMARK    4  A    between atoms: C_18  and  C_21
REMARK    5  A    between atoms: C_22  and  C_26
REMARK                            x       y       z     vdW  Elec       q    Type
REMARK                         _______ _______ _______ _____ _____    ______ ____
ROOT
ATOM      1  N   UNL     1      31.959 -13.089 -21.730  0.00  0.00    -0.210 NA
ATOM      2  C   UNL     1      33.179 -14.047 -23.585  0.00  0.00    +0.073 C 
ATOM      3  C   UNL     1      33.565 -12.777 -23.995  0.00  0.00    +0.011 C 
ATOM      4  C   UNL     1      32.382 -14.149 -22.454  0.00  0.00    +0.107 C 
ATOM      5  C   UNL     1      33.150 -11.662 -23.274  0.00  0.00    +0.058 C 
ATOM      6  C   UNL     1      32.355 -11.871 -22.160  0.00  0.00    +0.225 C 
ENDROOT
BRANCH   2  16
ATOM      7  S   UNL     1      35.211 -18.497 -21.984  0.00  0.00    -0.007 S 
ATOM      8  O   UNL     1      34.445 -19.422 -21.172  0.00  0.00    -0.173 OA
ATOM      9  O   UNL     1      36.651 -18.624 -22.097  0.00  0.00    -0.173 OA
ATOM     10  O   UNL     1      33.037 -15.442 -25.398  0.00  0.00    -0.270 OA
ATOM     11  N   UNL     1      34.586 -16.054 -23.755  0.00  0.00    -0.272 N 
ATOM     12  C   UNL     1      34.519 -18.510 -23.630  0.00  0.00    +0.172 C 
ATOM     13  C   UNL     1      34.837 -16.841 -21.432  0.00  0.00    +0.172 C 
ATOM     14  C   UNL     1      34.970 -17.297 -24.429  0.00  0.00    +0.119 C 
ATOM     15  C   UNL     1      35.254 -15.807 -22.468  0.00  0.00    +0.119 C 
ATOM     16  C   UNL     1      33.600 -15.243 -24.323  0.00  0.00    +0.251 C 
ENDBRANCH   2  16
BRANCH   6  17
ATOM     17  O   UNL     1      31.933 -10.788 -21.433  0.00  0.00    -0.455 OA
BRANCH  17  18
ATOM     18  C   UNL     1      32.052  -9.514 -22.053  0.00  0.00    +0.238 C 
BRANCH  18  21
ATOM     19  O   UNL     1      32.699  -7.433 -19.077  0.00  0.00    -0.358 OA
ATOM     20  N   UNL     1      33.296  -6.630 -20.041  0.00  0.00    -0.078 NA
ATOM     21  C   UNL     1      32.437  -8.498 -21.018  0.00  0.00    +0.075 A 
ATOM     22  C   UNL     1      33.126  -7.286 -21.192  0.00  0.00    +0.122 A 
ATOM     23  C   UNL     1      32.191  -8.543 -19.671  0.00  0.00    +0.154 A 
ATOM     24  C   UNL     1      31.520  -9.507 -18.788  0.00  0.00    +0.075 C 
BRANCH  22  26
ATOM     25  F   UNL     1      35.070  -5.156 -25.955  0.00  0.00    -0.204 F 
ATOM     26  C   UNL     1      33.629  -6.735 -22.423  0.00  0.00    +0.021 C 
ATOM     27  C   UNL     1      32.897  -5.760 -23.101  0.00  0.00    +0.004 C 
ATOM     28  C   UNL     1      34.847  -7.177 -22.939  0.00  0.00    +0.004 C 
ATOM     29  C   UNL     1      33.385  -5.226 -24.294  0.00  0.00    +0.030 C 
ATOM     30  C   UNL     1      35.334  -6.643 -24.133  0.00  0.00    +0.030 C 
ATOM     31  C   UNL     1      34.603  -5.668 -24.810  0.00  0.00    +0.140 C 
ENDBRANCH  22  26
ENDBRANCH  18  21
ENDBRANCH  17  18
ENDBRANCH   6  17
TORSDOF 5
ENDMDL
MODEL 4
REMARK VINA RESULT:     -10.3      4.519     10.347
REMARK  Name = 57336276
REMARK  5 active torsions:
REMARK  status: ('A' for Active; 'I' for Inactive)
REMARK    1  A    between atoms: C_2  and  C_16
REMARK    2  A    between atoms: C_6  and  O_17
REMARK    3  A    between atoms: O_17  and  C_18
REMARK    4  A    between atoms: C_18  and  C_21
REMARK    5  A    between atoms: C_22  and  C_26
REMARK                            x       y       z     vdW  Elec       q    Type
REMARK                         _______ _______ _______ _____ _____    ______ ____
ROOT
ATOM      1  N   UNL     1      34.695 -14.409 -22.191  0.00  0.00    -0.210 NA
ATOM      2  C   UNL     1      32.986 -12.704 -22.068  0.00  0.00    +0.073 C 
ATOM      3  C   UNL     1      32.337 -13.417 -21.066  0.00  0.00    +0.011 C 
ATOM      4  C   UNL     1      34.152 -13.238 -22.593  0.00  0.00    +0.107 C 
ATOM      5  C   UNL     1      32.867 -14.625 -20.625  0.00  0.00    +0.058 C 
ATOM      6  C   UNL     1      34.037 -15.073 -21.215  0.00  0.00    +0.225 C 
ENDROOT
BRANCH   2  16
ATOM      7  S   UNL     1      32.235  -8.202 -19.689  0.00  0.00    -0.007 S 
ATOM      8  O   UNL     1      33.352  -7.411 -19.211  0.00  0.00    -0.173 OA
ATOM      9  O   UNL     1      30.885  -7.932 -19.234  0.00  0.00    -0.173 OA
ATOM     10  O   UNL     1      32.583 -11.209 -23.758  0.00  0.00    -0.270 OA
ATOM     11  N   UNL     1      31.857 -10.567 -21.629  0.00  0.00    -0.272 N 
ATOM     12  C   UNL     1      32.244  -8.142 -21.473  0.00  0.00    +0.172 C 
ATOM     13  C   UNL     1      32.601  -9.920 -19.368  0.00  0.00    +0.172 C 
ATOM     14  C   UNL     1      31.388  -9.250 -22.069  0.00  0.00    +0.119 C 
ATOM     15  C   UNL     1      31.706 -10.836 -20.190  0.00  0.00    +0.119 C 
ATOM     16  C   UNL     1      32.453 -11.426 -22.554  0.00  0.00    +0.251 C 
ENDBRANCH   2  16
BRANCH   6  17
ATOM     17  O   UNL     1      34.578 -16.261 -20.798  0.00  0.00    -0.455 OA
BRANCH  17  18
ATOM     18  C   UNL     1      35.602 -16.819 -21.612  0.00  0.00    +0.238 C 
BRANCH  18  21
ATOM     19  O   UNL     1      34.073 -18.601 -24.457  0.00  0.00    -0.358 OA
ATOM     20  N   UNL     1      34.126 -19.648 -23.544  0.00  0.00    -0.078 NA
ATOM     21  C   UNL     1      34.983 -17.760 -22.603  0.00  0.00    +0.075 A 
ATOM     22  C   UNL     1      34.672 -19.122 -22.445  0.00  0.00    +0.122 A 
ATOM     23  C   UNL     1      34.586 -17.482 -23.885  0.00  0.00    +0.154 A 
ATOM     24  C   UNL     1      34.606 -16.273 -24.719  0.00  0.00    +0.075 C 
BRANCH  22  26
ATOM     25  F   UNL     1      35.484 -22.273 -17.927  0.00  0.00    -0.204 F 
ATOM     26  C   UNL     1      34.882 -19.936 -21.277  0.00  0.00    +0.021 C 
ATOM     27  C   UNL     1      36.176 -20.166 -20.811  0.00  0.00    +0.004 C 
ATOM     28  C   UNL     1      33.791 -20.496 -20.612  0.00  0.00    +0.004 C 
ATOM     29  C   UNL     1      36.379 -20.955 -19.679  0.00  0.00    +0.030 C 
ATOM     30  C   UNL     1      33.995 -21.286 -19.480  0.00  0.00    +0.030 C 
ATOM     31  C   UNL     1      35.288 -21.515 -19.014  0.00  0.00    +0.140 C 
ENDBRANCH  22  26
ENDBRANCH  18  21
ENDBRANCH  17  18
ENDBRANCH   6  17
TORSDOF 5
ENDMDL
MODEL 5
REMARK VINA RESULT:     -10.1      1.801      1.996
REMARK  Name = 57336276
REMARK  5 active torsions:
REMARK  status: ('A' for Active; 'I' for Inactive)
REMARK    1  A    between atoms: C_2  and  C_16
REMARK    2  A    between atoms: C_6  and  O_17
REMARK    3  A    between atoms: O_17  and  C_18
REMARK    4  A    between atoms: C_18  and  C_21
REMARK    5  A    between atoms: C_22  and  C_26
REMARK                            x       y       z     vdW  Elec       q    Type
REMARK                         _______ _______ _______ _____ _____    ______ ____
ROOT
ATOM      1  N   UNL     1      33.206 -12.989 -24.580  0.00  0.00    -0.210 NA
ATOM      2  C   UNL     1      33.979 -15.201 -23.984  0.00  0.00    +0.073 C 
ATOM      3  C   UNL     1      34.420 -14.723 -22.755  0.00  0.00    +0.011 C 
ATOM      4  C   UNL     1      33.383 -14.301 -24.854  0.00  0.00    +0.107 C 
ATOM      5  C   UNL     1      34.254 -13.379 -22.437  0.00  0.00    +0.058 C 
ATOM      6  C   UNL     1      33.646 -12.561 -23.376  0.00  0.00    +0.225 C 
ENDROOT
BRANCH   2  16
ATOM      7  S   UNL     1      35.094 -19.345 -21.143  0.00  0.00    -0.007 S 
ATOM      8  O   UNL     1      34.169 -19.839 -20.141  0.00  0.00    -0.173 OA
ATOM      9  O   UNL     1      36.477 -19.781 -21.156  0.00  0.00    -0.173 OA
ATOM     10  O   UNL     1      33.532 -16.986 -25.351  0.00  0.00    -0.270 OA
ATOM     11  N   UNL     1      34.950 -17.414 -23.540  0.00  0.00    -0.272 N 
ATOM     12  C   UNL     1      34.390 -19.676 -22.750  0.00  0.00    +0.172 C 
ATOM     13  C   UNL     1      35.070 -17.561 -21.081  0.00  0.00    +0.172 C 
ATOM     14  C   UNL     1      35.066 -18.845 -23.831  0.00  0.00    +0.119 C 
ATOM     15  C   UNL     1      35.672 -16.958 -22.342  0.00  0.00    +0.119 C 
ATOM     16  C   UNL     1      34.140 -16.613 -24.349  0.00  0.00    +0.251 C 
ENDBRANCH   2  16
BRANCH   6  17
ATOM     17  O   UNL     1      33.471 -11.234 -23.087  0.00  0.00    -0.455 OA
BRANCH  17  18
ATOM     18  C   UNL     1      32.134 -10.793 -22.887  0.00  0.00    +0.238 C 
BRANCH  18  21
ATOM     19  O   UNL     1      31.562 -10.913 -19.245  0.00  0.00    -0.358 OA
ATOM     20  N   UNL     1      31.594  -9.535 -19.417  0.00  0.00    -0.078 NA
ATOM     21  C   UNL     1      31.904 -10.570 -21.421  0.00  0.00    +0.075 A 
ATOM     22  C   UNL     1      31.799  -9.354 -20.724  0.00  0.00    +0.122 A 
ATOM     23  C   UNL     1      31.747 -11.519 -20.445  0.00  0.00    +0.154 A 
ATOM     24  C   UNL     1      31.741 -12.988 -20.444  0.00  0.00    +0.075 C 
BRANCH  22  26
ATOM     25  F   UNL     1      32.151  -4.211 -22.828  0.00  0.00    -0.204 F 
ATOM     26  C   UNL     1      31.890  -8.025 -21.268  0.00  0.00    +0.021 C 
ATOM     27  C   UNL     1      31.291  -7.729 -22.492  0.00  0.00    +0.004 C 
ATOM     28  C   UNL     1      32.578  -7.031 -20.571  0.00  0.00    +0.004 C 
ATOM     29  C   UNL     1      31.378  -6.441 -23.019  0.00  0.00    +0.030 C 
ATOM     30  C   UNL     1      32.666  -5.742 -21.098  0.00  0.00    +0.030 C 
ATOM     31  C   UNL     1      32.067  -5.447 -22.322  0.00  0.00    +0.140 C 
ENDBRANCH  22  26
ENDBRANCH  18  21
ENDBRANCH  17  18
ENDBRANCH   6  17
TORSDOF 5
ENDMDL
MODEL 6
REMARK VINA RESULT:      -9.7      5.015     10.016
REMARK  Name = 57336276
REMARK  5 active torsions:
REMARK  status: ('A' for Active; 'I' for Inactive)
REMARK    1  A    between atoms: C_2  and  C_16
REMARK    2  A    between atoms: C_6  and  O_17
REMARK    3  A    between atoms: O_17  and  C_18
REMARK    4  A    between atoms: C_18  and  C_21
REMARK    5  A    between atoms: C_22  and  C_26
REMARK                            x       y       z     vdW  Elec       q    Type
REMARK                         _______ _______ _______ _____ _____    ______ ____
ROOT
ATOM      1  N   UNL     1      32.015  -8.566 -23.994  0.00  0.00    -0.210 NA
ATOM      2  C   UNL     1      32.335  -6.254 -23.365  0.00  0.00    +0.073 C 
ATOM      3  C   UNL     1      33.451  -6.606 -22.614  0.00  0.00    +0.011 C 
ATOM      4  C   UNL     1      31.657  -7.263 -24.031  0.00  0.00    +0.107 C 
ATOM      5  C   UNL     1      33.850  -7.937 -22.553  0.00  0.00    +0.058 C 
ATOM      6  C   UNL     1      33.104  -8.870 -23.255  0.00  0.00    +0.225 C 
ENDROOT
BRANCH   2  16
ATOM      7  S   UNL     1      32.429  -2.880 -27.251  0.00  0.00    -0.007 S 
ATOM      8  O   UNL     1      31.621  -3.080 -28.437  0.00  0.00    -0.173 OA
ATOM      9  O   UNL     1      33.522  -1.926 -27.248  0.00  0.00    -0.173 OA
ATOM     10  O   UNL     1      30.991  -4.529 -22.676  0.00  0.00    -0.270 OA
ATOM     11  N   UNL     1      32.501  -4.028 -24.392  0.00  0.00    -0.272 N 
ATOM     12  C   UNL     1      31.333  -2.475 -25.901  0.00  0.00    +0.172 C 
ATOM     13  C   UNL     1      33.072  -4.468 -26.750  0.00  0.00    +0.172 C 
ATOM     14  C   UNL     1      32.022  -2.653 -24.556  0.00  0.00    +0.119 C 
ATOM     15  C   UNL     1      33.574  -4.432 -25.313  0.00  0.00    +0.119 C 
ATOM     16  C   UNL     1      31.888  -4.858 -23.450  0.00  0.00    +0.251 C 
ENDBRANCH   2  16
BRANCH   6  17
ATOM     17  O   UNL     1      33.477 -10.187 -23.210  0.00  0.00    -0.455 OA
BRANCH  17  18
ATOM     18  C   UNL     1      32.431 -11.151 -23.245  0.00  0.00    +0.238 C 
BRANCH  18  21
ATOM     19  O   UNL     1      32.000 -12.313 -19.771  0.00  0.00    -0.358 OA
ATOM     20  N   UNL     1      32.581 -13.453 -20.313  0.00  0.00    -0.078 NA
ATOM     21  C   UNL     1      32.369 -11.855 -21.922  0.00  0.00    +0.075 A 
ATOM     22  C   UNL     1      32.793 -13.155 -21.598  0.00  0.00    +0.122 A 
ATOM     23  C   UNL     1      31.879 -11.368 -20.738  0.00  0.00    +0.154 A 
ATOM     24  C   UNL     1      31.278 -10.090 -20.331  0.00  0.00    +0.075 C 
BRANCH  22  26
ATOM     25  F   UNL     1      35.116 -16.898 -25.004  0.00  0.00    -0.204 F 
ATOM     26  C   UNL     1      33.393 -14.122 -22.478  0.00  0.00    +0.021 C 
ATOM     27  C   UNL     1      34.396 -14.968 -22.005  0.00  0.00    +0.004 C 
ATOM     28  C   UNL     1      32.972 -14.215 -23.805  0.00  0.00    +0.004 C 
ATOM     29  C   UNL     1      34.978 -15.906 -22.858  0.00  0.00    +0.030 C 
ATOM     30  C   UNL     1      33.554 -15.153 -24.658  0.00  0.00    +0.030 C 
ATOM     31  C   UNL     1      34.557 -15.998 -24.185  0.00  0.00    +0.140 C 
ENDBRANCH  22  26
ENDBRANCH  18  21
ENDBRANCH  17  18
ENDBRANCH   6  17
TORSDOF 5
ENDMDL
MODEL 7
REMARK VINA RESULT:      -9.4      4.828      9.981
REMARK  Name = 57336276
REMARK  5 active torsions:
REMARK  status: ('A' for Active; 'I' for Inactive)
REMARK    1  A    between atoms: C_2  and  C_16
REMARK    2  A    between atoms: C_6  and  O_17
REMARK    3  A    between atoms: O_17  and  C_18
REMARK    4  A    between atoms: C_18  and  C_21
REMARK    5  A    between atoms: C_22  and  C_26
REMARK                            x       y       z     vdW  Elec       q    Type
REMARK                         _______ _______ _______ _____ _____    ______ ____
ROOT
ATOM      1  N   UNL     1      32.995  -8.531 -24.255  0.00  0.00    -0.210 NA
ATOM      2  C   UNL     1      33.874  -6.300 -24.559  0.00  0.00    +0.073 C 
ATOM      3  C   UNL     1      35.050  -6.669 -23.916  0.00  0.00    +0.011 C 
ATOM      4  C   UNL     1      32.885  -7.261 -24.703  0.00  0.00    +0.107 C 
ATOM      5  C   UNL     1      35.200  -7.968 -23.442  0.00  0.00    +0.058 C 
ATOM      6  C   UNL     1      34.151  -8.852 -23.635  0.00  0.00    +0.225 C 
ENDROOT
BRANCH   2  16
ATOM      7  S   UNL     1      30.898  -2.432 -22.927  0.00  0.00    -0.007 S 
ATOM      8  O   UNL     1      31.141  -1.786 -21.652  0.00  0.00    -0.173 OA
ATOM      9  O   UNL     1      29.639  -2.250 -23.624  0.00  0.00    -0.173 OA
ATOM     10  O   UNL     1      34.631  -4.459 -25.696  0.00  0.00    -0.270 OA
ATOM     11  N   UNL     1      32.473  -4.298 -24.807  0.00  0.00    -0.272 N 
ATOM     12  C   UNL     1      32.221  -1.975 -24.034  0.00  0.00    +0.172 C 
ATOM     13  C   UNL     1      31.171  -4.184 -22.715  0.00  0.00    +0.172 C 
ATOM     14  C   UNL     1      32.285  -2.908 -25.234  0.00  0.00    +0.119 C 
ATOM     15  C   UNL     1      31.349  -4.879 -24.057  0.00  0.00    +0.119 C 
ATOM     16  C   UNL     1      33.686  -4.938 -25.071  0.00  0.00    +0.251 C 
ENDBRANCH   2  16
BRANCH   6  17
ATOM     17  O   UNL     1      34.275 -10.138 -23.176  0.00  0.00    -0.455 OA
BRANCH  17  18
ATOM     18  C   UNL     1      33.309 -11.077 -23.634  0.00  0.00    +0.238 C 
BRANCH  18  21
ATOM     19  O   UNL     1      31.513 -12.078 -20.572  0.00  0.00    -0.358 OA
ATOM     20  N   UNL     1      31.993 -13.322 -20.962  0.00  0.00    -0.078 NA
ATOM     21  C   UNL     1      32.664 -11.735 -22.450  0.00  0.00    +0.075 A 
ATOM     22  C   UNL     1      32.678 -13.092 -22.085  0.00  0.00    +0.122 A 
ATOM     23  C   UNL     1      31.919 -11.141 -21.466  0.00  0.00    +0.154 A 
ATOM     24  C   UNL     1      31.494  -9.759 -21.202  0.00  0.00    +0.075 C 
BRANCH  22  26
ATOM     25  F   UNL     1      35.178 -17.288 -24.759  0.00  0.00    -0.204 F 
ATOM     26  C   UNL     1      33.324 -14.176 -22.776  0.00  0.00    +0.021 C 
ATOM     27  C   UNL     1      33.033 -14.420 -24.118  0.00  0.00    +0.004 C 
ATOM     28  C   UNL     1      34.242 -14.985 -22.104  0.00  0.00    +0.004 C 
ATOM     29  C   UNL     1      33.660 -15.471 -24.788  0.00  0.00    +0.030 C 
ATOM     30  C   UNL     1      34.868 -16.036 -22.774  0.00  0.00    +0.030 C 
ATOM     31  C   UNL     1      34.577 -16.279 -24.116  0.00  0.00    +0.140 C 
ENDBRANCH  22  26
ENDBRANCH  18  21
ENDBRANCH  17  18
ENDBRANCH   6  17
TORSDOF 5
ENDMDL
MODEL 8
REMARK VINA RESULT:      -9.3      8.785     13.043
REMARK  Name = 57336276
REMARK  5 active torsions:
REMARK  status: ('A' for Active; 'I' for Inactive)
REMARK    1  A    between atoms: C_2  and  C_16
REMARK    2  A    between atoms: C_6  and  O_17
REMARK    3  A    between atoms: O_17  and  C_18
REMARK    4  A    between atoms: C_18  and  C_21
REMARK    5  A    between atoms: C_22  and  C_26
REMARK                            x       y       z     vdW  Elec       q    Type
REMARK                         _______ _______ _______ _____ _____    ______ ____
ROOT
ATOM      1  N   UNL     1      35.826 -22.824 -16.519  0.00  0.00    -0.210 NA
ATOM      2  C   UNL     1      37.659 -23.774 -15.261  0.00  0.00    +0.073 C 
ATOM      3  C   UNL     1      38.549 -22.916 -15.897  0.00  0.00    +0.011 C 
ATOM      4  C   UNL     1      36.318 -23.689 -15.604  0.00  0.00    +0.107 C 
ATOM      5  C   UNL     1      38.079 -22.012 -16.844  0.00  0.00    +0.058 C 
ATOM      6  C   UNL     1      36.721 -22.007 -17.116  0.00  0.00    +0.225 C 
ENDROOT
BRANCH   2  16
ATOM      7  S   UNL     1      35.888 -24.921 -10.567  0.00  0.00    -0.007 S 
ATOM      8  O   UNL     1      34.592 -25.546 -10.386  0.00  0.00    -0.173 OA
ATOM      9  O   UNL     1      36.576 -24.302  -9.450  0.00  0.00    -0.173 OA
ATOM     10  O   UNL     1      38.734 -25.716 -14.688  0.00  0.00    -0.270 OA
ATOM     11  N   UNL     1      37.834 -24.482 -12.915  0.00  0.00    -0.272 N 
ATOM     12  C   UNL     1      36.982 -26.128 -11.297  0.00  0.00    +0.172 C 
ATOM     13  C   UNL     1      35.738 -23.712 -11.871  0.00  0.00    +0.172 C 
ATOM     14  C   UNL     1      38.214 -25.467 -11.898  0.00  0.00    +0.119 C 
ATOM     15  C   UNL     1      37.103 -23.310 -12.410  0.00  0.00    +0.119 C 
ATOM     16  C   UNL     1      38.123 -24.739 -14.257  0.00  0.00    +0.251 C 
ENDBRANCH   2  16
BRANCH   6  17
ATOM     17  O   UNL     1      36.233 -21.125 -18.045  0.00  0.00    -0.455 OA
BRANCH  17  18
ATOM     18  C   UNL     1      35.887 -21.660 -19.317  0.00  0.00    +0.238 C 
BRANCH  18  21
ATOM     19  O   UNL     1      32.206 -21.884 -19.330  0.00  0.00    -0.358 OA
ATOM     20  N   UNL     1      32.368 -20.869 -20.266  0.00  0.00    -0.078 NA
ATOM     21  C   UNL     1      34.403 -21.552 -19.507  0.00  0.00    +0.075 A 
ATOM     22  C   UNL     1      33.688 -20.689 -20.355  0.00  0.00    +0.122 A 
ATOM     23  C   UNL     1      33.425 -22.282 -18.886  0.00  0.00    +0.154 A 
ATOM     24  C   UNL     1      33.436 -23.357 -17.884  0.00  0.00    +0.075 C 
BRANCH  22  26
ATOM     25  F   UNL     1      35.772 -16.849 -23.808  0.00  0.00    -0.204 F 
ATOM     26  C   UNL     1      34.226 -19.696 -21.247  0.00  0.00    +0.021 C 
ATOM     27  C   UNL     1      34.028 -19.814 -22.623  0.00  0.00    +0.004 C 
ATOM     28  C   UNL     1      34.947 -18.616 -20.737  0.00  0.00    +0.004 C 
ATOM     29  C   UNL     1      34.549 -18.852 -23.488  0.00  0.00    +0.030 C 
ATOM     30  C   UNL     1      35.469 -17.654 -21.602  0.00  0.00    +0.030 C 
ATOM     31  C   UNL     1      35.271 -17.772 -22.977  0.00  0.00    +0.140 C 
ENDBRANCH  22  26
ENDBRANCH  18  21
ENDBRANCH  17  18
ENDBRANCH   6  17
TORSDOF 5
ENDMDL
MODEL 9
REMARK VINA RESULT:      -9.2      2.343      3.720
REMARK  Name = 57336276
REMARK  5 active torsions:
REMARK  status: ('A' for Active; 'I' for Inactive)
REMARK    1  A    between atoms: C_2  and  C_16
REMARK    2  A    between atoms: C_6  and  O_17
REMARK    3  A    between atoms: O_17  and  C_18
REMARK    4  A    between atoms: C_18  and  C_21
REMARK    5  A    between atoms: C_22  and  C_26
REMARK                            x       y       z     vdW  Elec       q    Type
REMARK                         _______ _______ _______ _____ _____    ______ ____
ROOT
ATOM      1  N   UNL     1      33.303 -12.678 -25.009  0.00  0.00    -0.210 NA
ATOM      2  C   UNL     1      33.594 -14.952 -24.242  0.00  0.00    +0.073 C 
ATOM      3  C   UNL     1      33.494 -14.526 -22.922  0.00  0.00    +0.011 C 
ATOM      4  C   UNL     1      33.492 -13.997 -25.241  0.00  0.00    +0.107 C 
ATOM      5  C   UNL     1      33.299 -13.178 -22.645  0.00  0.00    +0.058 C 
ATOM      6  C   UNL     1      33.211 -12.302 -23.715  0.00  0.00    +0.225 C 
ENDROOT
BRANCH   2  16
ATOM      7  S   UNL     1      35.316 -18.882 -21.400  0.00  0.00    -0.007 S 
ATOM      8  O   UNL     1      34.555 -19.382 -20.271  0.00  0.00    -0.173 OA
ATOM      9  O   UNL     1      36.712 -19.235 -21.569  0.00  0.00    -0.173 OA
ATOM     10  O   UNL     1      33.099 -16.824 -25.470  0.00  0.00    -0.270 OA
ATOM     11  N   UNL     1      34.753 -17.079 -23.835  0.00  0.00    -0.272 N 
ATOM     12  C   UNL     1      34.443 -19.331 -22.891  0.00  0.00    +0.172 C 
ATOM     13  C   UNL     1      35.184 -17.102 -21.407  0.00  0.00    +0.172 C 
ATOM     14  C   UNL     1      34.925 -18.514 -24.081  0.00  0.00    +0.119 C 
ATOM     15  C   UNL     1      35.586 -16.525 -22.756  0.00  0.00    +0.119 C 
ATOM     16  C   UNL     1      33.800 -16.368 -24.567  0.00  0.00    +0.251 C 
ENDBRANCH   2  16
BRANCH   6  17
ATOM     17  O   UNL     1      33.018 -10.968 -23.467  0.00  0.00    -0.455 OA
BRANCH  17  18
ATOM     18  C   UNL     1      34.185 -10.161 -23.362  0.00  0.00    +0.238 C 
BRANCH  18  21
ATOM     19  O   UNL     1      33.523  -6.539 -23.581  0.00  0.00    -0.358 OA
ATOM     20  N   UNL     1      32.835  -6.818 -22.407  0.00  0.00    -0.078 NA
ATOM     21  C   UNL     1      33.777  -8.725 -23.220  0.00  0.00    +0.075 A 
ATOM     22  C   UNL     1      33.001  -8.129 -22.211  0.00  0.00    +0.122 A 
ATOM     23  C   UNL     1      34.080  -7.682 -24.056  0.00  0.00    +0.154 A 
ATOM     24  C   UNL     1      34.850  -7.565 -25.302  0.00  0.00    +0.075 C 
BRANCH  22  26
ATOM     25  F   UNL     1      30.724 -10.619 -17.782  0.00  0.00    -0.204 F 
ATOM     26  C   UNL     1      32.412  -8.772 -21.067  0.00  0.00    +0.021 C 
ATOM     27  C   UNL     1      32.653  -8.274 -19.786  0.00  0.00    +0.004 C 
ATOM     28  C   UNL     1      31.601  -9.895 -21.237  0.00  0.00    +0.004 C 
ATOM     29  C   UNL     1      32.082  -8.898 -18.677  0.00  0.00    +0.030 C 
ATOM     30  C   UNL     1      31.031 -10.518 -20.127  0.00  0.00    +0.030 C 
ATOM     31  C   UNL     1      31.271 -10.020 -18.847  0.00  0.00    +0.140 C 
ENDBRANCH  22  26
ENDBRANCH  18  21
ENDBRANCH  17  18
ENDBRANCH   6  17
TORSDOF 5
ENDMDL
