MODEL 1
REMARK VINA RESULT:     -11.4      0.000      0.000
REMARK  Name = 46937156
REMARK  6 active torsions:
REMARK  status: ('A' for Active; 'I' for Inactive)
REMARK    1  A    between atoms: C_5  and  O_22
REMARK    2  A    between atoms: C_7  and  O_24
REMARK    3  A    between atoms: C_8  and  O_26
REMARK    4  A    between atoms: C_9  and  C_12
REMARK    5  A    between atoms: C_10  and  C_28
REMARK    6  A    between atoms: C_28  and  O_29
REMARK                            x       y       z     vdW  Elec       q    Type
REMARK                         _______ _______ _______ _____ _____    ______ ____
ROOT
ATOM      1  O   UNL     1      36.839 -25.026 -15.060  0.00  0.00    -0.328 OA
ATOM      2  O   UNL     1      36.510 -22.722 -14.573  0.00  0.00    -0.260 OA
ATOM      3  N   UNL     1      36.696 -21.936 -15.796  0.00  0.00    -0.184 NA
ATOM      4  C   UNL     1      35.880 -23.968 -14.914  0.00  0.00    +0.234 C 
ATOM      5  C   UNL     1      34.847 -24.358 -13.850  0.00  0.00    +0.193 C 
ATOM      6  C   UNL     1      35.251 -23.714 -16.273  0.00  0.00    +0.083 C 
ATOM      7  C   UNL     1      35.524 -24.701 -12.524  0.00  0.00    +0.171 C 
ATOM      8  C   UNL     1      36.633 -25.733 -12.734  0.00  0.00    +0.169 C 
ATOM      9  C   UNL     1      36.279 -22.799 -16.908  0.00  0.00    +0.107 C 
ATOM     10  C   UNL     1      37.574 -25.304 -13.864  0.00  0.00    +0.176 C 
ATOM     11  H   UNL     1      37.676 -21.674 -15.902  0.00  0.00    +0.155 HD
ENDROOT
BRANCH   9  12
ATOM     12  C   UNL     1      35.759 -22.028 -18.098  0.00  0.00    -0.006 C 
ATOM     13  C   UNL     1      36.604 -21.157 -18.787  0.00  0.00    -0.003 C 
ATOM     14  C   UNL     1      34.437 -22.185 -18.504  0.00  0.00    -0.003 C 
ATOM     15  C   UNL     1      36.135 -20.432 -19.895  0.00  0.00    -0.000 C 
ATOM     16  C   UNL     1      33.955 -21.472 -19.601  0.00  0.00    -0.000 C 
ATOM     17  C   UNL     1      34.791 -20.592 -20.308  0.00  0.00    -0.000 C 
ATOM     18  C   UNL     1      36.970 -19.551 -20.600  0.00  0.00    -0.000 C 
ATOM     19  C   UNL     1      34.322 -19.865 -21.415  0.00  0.00    -0.000 C 
ATOM     20  C   UNL     1      36.488 -18.838 -21.698  0.00  0.00    -0.000 C 
ATOM     21  C   UNL     1      35.167 -18.995 -22.105  0.00  0.00    -0.000 C 
ENDBRANCH   9  12
BRANCH   5  22
ATOM     22  O   UNL     1      33.926 -23.290 -13.648  0.00  0.00    -0.378 OA
ATOM     23  H   UNL     1      33.075 -23.648 -13.348  0.00  0.00    +0.211 HD
ENDBRANCH   5  22
BRANCH   7  24
ATOM     24  O   UNL     1      34.539 -25.247 -11.645  0.00  0.00    -0.379 OA
ATOM     25  H   UNL     1      34.505 -24.721 -10.830  0.00  0.00    +0.211 HD
ENDBRANCH   7  24
BRANCH   8  26
ATOM     26  O   UNL     1      37.353 -25.862 -11.511  0.00  0.00    -0.379 OA
ATOM     27  H   UNL     1      37.979 -25.127 -11.425  0.00  0.00    +0.211 HD
ENDBRANCH   8  26
BRANCH  10  28
ATOM     28  C   UNL     1      38.590 -26.390 -14.209  0.00  0.00    +0.169 C 
BRANCH  28  29
ATOM     29  O   UNL     1      37.932 -27.643 -14.195  0.00  0.00    -0.379 OA
ATOM     30  H   UNL     1      36.974 -27.505 -14.128  0.00  0.00    +0.211 HD
ENDBRANCH  28  29
ENDBRANCH  10  28
TORSDOF 6
ENDMDL
MODEL 2
REMARK VINA RESULT:     -11.0      1.430      2.755
REMARK  Name = 46937156
REMARK  6 active torsions:
REMARK  status: ('A' for Active; 'I' for Inactive)
REMARK    1  A    between atoms: C_5  and  O_22
REMARK    2  A    between atoms: C_7  and  O_24
REMARK    3  A    between atoms: C_8  and  O_26
REMARK    4  A    between atoms: C_9  and  C_12
REMARK    5  A    between atoms: C_10  and  C_28
REMARK    6  A    between atoms: C_28  and  O_29
REMARK                            x       y       z     vdW  Elec       q    Type
REMARK                         _______ _______ _______ _____ _____    ______ ____
ROOT
ATOM      1  O   UNL     1      36.203 -24.081 -13.181  0.00  0.00    -0.328 OA
ATOM      2  O   UNL     1      35.768 -25.551 -14.999  0.00  0.00    -0.260 OA
ATOM      3  N   UNL     1      34.868 -24.894 -15.950  0.00  0.00    -0.184 NA
ATOM      4  C   UNL     1      36.662 -24.568 -14.451  0.00  0.00    +0.234 C 
ATOM      5  C   UNL     1      38.073 -25.148 -14.295  0.00  0.00    +0.193 C 
ATOM      6  C   UNL     1      36.610 -23.418 -15.441  0.00  0.00    +0.083 C 
ATOM      7  C   UNL     1      38.106 -26.236 -13.222  0.00  0.00    +0.171 C 
ATOM      8  C   UNL     1      37.485 -25.729 -11.919  0.00  0.00    +0.169 C 
ATOM      9  C   UNL     1      35.156 -23.457 -15.865  0.00  0.00    +0.107 C 
ATOM     10  C   UNL     1      36.114 -25.095 -12.175  0.00  0.00    +0.176 C 
ATOM     11  H   UNL     1      33.896 -25.074 -15.699  0.00  0.00    +0.155 HD
ENDROOT
BRANCH   9  12
ATOM     12  C   UNL     1      34.873 -22.716 -17.150  0.00  0.00    -0.006 C 
ATOM     13  C   UNL     1      35.895 -22.016 -17.791  0.00  0.00    -0.003 C 
ATOM     14  C   UNL     1      33.591 -22.730 -17.692  0.00  0.00    -0.003 C 
ATOM     15  C   UNL     1      35.648 -21.321 -18.986  0.00  0.00    -0.000 C 
ATOM     16  C   UNL     1      33.327 -22.044 -18.878  0.00  0.00    -0.000 C 
ATOM     17  C   UNL     1      34.344 -21.336 -19.538  0.00  0.00    -0.000 C 
ATOM     18  C   UNL     1      36.664 -20.613 -19.645  0.00  0.00    -0.000 C 
ATOM     19  C   UNL     1      34.096 -20.640 -20.732  0.00  0.00    -0.000 C 
ATOM     20  C   UNL     1      36.400 -19.927 -20.831  0.00  0.00    -0.000 C 
ATOM     21  C   UNL     1      35.119 -19.941 -21.374  0.00  0.00    -0.000 C 
ENDBRANCH   9  12
BRANCH   5  22
ATOM     22  O   UNL     1      38.516 -25.695 -15.534  0.00  0.00    -0.378 OA
ATOM     23  H   UNL     1      39.103 -26.448 -15.364  0.00  0.00    +0.211 HD
ENDBRANCH   5  22
BRANCH   7  24
ATOM     24  O   UNL     1      39.469 -26.589 -12.983  0.00  0.00    -0.379 OA
ATOM     25  H   UNL     1      39.872 -26.903 -13.809  0.00  0.00    +0.211 HD
ENDBRANCH   7  24
BRANCH   8  26
ATOM     26  O   UNL     1      37.363 -26.834 -11.029  0.00  0.00    -0.379 OA
ATOM     27  H   UNL     1      36.430 -27.091 -10.958  0.00  0.00    +0.211 HD
ENDBRANCH   8  26
BRANCH  10  28
ATOM     28  C   UNL     1      35.546 -24.432 -10.924  0.00  0.00    +0.169 C 
BRANCH  28  29
ATOM     29  O   UNL     1      35.287 -25.435  -9.959  0.00  0.00    -0.379 OA
ATOM     30  H   UNL     1      34.477 -25.215  -9.473  0.00  0.00    +0.211 HD
ENDBRANCH  28  29
ENDBRANCH  10  28
TORSDOF 6
ENDMDL
MODEL 3
REMARK VINA RESULT:     -10.6      1.507      3.122
REMARK  Name = 46937156
REMARK  6 active torsions:
REMARK  status: ('A' for Active; 'I' for Inactive)
REMARK    1  A    between atoms: C_5  and  O_22
REMARK    2  A    between atoms: C_7  and  O_24
REMARK    3  A    between atoms: C_8  and  O_26
REMARK    4  A    between atoms: C_9  and  C_12
REMARK    5  A    between atoms: C_10  and  C_28
REMARK    6  A    between atoms: C_28  and  O_29
REMARK                            x       y       z     vdW  Elec       q    Type
REMARK                         _______ _______ _______ _____ _____    ______ ____
ROOT
ATOM      1  O   UNL     1      36.401 -23.976 -13.236  0.00  0.00    -0.328 OA
ATOM      2  O   UNL     1      36.052 -25.386 -15.119  0.00  0.00    -0.260 OA
ATOM      3  N   UNL     1      35.272 -24.664 -16.128  0.00  0.00    -0.184 NA
ATOM      4  C   UNL     1      36.943 -24.463 -14.473  0.00  0.00    +0.234 C 
ATOM      5  C   UNL     1      38.304 -25.119 -14.211  0.00  0.00    +0.193 C 
ATOM      6  C   UNL     1      37.036 -23.292 -15.436  0.00  0.00    +0.083 C 
ATOM      7  C   UNL     1      38.189 -26.227 -13.165  0.00  0.00    +0.171 C 
ATOM      8  C   UNL     1      37.484 -25.713 -11.908  0.00  0.00    +0.169 C 
ATOM      9  C   UNL     1      35.624 -23.246 -15.984  0.00  0.00    +0.107 C 
ATOM     10  C   UNL     1      36.174 -25.003 -12.266  0.00  0.00    +0.176 C 
ATOM     11  H   UNL     1      34.274 -24.798 -15.965  0.00  0.00    +0.155 HD
ENDROOT
BRANCH   9  12
ATOM     12  C   UNL     1      35.492 -22.467 -17.271  0.00  0.00    -0.006 C 
ATOM     13  C   UNL     1      34.229 -22.227 -17.814  0.00  0.00    -0.003 C 
ATOM     14  C   UNL     1      36.630 -21.991 -17.915  0.00  0.00    -0.003 C 
ATOM     15  C   UNL     1      34.090 -21.504 -19.010  0.00  0.00    -0.000 C 
ATOM     16  C   UNL     1      36.510 -21.272 -19.104  0.00  0.00    -0.000 C 
ATOM     17  C   UNL     1      35.248 -21.020 -19.665  0.00  0.00    -0.000 C 
ATOM     18  C   UNL     1      32.828 -21.254 -19.571  0.00  0.00    -0.000 C 
ATOM     19  C   UNL     1      35.107 -20.298 -20.862  0.00  0.00    -0.000 C 
ATOM     20  C   UNL     1      32.707 -20.534 -20.761  0.00  0.00    -0.000 C 
ATOM     21  C   UNL     1      33.845 -20.057 -21.405  0.00  0.00    -0.000 C 
ENDBRANCH   9  12
BRANCH   5  22
ATOM     22  O   UNL     1      38.825 -25.664 -15.419  0.00  0.00    -0.378 OA
ATOM     23  H   UNL     1      38.096 -25.847 -16.033  0.00  0.00    +0.211 HD
ENDBRANCH   5  22
BRANCH   7  24
ATOM     24  O   UNL     1      39.506 -26.656 -12.818  0.00  0.00    -0.379 OA
ATOM     25  H   UNL     1      39.676 -26.455 -11.884  0.00  0.00    +0.211 HD
ENDBRANCH   7  24
BRANCH   8  26
ATOM     26  O   UNL     1      37.228 -26.827 -11.059  0.00  0.00    -0.379 OA
ATOM     27  H   UNL     1      37.970 -26.942 -10.443  0.00  0.00    +0.211 HD
ENDBRANCH   8  26
BRANCH  10  28
ATOM     28  C   UNL     1      35.534 -24.335 -11.052  0.00  0.00    +0.169 C 
BRANCH  28  29
ATOM     29  O   UNL     1      35.237 -25.332 -10.093  0.00  0.00    -0.379 OA
ATOM     30  H   UNL     1      35.305 -24.954  -9.202  0.00  0.00    +0.211 HD
ENDBRANCH  28  29
ENDBRANCH  10  28
TORSDOF 6
ENDMDL
MODEL 4
REMARK VINA RESULT:     -10.3      3.014      4.690
REMARK  Name = 46937156
REMARK  6 active torsions:
REMARK  status: ('A' for Active; 'I' for Inactive)
REMARK    1  A    between atoms: C_5  and  O_22
REMARK    2  A    between atoms: C_7  and  O_24
REMARK    3  A    between atoms: C_8  and  O_26
REMARK    4  A    between atoms: C_9  and  C_12
REMARK    5  A    between atoms: C_10  and  C_28
REMARK    6  A    between atoms: C_28  and  O_29
REMARK                            x       y       z     vdW  Elec       q    Type
REMARK                         _______ _______ _______ _____ _____    ______ ____
ROOT
ATOM      1  O   UNL     1      31.162 -23.400 -16.048  0.00  0.00    -0.328 OA
ATOM      2  O   UNL     1      32.914 -24.762 -16.902  0.00  0.00    -0.260 OA
ATOM      3  N   UNL     1      33.443 -24.160 -18.130  0.00  0.00    -0.184 NA
ATOM      4  C   UNL     1      32.561 -23.714 -15.986  0.00  0.00    +0.234 C 
ATOM      5  C   UNL     1      32.933 -24.104 -14.550  0.00  0.00    +0.193 C 
ATOM      6  C   UNL     1      33.336 -22.504 -16.480  0.00  0.00    +0.083 C 
ATOM      7  C   UNL     1      32.068 -25.261 -14.052  0.00  0.00    +0.171 C 
ATOM      8  C   UNL     1      30.584 -24.952 -14.257  0.00  0.00    +0.169 C 
ATOM      9  C   UNL     1      33.278 -22.709 -17.980  0.00  0.00    +0.107 C 
ATOM     10  C   UNL     1      30.312 -24.495 -15.694  0.00  0.00    +0.176 C 
ATOM     11  H   UNL     1      32.920 -24.493 -18.940  0.00  0.00    +0.155 HD
ENDROOT
BRANCH   9  12
ATOM     12  C   UNL     1      34.306 -21.912 -18.747  0.00  0.00    -0.006 C 
ATOM     13  C   UNL     1      33.904 -21.071 -19.786  0.00  0.00    -0.003 C 
ATOM     14  C   UNL     1      35.655 -22.018 -18.418  0.00  0.00    -0.003 C 
ATOM     15  C   UNL     1      34.848 -20.324 -20.508  0.00  0.00    -0.000 C 
ATOM     16  C   UNL     1      36.605 -21.283 -19.126  0.00  0.00    -0.000 C 
ATOM     17  C   UNL     1      36.219 -20.432 -20.174  0.00  0.00    -0.000 C 
ATOM     18  C   UNL     1      34.462 -19.473 -21.556  0.00  0.00    -0.000 C 
ATOM     19  C   UNL     1      37.163 -19.685 -20.898  0.00  0.00    -0.000 C 
ATOM     20  C   UNL     1      35.413 -18.738 -22.264  0.00  0.00    -0.000 C 
ATOM     21  C   UNL     1      36.761 -18.843 -21.936  0.00  0.00    -0.000 C 
ENDBRANCH   9  12
BRANCH   5  22
ATOM     22  O   UNL     1      34.306 -24.481 -14.486  0.00  0.00    -0.378 OA
ATOM     23  H   UNL     1      34.380 -25.446 -14.541  0.00  0.00    +0.211 HD
ENDBRANCH   5  22
BRANCH   7  24
ATOM     24  O   UNL     1      32.319 -25.441 -12.657  0.00  0.00    -0.379 OA
ATOM     25  H   UNL     1      31.676 -24.924 -12.144  0.00  0.00    +0.211 HD
ENDBRANCH   7  24
BRANCH   8  26
ATOM     26  O   UNL     1      29.843 -26.133 -13.963  0.00  0.00    -0.379 OA
ATOM     27  H   UNL     1      30.456 -26.864 -13.786  0.00  0.00    +0.211 HD
ENDBRANCH   8  26
BRANCH  10  28
ATOM     28  C   UNL     1      28.874 -24.021 -15.883  0.00  0.00    +0.169 C 
BRANCH  28  29
ATOM     29  O   UNL     1      28.887 -22.843 -16.667  0.00  0.00    -0.379 OA
ATOM     30  H   UNL     1      28.154 -22.267 -16.399  0.00  0.00    +0.211 HD
ENDBRANCH  28  29
ENDBRANCH  10  28
TORSDOF 6
ENDMDL
MODEL 5
REMARK VINA RESULT:      -9.6     11.699     15.380
REMARK  Name = 46937156
REMARK  6 active torsions:
REMARK  status: ('A' for Active; 'I' for Inactive)
REMARK    1  A    between atoms: C_5  and  O_22
REMARK    2  A    between atoms: C_7  and  O_24
REMARK    3  A    between atoms: C_8  and  O_26
REMARK    4  A    between atoms: C_9  and  C_12
REMARK    5  A    between atoms: C_10  and  C_28
REMARK    6  A    between atoms: C_28  and  O_29
REMARK                            x       y       z     vdW  Elec       q    Type
REMARK                         _______ _______ _______ _____ _____    ______ ____
ROOT
ATOM      1  O   UNL     1      32.424  -9.176 -21.602  0.00  0.00    -0.328 OA
ATOM      2  O   UNL     1      34.017  -9.328 -23.362  0.00  0.00    -0.260 OA
ATOM      3  N   UNL     1      34.608 -10.669 -23.367  0.00  0.00    -0.184 NA
ATOM      4  C   UNL     1      32.630  -9.434 -22.999  0.00  0.00    +0.234 C 
ATOM      5  C   UNL     1      31.780  -8.463 -23.828  0.00  0.00    +0.193 C 
ATOM      6  C   UNL     1      32.280 -10.888 -23.264  0.00  0.00    +0.083 C 
ATOM      7  C   UNL     1      32.090  -7.011 -23.466  0.00  0.00    +0.171 C 
ATOM      8  C   UNL     1      31.994  -6.800 -21.954  0.00  0.00    +0.169 C 
ATOM      9  C   UNL     1      33.570 -11.579 -22.867  0.00  0.00    +0.107 C 
ATOM     10  C   UNL     1      32.807  -7.857 -21.199  0.00  0.00    +0.176 C 
ATOM     11  H   UNL     1      35.425 -10.697 -22.756  0.00  0.00    +0.155 HD
ENDROOT
BRANCH   9  12
ATOM     12  C   UNL     1      33.701 -12.984 -23.405  0.00  0.00    -0.006 C 
ATOM     13  C   UNL     1      34.291 -13.977 -22.623  0.00  0.00    -0.003 C 
ATOM     14  C   UNL     1      33.235 -13.286 -24.682  0.00  0.00    -0.003 C 
ATOM     15  C   UNL     1      34.422 -15.289 -23.110  0.00  0.00    -0.000 C 
ATOM     16  C   UNL     1      33.357 -14.583 -25.180  0.00  0.00    -0.000 C 
ATOM     17  C   UNL     1      33.947 -15.596 -24.407  0.00  0.00    -0.000 C 
ATOM     18  C   UNL     1      35.013 -16.300 -22.337  0.00  0.00    -0.000 C 
ATOM     19  C   UNL     1      34.079 -16.907 -24.894  0.00  0.00    -0.000 C 
ATOM     20  C   UNL     1      35.135 -17.598 -22.836  0.00  0.00    -0.000 C 
ATOM     21  C   UNL     1      34.669 -17.901 -24.111  0.00  0.00    -0.000 C 
ENDBRANCH   9  12
BRANCH   5  22
ATOM     22  O   UNL     1      32.023  -8.665 -25.217  0.00  0.00    -0.378 OA
ATOM     23  H   UNL     1      32.163  -7.807 -25.649  0.00  0.00    +0.211 HD
ENDBRANCH   5  22
BRANCH   7  24
ATOM     24  O   UNL     1      31.133  -6.172 -24.115  0.00  0.00    -0.379 OA
ATOM     25  H   UNL     1      30.912  -6.547 -24.984  0.00  0.00    +0.211 HD
ENDBRANCH   7  24
BRANCH   8  26
ATOM     26  O   UNL     1      32.483  -5.495 -21.659  0.00  0.00    -0.379 OA
ATOM     27  H   UNL     1      32.237  -5.254 -20.752  0.00  0.00    +0.211 HD
ENDBRANCH   8  26
BRANCH  10  28
ATOM     28  C   UNL     1      32.597  -7.774 -19.690  0.00  0.00    +0.169 C 
BRANCH  28  29
ATOM     29  O   UNL     1      33.651  -7.014 -19.129  0.00  0.00    -0.379 OA
ATOM     30  H   UNL     1      33.289  -6.385 -18.486  0.00  0.00    +0.211 HD
ENDBRANCH  28  29
ENDBRANCH  10  28
TORSDOF 6
ENDMDL
MODEL 6
REMARK VINA RESULT:      -9.4      9.946     13.693
REMARK  Name = 46937156
REMARK  6 active torsions:
REMARK  status: ('A' for Active; 'I' for Inactive)
REMARK    1  A    between atoms: C_5  and  O_22
REMARK    2  A    between atoms: C_7  and  O_24
REMARK    3  A    between atoms: C_8  and  O_26
REMARK    4  A    between atoms: C_9  and  C_12
REMARK    5  A    between atoms: C_10  and  C_28
REMARK    6  A    between atoms: C_28  and  O_29
REMARK                            x       y       z     vdW  Elec       q    Type
REMARK                         _______ _______ _______ _____ _____    ______ ____
ROOT
ATOM      1  O   UNL     1      34.472 -11.052 -23.163  0.00  0.00    -0.328 OA
ATOM      2  O   UNL     1      32.749 -12.231 -24.303  0.00  0.00    -0.260 OA
ATOM      3  N   UNL     1      33.261 -13.532 -24.744  0.00  0.00    -0.184 NA
ATOM      4  C   UNL     1      33.330 -11.912 -23.028  0.00  0.00    +0.234 C 
ATOM      5  C   UNL     1      32.294 -11.244 -22.115  0.00  0.00    +0.193 C 
ATOM      6  C   UNL     1      33.810 -13.247 -22.487  0.00  0.00    +0.083 C 
ATOM      7  C   UNL     1      31.907  -9.862 -22.640  0.00  0.00    +0.171 C 
ATOM      8  C   UNL     1      33.154  -9.016 -22.903  0.00  0.00    +0.169 C 
ATOM      9  C   UNL     1      34.272 -13.933 -23.757  0.00  0.00    +0.107 C 
ATOM     10  C   UNL     1      34.169  -9.785 -23.754  0.00  0.00    +0.176 C 
ATOM     11  H   UNL     1      33.684 -13.451 -25.668  0.00  0.00    +0.155 HD
ENDROOT
BRANCH   9  12
ATOM     12  C   UNL     1      34.416 -15.430 -23.627  0.00  0.00    -0.006 C 
ATOM     13  C   UNL     1      34.909 -15.983 -22.445  0.00  0.00    -0.003 C 
ATOM     14  C   UNL     1      34.057 -16.258 -24.687  0.00  0.00    -0.003 C 
ATOM     15  C   UNL     1      35.050 -17.374 -22.309  0.00  0.00    -0.000 C 
ATOM     16  C   UNL     1      34.191 -17.641 -24.569  0.00  0.00    -0.000 C 
ATOM     17  C   UNL     1      34.685 -18.215 -23.387  0.00  0.00    -0.000 C 
ATOM     18  C   UNL     1      35.545 -17.947 -21.127  0.00  0.00    -0.000 C 
ATOM     19  C   UNL     1      34.827 -19.606 -23.251  0.00  0.00    -0.000 C 
ATOM     20  C   UNL     1      35.679 -19.332 -21.009  0.00  0.00    -0.000 C 
ATOM     21  C   UNL     1      35.320 -20.159 -22.068  0.00  0.00    -0.000 C 
ENDBRANCH   9  12
BRANCH   5  22
ATOM     22  O   UNL     1      31.127 -12.057 -22.024  0.00  0.00    -0.378 OA
ATOM     23  H   UNL     1      30.700 -12.110 -22.893  0.00  0.00    +0.211 HD
ENDBRANCH   5  22
BRANCH   7  24
ATOM     24  O   UNL     1      31.104  -9.215 -21.651  0.00  0.00    -0.379 OA
ATOM     25  H   UNL     1      30.213  -9.066 -22.005  0.00  0.00    +0.211 HD
ENDBRANCH   7  24
BRANCH   8  26
ATOM     26  O   UNL     1      32.746  -7.825 -23.571  0.00  0.00    -0.379 OA
ATOM     27  H   UNL     1      32.107  -8.047 -24.266  0.00  0.00    +0.211 HD
ENDBRANCH   8  26
BRANCH  10  28
ATOM     28  C   UNL     1      35.489  -9.032 -23.893  0.00  0.00    +0.169 C 
BRANCH  28  29
ATOM     29  O   UNL     1      35.497  -7.961 -22.967  0.00  0.00    -0.379 OA
ATOM     30  H   UNL     1      36.165  -7.309 -23.232  0.00  0.00    +0.211 HD
ENDBRANCH  28  29
ENDBRANCH  10  28
TORSDOF 6
ENDMDL
MODEL 7
REMARK VINA RESULT:      -9.3      2.233      3.742
REMARK  Name = 46937156
REMARK  6 active torsions:
REMARK  status: ('A' for Active; 'I' for Inactive)
REMARK    1  A    between atoms: C_5  and  O_22
REMARK    2  A    between atoms: C_7  and  O_24
REMARK    3  A    between atoms: C_8  and  O_26
REMARK    4  A    between atoms: C_9  and  C_12
REMARK    5  A    between atoms: C_10  and  C_28
REMARK    6  A    between atoms: C_28  and  O_29
REMARK                            x       y       z     vdW  Elec       q    Type
REMARK                         _______ _______ _______ _____ _____    ______ ____
ROOT
ATOM      1  O   UNL     1      32.329 -23.280 -15.440  0.00  0.00    -0.328 OA
ATOM      2  O   UNL     1      33.589 -24.478 -17.062  0.00  0.00    -0.260 OA
ATOM      3  N   UNL     1      33.456 -23.819 -18.364  0.00  0.00    -0.184 NA
ATOM      4  C   UNL     1      33.621 -23.474 -16.035  0.00  0.00    +0.234 C 
ATOM      5  C   UNL     1      34.634 -23.848 -14.945  0.00  0.00    +0.193 C 
ATOM      6  C   UNL     1      33.997 -22.197 -16.766  0.00  0.00    +0.083 C 
ATOM      7  C   UNL     1      34.175 -25.080 -14.166  0.00  0.00    +0.171 C 
ATOM      8  C   UNL     1      32.743 -24.897 -13.660  0.00  0.00    +0.169 C 
ATOM      9  C   UNL     1      33.275 -22.389 -18.085  0.00  0.00    +0.107 C 
ATOM     10  C   UNL     1      31.814 -24.448 -14.792  0.00  0.00    +0.176 C 
ATOM     11  H   UNL     1      32.646 -24.185 -18.864  0.00  0.00    +0.155 HD
ENDROOT
BRANCH   9  12
ATOM     12  C   UNL     1      33.781 -21.498 -19.194  0.00  0.00    -0.006 C 
ATOM     13  C   UNL     1      35.136 -21.171 -19.264  0.00  0.00    -0.003 C 
ATOM     14  C   UNL     1      32.894 -21.001 -20.146  0.00  0.00    -0.003 C 
ATOM     15  C   UNL     1      35.621 -20.343 -20.289  0.00  0.00    -0.000 C 
ATOM     16  C   UNL     1      33.360 -20.176 -21.170  0.00  0.00    -0.000 C 
ATOM     17  C   UNL     1      34.719 -19.838 -21.256  0.00  0.00    -0.000 C 
ATOM     18  C   UNL     1      36.981 -20.005 -20.374  0.00  0.00    -0.000 C 
ATOM     19  C   UNL     1      35.206 -19.009 -22.281  0.00  0.00    -0.000 C 
ATOM     20  C   UNL     1      37.446 -19.180 -21.399  0.00  0.00    -0.000 C 
ATOM     21  C   UNL     1      36.561 -18.683 -22.350  0.00  0.00    -0.000 C 
ENDBRANCH   9  12
BRANCH   5  22
ATOM     22  O   UNL     1      35.907 -24.107 -15.530  0.00  0.00    -0.378 OA
ATOM     23  H   UNL     1      36.600 -23.994 -14.860  0.00  0.00    +0.211 HD
ENDBRANCH   5  22
BRANCH   7  24
ATOM     24  O   UNL     1      35.046 -25.255 -13.048  0.00  0.00    -0.379 OA
ATOM     25  H   UNL     1      34.603 -25.796 -12.374  0.00  0.00    +0.211 HD
ENDBRANCH   7  24
BRANCH   8  26
ATOM     26  O   UNL     1      32.303 -26.140 -13.121  0.00  0.00    -0.379 OA
ATOM     27  H   UNL     1      31.628 -26.524 -13.702  0.00  0.00    +0.211 HD
ENDBRANCH   8  26
BRANCH  10  28
ATOM     28  C   UNL     1      30.418 -24.096 -14.285  0.00  0.00    +0.169 C 
BRANCH  28  29
ATOM     29  O   UNL     1      29.773 -25.288 -13.877  0.00  0.00    -0.379 OA
ATOM     30  H   UNL     1      30.240 -25.663 -13.114  0.00  0.00    +0.211 HD
ENDBRANCH  28  29
ENDBRANCH  10  28
TORSDOF 6
ENDMDL
MODEL 8
REMARK VINA RESULT:      -8.8     10.020     13.495
REMARK  Name = 46937156
REMARK  6 active torsions:
REMARK  status: ('A' for Active; 'I' for Inactive)
REMARK    1  A    between atoms: C_5  and  O_22
REMARK    2  A    between atoms: C_7  and  O_24
REMARK    3  A    between atoms: C_8  and  O_26
REMARK    4  A    between atoms: C_9  and  C_12
REMARK    5  A    between atoms: C_10  and  C_28
REMARK    6  A    between atoms: C_28  and  O_29
REMARK                            x       y       z     vdW  Elec       q    Type
REMARK                         _______ _______ _______ _____ _____    ______ ____
ROOT
ATOM      1  O   UNL     1      33.171 -14.655 -23.654  0.00  0.00    -0.328 OA
ATOM      2  O   UNL     1      34.893 -13.166 -22.966  0.00  0.00    -0.260 OA
ATOM      3  N   UNL     1      34.506 -11.791 -23.295  0.00  0.00    -0.184 NA
ATOM      4  C   UNL     1      33.721 -13.895 -22.567  0.00  0.00    +0.234 C 
ATOM      5  C   UNL     1      34.042 -14.835 -21.398  0.00  0.00    +0.193 C 
ATOM      6  C   UNL     1      32.717 -12.819 -22.192  0.00  0.00    +0.083 C 
ATOM      7  C   UNL     1      34.978 -15.960 -21.837  0.00  0.00    +0.171 C 
ATOM      8  C   UNL     1      34.431 -16.664 -23.081  0.00  0.00    +0.169 C 
ATOM      9  C   UNL     1      33.041 -11.744 -23.209  0.00  0.00    +0.107 C 
ATOM     10  C   UNL     1      34.062 -15.650 -24.168  0.00  0.00    +0.176 C 
ATOM     11  H   UNL     1      34.812 -11.554 -24.239  0.00  0.00    +0.155 HD
ENDROOT
BRANCH   9  12
ATOM     12  C   UNL     1      32.510 -10.378 -22.846  0.00  0.00    -0.006 C 
ATOM     13  C   UNL     1      32.474  -9.366 -23.806  0.00  0.00    -0.003 C 
ATOM     14  C   UNL     1      32.059 -10.129 -21.553  0.00  0.00    -0.003 C 
ATOM     15  C   UNL     1      31.984  -8.090 -23.483  0.00  0.00    -0.000 C 
ATOM     16  C   UNL     1      31.570  -8.867 -21.215  0.00  0.00    -0.000 C 
ATOM     17  C   UNL     1      31.525  -7.837 -22.168  0.00  0.00    -0.000 C 
ATOM     18  C   UNL     1      31.940  -7.060 -24.436  0.00  0.00    -0.000 C 
ATOM     19  C   UNL     1      31.036  -6.560 -21.846  0.00  0.00    -0.000 C 
ATOM     20  C   UNL     1      31.451  -5.798 -24.098  0.00  0.00    -0.000 C 
ATOM     21  C   UNL     1      30.999  -5.549 -22.806  0.00  0.00    -0.000 C 
ENDBRANCH   9  12
BRANCH   5  22
ATOM     22  O   UNL     1      34.648 -14.104 -20.336  0.00  0.00    -0.378 OA
ATOM     23  H   UNL     1      34.472 -14.552 -19.494  0.00  0.00    +0.211 HD
ENDBRANCH   5  22
BRANCH   7  24
ATOM     24  O   UNL     1      35.074 -16.906 -20.770  0.00  0.00    -0.379 OA
ATOM     25  H   UNL     1      34.218 -16.970 -20.317  0.00  0.00    +0.211 HD
ENDBRANCH   7  24
BRANCH   8  26
ATOM     26  O   UNL     1      35.430 -17.561 -23.556  0.00  0.00    -0.379 OA
ATOM     27  H   UNL     1      35.702 -17.299 -24.450  0.00  0.00    +0.211 HD
ENDBRANCH   8  26
BRANCH  10  28
ATOM     28  C   UNL     1      33.360 -16.307 -25.352  0.00  0.00    +0.169 C 
BRANCH  28  29
ATOM     29  O   UNL     1      33.048 -17.644 -25.006  0.00  0.00    -0.379 OA
ATOM     30  H   UNL     1      33.726 -18.238 -25.366  0.00  0.00    +0.211 HD
ENDBRANCH  28  29
ENDBRANCH  10  28
TORSDOF 6
ENDMDL
MODEL 9
REMARK VINA RESULT:      -8.7     10.177     13.632
REMARK  Name = 46937156
REMARK  6 active torsions:
REMARK  status: ('A' for Active; 'I' for Inactive)
REMARK    1  A    between atoms: C_5  and  O_22
REMARK    2  A    between atoms: C_7  and  O_24
REMARK    3  A    between atoms: C_8  and  O_26
REMARK    4  A    between atoms: C_9  and  C_12
REMARK    5  A    between atoms: C_10  and  C_28
REMARK    6  A    between atoms: C_28  and  O_29
REMARK                            x       y       z     vdW  Elec       q    Type
REMARK                         _______ _______ _______ _____ _____    ______ ____
ROOT
ATOM      1  O   UNL     1      34.344 -14.188 -21.918  0.00  0.00    -0.328 OA
ATOM      2  O   UNL     1      32.203 -13.873 -22.903  0.00  0.00    -0.260 OA
ATOM      3  N   UNL     1      31.586 -12.665 -22.349  0.00  0.00    -0.184 NA
ATOM      4  C   UNL     1      33.617 -13.655 -23.035  0.00  0.00    +0.234 C 
ATOM      5  C   UNL     1      34.142 -14.282 -24.332  0.00  0.00    +0.193 C 
ATOM      6  C   UNL     1      33.768 -12.144 -23.015  0.00  0.00    +0.083 C 
ATOM      7  C   UNL     1      34.064 -15.807 -24.278  0.00  0.00    +0.171 C 
ATOM      8  C   UNL     1      34.730 -16.337 -23.006  0.00  0.00    +0.169 C 
ATOM      9  C   UNL     1      32.689 -11.751 -22.026  0.00  0.00    +0.107 C 
ATOM     10  C   UNL     1      34.207 -15.604 -21.767  0.00  0.00    +0.176 C 
ATOM     11  H   UNL     1      31.058 -12.892 -21.507  0.00  0.00    +0.155 HD
ENDROOT
BRANCH   9  12
ATOM     12  C   UNL     1      32.295 -10.295 -22.095  0.00  0.00    -0.006 C 
ATOM     13  C   UNL     1      32.338  -9.619 -23.315  0.00  0.00    -0.003 C 
ATOM     14  C   UNL     1      31.893  -9.628 -20.942  0.00  0.00    -0.003 C 
ATOM     15  C   UNL     1      31.976  -8.264 -23.395  0.00  0.00    -0.000 C 
ATOM     16  C   UNL     1      31.531  -8.283 -21.004  0.00  0.00    -0.000 C 
ATOM     17  C   UNL     1      31.566  -7.586 -22.222  0.00  0.00    -0.000 C 
ATOM     18  C   UNL     1      32.013  -7.568 -24.614  0.00  0.00    -0.000 C 
ATOM     19  C   UNL     1      31.205  -6.231 -22.304  0.00  0.00    -0.000 C 
ATOM     20  C   UNL     1      31.650  -6.222 -24.676  0.00  0.00    -0.000 C 
ATOM     21  C   UNL     1      31.247  -5.555 -23.523  0.00  0.00    -0.000 C 
ENDBRANCH   9  12
BRANCH   5  22
ATOM     22  O   UNL     1      33.386 -13.810 -25.444  0.00  0.00    -0.378 OA
ATOM     23  H   UNL     1      33.186 -12.869 -25.324  0.00  0.00    +0.211 HD
ENDBRANCH   5  22
BRANCH   7  24
ATOM     24  O   UNL     1      34.748 -16.333 -25.417  0.00  0.00    -0.379 OA
ATOM     25  H   UNL     1      34.338 -15.988 -26.227  0.00  0.00    +0.211 HD
ENDBRANCH   7  24
BRANCH   8  26
ATOM     26  O   UNL     1      34.454 -17.731 -22.912  0.00  0.00    -0.379 OA
ATOM     27  H   UNL     1      35.038 -18.219 -23.514  0.00  0.00    +0.211 HD
ENDBRANCH   8  26
BRANCH  10  28
ATOM     28  C   UNL     1      34.971 -15.993 -20.505  0.00  0.00    +0.169 C 
BRANCH  28  29
ATOM     29  O   UNL     1      35.295 -17.369 -20.580  0.00  0.00    -0.379 OA
ATOM     30  H   UNL     1      34.486 -17.897 -20.486  0.00  0.00    +0.211 HD
ENDBRANCH  28  29
ENDBRANCH  10  28
TORSDOF 6
ENDMDL
