MODEL 1
REMARK VINA RESULT:     -11.7      0.000      0.000
REMARK  Name = 9801640
REMARK  6 active torsions:
REMARK  status: ('A' for Active; 'I' for Inactive)
REMARK    1  A    between atoms: C_1  and  C_2
REMARK    2  A    between atoms: C_1  and  C_16
REMARK    3  A    between atoms: C_2  and  N_3
REMARK    4  A    between atoms: C_7  and  C_11
REMARK    5  A    between atoms: C_16  and  C_17
REMARK    6  A    between atoms: C_17  and  N_21
REMARK                            x       y       z     vdW  Elec       q    Type
REMARK                         _______ _______ _______ _____ _____    ______ ____
ROOT
ATOM      1  C   UNL     1      33.838 -14.913 -23.762  0.00  0.00    -0.021 C 
ENDROOT
BRANCH   1   2
ATOM      2  C   UNL     1      35.083 -15.690 -24.188  0.00  0.00    -0.077 C 
BRANCH   2   3
ATOM      3  N   UNL     1      35.297 -16.830 -23.299  0.00  0.00    +0.390 N 
ATOM      4  C   UNL     1      34.941 -16.497 -21.916  0.00  0.00    -0.072 C 
ATOM      5  C   UNL     1      34.540 -18.003 -23.763  0.00  0.00    -0.051 C 
ATOM      6  C   UNL     1      35.333 -17.653 -20.983  0.00  0.00    +0.005 C 
ATOM      7  C   UNL     1      34.877 -19.002 -21.492  0.00  0.00    -0.013 C 
ATOM      8  C   UNL     1      34.512 -19.143 -22.780  0.00  0.00    -0.052 C 
ATOM      9  H   UNL     1      36.291 -17.061 -23.319  0.00  0.00    -0.079 HD
BRANCH   7  11
ATOM     10  N   UNL     1      36.053 -20.548 -20.070  0.00  0.00    -0.244 NA
ATOM     11  C   UNL     1      34.853 -20.141 -20.542  0.00  0.00    +0.077 C 
ATOM     12  C   UNL     1      33.645 -20.724 -20.187  0.00  0.00    +0.019 C 
ATOM     13  C   UNL     1      33.672 -21.790 -19.294  0.00  0.00    +0.003 C 
ATOM     14  C   UNL     1      36.040 -21.587 -19.204  0.00  0.00    +0.099 C 
ATOM     15  C   UNL     1      34.889 -22.235 -18.788  0.00  0.00    +0.021 C 
ENDBRANCH   7  11
ENDBRANCH   2   3
ENDBRANCH   1   2
BRANCH   1  16
ATOM     16  C   UNL     1      34.206 -13.512 -23.263  0.00  0.00    +0.020 C 
BRANCH  16  17
ATOM     17  C   UNL     1      33.420 -12.412 -23.968  0.00  0.00    +0.099 C 
BRANCH  17  21
ATOM     18 CL   UNL     1      35.351 -10.206 -24.149  0.00  0.00    -0.062 Cl
ATOM     19  O   UNL     1      32.330  -8.521 -22.229  0.00  0.00    -0.448 OA
ATOM     20  O   UNL     1      31.355 -12.446 -22.130  0.00  0.00    -0.269 OA
ATOM     21  N   UNL     1      33.133 -11.273 -23.084  0.00  0.00    -0.244 N 
ATOM     22  C   UNL     1      32.116 -11.475 -22.125  0.00  0.00    +0.256 C 
ATOM     23  C   UNL     1      33.862 -10.097 -23.254  0.00  0.00    +0.151 C 
ATOM     24  C   UNL     1      31.976 -10.559 -20.968  0.00  0.00    +0.088 C 
ATOM     25  C   UNL     1      32.068  -9.174 -21.059  0.00  0.00    +0.150 C 
ATOM     26  C   UNL     1      33.493  -8.875 -22.853  0.00  0.00    +0.206 C 
ATOM     27  C   UNL     1      31.671 -11.137 -19.724  0.00  0.00    +0.008 C 
ATOM     28  C   UNL     1      31.837  -8.369 -19.937  0.00  0.00    +0.038 C 
ATOM     29  C   UNL     1      31.461 -10.337 -18.599  0.00  0.00    +0.000 C 
ATOM     30  C   UNL     1      31.541  -8.952 -18.707  0.00  0.00    +0.003 C 
ENDBRANCH  17  21
ENDBRANCH  16  17
ENDBRANCH   1  16
TORSDOF 6
ENDMDL
MODEL 2
REMARK VINA RESULT:     -11.2      6.510     12.003
REMARK  Name = 9801640
REMARK  6 active torsions:
REMARK  status: ('A' for Active; 'I' for Inactive)
REMARK    1  A    between atoms: C_1  and  C_2
REMARK    2  A    between atoms: C_1  and  C_16
REMARK    3  A    between atoms: C_2  and  N_3
REMARK    4  A    between atoms: C_7  and  C_11
REMARK    5  A    between atoms: C_16  and  C_17
REMARK    6  A    between atoms: C_17  and  N_21
REMARK                            x       y       z     vdW  Elec       q    Type
REMARK                         _______ _______ _______ _____ _____    ______ ____
ROOT
ATOM      1  C   UNL     1      36.875 -21.494 -16.918  0.00  0.00    -0.021 C 
ENDROOT
BRANCH   1   2
ATOM      2  C   UNL     1      36.457 -21.943 -18.318  0.00  0.00    -0.077 C 
BRANCH   2   3
ATOM      3  N   UNL     1      36.079 -20.788 -19.129  0.00  0.00    +0.390 N 
ATOM      4  C   UNL     1      37.173 -20.384 -20.017  0.00  0.00    -0.072 C 
ATOM      5  C   UNL     1      34.858 -21.069 -19.901  0.00  0.00    -0.051 C 
ATOM      6  C   UNL     1      36.809 -19.073 -20.732  0.00  0.00    +0.005 C 
ATOM      7  C   UNL     1      35.422 -19.096 -21.335  0.00  0.00    -0.013 C 
ATOM      8  C   UNL     1      34.536 -20.028 -20.939  0.00  0.00    -0.052 C 
ATOM      9  H   UNL     1      35.886 -20.011 -18.497  0.00  0.00    -0.079 HD
BRANCH   7  11
ATOM     10  N   UNL     1      35.237 -16.781 -21.972  0.00  0.00    -0.244 NA
ATOM     11  C   UNL     1      35.081 -18.071 -22.351  0.00  0.00    +0.077 C 
ATOM     12  C   UNL     1      34.631 -18.459 -23.605  0.00  0.00    +0.019 C 
ATOM     13  C   UNL     1      34.323 -17.462 -24.525  0.00  0.00    +0.003 C 
ATOM     14  C   UNL     1      34.926 -15.840 -22.893  0.00  0.00    +0.099 C 
ATOM     15  C   UNL     1      34.470 -16.126 -24.169  0.00  0.00    +0.021 C 
ENDBRANCH   7  11
ENDBRANCH   2   3
ENDBRANCH   1   2
BRANCH   1  16
ATOM     16  C   UNL     1      36.167 -22.321 -15.840  0.00  0.00    +0.020 C 
BRANCH  16  17
ATOM     17  C   UNL     1      35.211 -23.354 -16.426  0.00  0.00    +0.099 C 
BRANCH  17  21
ATOM     18 CL   UNL     1      36.262 -25.222 -14.418  0.00  0.00    -0.062 Cl
ATOM     19  O   UNL     1      32.799 -24.148 -12.832  0.00  0.00    -0.448 OA
ATOM     20  O   UNL     1      32.530 -22.696 -16.599  0.00  0.00    -0.269 OA
ATOM     21  N   UNL     1      34.219 -23.821 -15.445  0.00  0.00    -0.244 N 
ATOM     22  C   UNL     1      32.873 -23.493 -15.722  0.00  0.00    +0.256 C 
ATOM     23  C   UNL     1      34.666 -24.532 -14.333  0.00  0.00    +0.151 C 
ATOM     24  C   UNL     1      31.767 -24.191 -15.025  0.00  0.00    +0.088 C 
ATOM     25  C   UNL     1      31.762 -24.468 -13.661  0.00  0.00    +0.150 C 
ATOM     26  C   UNL     1      34.011 -24.680 -13.175  0.00  0.00    +0.206 C 
ATOM     27  C   UNL     1      30.638 -24.530 -15.789  0.00  0.00    +0.008 C 
ATOM     28  C   UNL     1      30.642 -25.052 -13.057  0.00  0.00    +0.038 C 
ATOM     29  C   UNL     1      29.528 -25.132 -15.191  0.00  0.00    +0.000 C 
ATOM     30  C   UNL     1      29.530 -25.389 -13.824  0.00  0.00    +0.003 C 
ENDBRANCH  17  21
ENDBRANCH  16  17
ENDBRANCH   1  16
TORSDOF 6
ENDMDL
MODEL 3
REMARK VINA RESULT:     -11.1      2.313      3.285
REMARK  Name = 9801640
REMARK  6 active torsions:
REMARK  status: ('A' for Active; 'I' for Inactive)
REMARK    1  A    between atoms: C_1  and  C_2
REMARK    2  A    between atoms: C_1  and  C_16
REMARK    3  A    between atoms: C_2  and  N_3
REMARK    4  A    between atoms: C_7  and  C_11
REMARK    5  A    between atoms: C_16  and  C_17
REMARK    6  A    between atoms: C_17  and  N_21
REMARK                            x       y       z     vdW  Elec       q    Type
REMARK                         _______ _______ _______ _____ _____    ______ ____
ROOT
ATOM      1  C   UNL     1      33.045 -13.149 -22.772  0.00  0.00    -0.021 C 
ENDROOT
BRANCH   1   2
ATOM      2  C   UNL     1      34.109 -13.785 -23.666  0.00  0.00    -0.077 C 
BRANCH   2   3
ATOM      3  N   UNL     1      34.718 -14.930 -22.993  0.00  0.00    +0.390 N 
ATOM      4  C   UNL     1      34.160 -15.113 -21.650  0.00  0.00    -0.072 C 
ATOM      5  C   UNL     1      34.557 -16.153 -23.794  0.00  0.00    -0.051 C 
ATOM      6  C   UNL     1      34.934 -16.214 -20.908  0.00  0.00    +0.005 C 
ATOM      7  C   UNL     1      35.122 -17.464 -21.738  0.00  0.00    -0.013 C 
ATOM      8  C   UNL     1      34.940 -17.416 -23.070  0.00  0.00    -0.052 C 
ATOM      9  H   UNL     1      35.716 -14.741 -22.894  0.00  0.00    -0.079 HD
BRANCH   7  11
ATOM     10  N   UNL     1      36.779 -18.767 -20.575  0.00  0.00    -0.244 NA
ATOM     11  C   UNL     1      35.511 -18.716 -21.044  0.00  0.00    +0.077 C 
ATOM     12  C   UNL     1      34.595 -19.749 -20.909  0.00  0.00    +0.019 C 
ATOM     13  C   UNL     1      35.005 -20.904 -20.252  0.00  0.00    +0.003 C 
ATOM     14  C   UNL     1      37.143 -19.907 -19.943  0.00  0.00    +0.099 C 
ATOM     15  C   UNL     1      36.302 -20.992 -19.757  0.00  0.00    +0.021 C 
ENDBRANCH   7  11
ENDBRANCH   2   3
ENDBRANCH   1   2
BRANCH   1  16
ATOM     16  C   UNL     1      33.074 -11.621 -22.882  0.00  0.00    +0.020 C 
BRANCH  16  17
ATOM     17  C   UNL     1      31.763 -10.976 -22.447  0.00  0.00    +0.099 C 
BRANCH  17  21
ATOM     18 CL   UNL     1      31.171 -10.633 -19.590  0.00  0.00    -0.062 Cl
ATOM     19  O   UNL     1      33.146  -7.312 -20.444  0.00  0.00    -0.448 OA
ATOM     20  O   UNL     1      32.406  -8.861 -24.107  0.00  0.00    -0.269 OA
ATOM     21  N   UNL     1      31.950  -9.608 -21.943  0.00  0.00    -0.244 N 
ATOM     22  C   UNL     1      32.171  -8.613 -22.922  0.00  0.00    +0.256 C 
ATOM     23  C   UNL     1      31.905  -9.392 -20.567  0.00  0.00    +0.151 C 
ATOM     24  C   UNL     1      32.021  -7.177 -22.587  0.00  0.00    +0.088 C 
ATOM     25  C   UNL     1      32.506  -6.599 -21.418  0.00  0.00    +0.150 C 
ATOM     26  C   UNL     1      32.435  -8.351 -19.914  0.00  0.00    +0.206 C 
ATOM     27  C   UNL     1      31.406  -6.354 -23.545  0.00  0.00    +0.008 C 
ATOM     28  C   UNL     1      32.405  -5.218 -21.211  0.00  0.00    +0.038 C 
ATOM     29  C   UNL     1      31.285  -4.979 -23.330  0.00  0.00    +0.000 C 
ATOM     30  C   UNL     1      31.789  -4.411 -22.164  0.00  0.00    +0.003 C 
ENDBRANCH  17  21
ENDBRANCH  16  17
ENDBRANCH   1  16
TORSDOF 6
ENDMDL
MODEL 4
REMARK VINA RESULT:     -10.9      4.235     10.513
REMARK  Name = 9801640
REMARK  6 active torsions:
REMARK  status: ('A' for Active; 'I' for Inactive)
REMARK    1  A    between atoms: C_1  and  C_2
REMARK    2  A    between atoms: C_1  and  C_16
REMARK    3  A    between atoms: C_2  and  N_3
REMARK    4  A    between atoms: C_7  and  C_11
REMARK    5  A    between atoms: C_16  and  C_17
REMARK    6  A    between atoms: C_17  and  N_21
REMARK                            x       y       z     vdW  Elec       q    Type
REMARK                         _______ _______ _______ _____ _____    ______ ____
ROOT
ATOM      1  C   UNL     1      35.290 -17.866 -21.119  0.00  0.00    -0.021 C 
ENDROOT
BRANCH   1   2
ATOM      2  C   UNL     1      35.510 -17.288 -22.517  0.00  0.00    -0.077 C 
BRANCH   2   3
ATOM      3  N   UNL     1      35.038 -15.907 -22.574  0.00  0.00    +0.390 N 
ATOM      4  C   UNL     1      34.015 -15.740 -23.612  0.00  0.00    -0.072 C 
ATOM      5  C   UNL     1      34.524 -15.476 -21.264  0.00  0.00    -0.051 C 
ATOM      6  C   UNL     1      33.661 -14.252 -23.761  0.00  0.00    +0.005 C 
ATOM      7  C   UNL     1      33.396 -13.573 -22.436  0.00  0.00    -0.013 C 
ATOM      8  C   UNL     1      33.801 -14.157 -21.293  0.00  0.00    -0.052 C 
ATOM      9  H   UNL     1      35.831 -15.314 -22.818  0.00  0.00    -0.079 HD
BRANCH   7  11
ATOM     10  N   UNL     1      33.177 -11.337 -23.300  0.00  0.00    -0.244 NA
ATOM     11  C   UNL     1      32.695 -12.267 -22.444  0.00  0.00    +0.077 C 
ATOM     12  C   UNL     1      31.610 -12.055 -21.604  0.00  0.00    +0.019 C 
ATOM     13  C   UNL     1      30.985 -10.814 -21.646  0.00  0.00    +0.003 C 
ATOM     14  C   UNL     1      32.544 -10.141 -23.311  0.00  0.00    +0.099 C 
ATOM     15  C   UNL     1      31.455  -9.833 -22.513  0.00  0.00    +0.021 C 
ENDBRANCH   7  11
ENDBRANCH   2   3
ENDBRANCH   1   2
BRANCH   1  16
ATOM     16  C   UNL     1      36.045 -19.187 -20.944  0.00  0.00    +0.020 C 
BRANCH  16  17
ATOM     17  C   UNL     1      35.156 -20.406 -21.163  0.00  0.00    +0.099 C 
BRANCH  17  21
ATOM     18 CL   UNL     1      32.385 -20.288 -20.195  0.00  0.00    -0.062 Cl
ATOM     19  O   UNL     1      33.884 -23.281 -18.085  0.00  0.00    -0.448 OA
ATOM     20  O   UNL     1      37.186 -21.633 -19.742  0.00  0.00    -0.269 OA
ATOM     21  N   UNL     1      34.909 -21.152 -19.920  0.00  0.00    -0.244 N 
ATOM     22  C   UNL     1      36.055 -21.633 -19.250  0.00  0.00    +0.256 C 
ATOM     23  C   UNL     1      33.592 -21.335 -19.503  0.00  0.00    +0.151 C 
ATOM     24  C   UNL     1      35.973 -22.078 -17.838  0.00  0.00    +0.088 C 
ATOM     25  C   UNL     1      34.944 -22.864 -17.331  0.00  0.00    +0.150 C 
ATOM     26  C   UNL     1      33.152 -22.286 -18.670  0.00  0.00    +0.206 C 
ATOM     27  C   UNL     1      37.038 -21.728 -16.991  0.00  0.00    +0.008 C 
ATOM     28  C   UNL     1      34.980 -23.319 -16.007  0.00  0.00    +0.038 C 
ATOM     29  C   UNL     1      37.065 -22.163 -15.664  0.00  0.00    +0.000 C 
ATOM     30  C   UNL     1      36.037 -22.962 -15.174  0.00  0.00    +0.003 C 
ENDBRANCH  17  21
ENDBRANCH  16  17
ENDBRANCH   1  16
TORSDOF 6
ENDMDL
MODEL 5
REMARK VINA RESULT:     -10.9      6.541     12.347
REMARK  Name = 9801640
REMARK  6 active torsions:
REMARK  status: ('A' for Active; 'I' for Inactive)
REMARK    1  A    between atoms: C_1  and  C_2
REMARK    2  A    between atoms: C_1  and  C_16
REMARK    3  A    between atoms: C_2  and  N_3
REMARK    4  A    between atoms: C_7  and  C_11
REMARK    5  A    between atoms: C_16  and  C_17
REMARK    6  A    between atoms: C_17  and  N_21
REMARK                            x       y       z     vdW  Elec       q    Type
REMARK                         _______ _______ _______ _____ _____    ______ ____
ROOT
ATOM      1  C   UNL     1      34.869 -22.427 -18.621  0.00  0.00    -0.021 C 
ENDROOT
BRANCH   1   2
ATOM      2  C   UNL     1      36.180 -21.923 -19.223  0.00  0.00    -0.077 C 
BRANCH   2   3
ATOM      3  N   UNL     1      35.911 -20.972 -20.299  0.00  0.00    +0.390 N 
ATOM      4  C   UNL     1      34.513 -20.530 -20.278  0.00  0.00    -0.072 C 
ATOM      5  C   UNL     1      36.821 -19.819 -20.216  0.00  0.00    -0.051 C 
ATOM      6  C   UNL     1      34.220 -19.665 -21.514  0.00  0.00    +0.005 C 
ATOM      7  C   UNL     1      35.262 -18.595 -21.746  0.00  0.00    -0.013 C 
ATOM      8  C   UNL     1      36.458 -18.683 -21.135  0.00  0.00    -0.052 C 
ATOM      9  H   UNL     1      36.075 -21.447 -21.187  0.00  0.00    -0.079 HD
BRANCH   7  11
ATOM     10  N   UNL     1      34.998 -16.232 -22.123  0.00  0.00    -0.244 NA
ATOM     11  C   UNL     1      34.928 -17.473 -22.657  0.00  0.00    +0.077 C 
ATOM     12  C   UNL     1      34.569 -17.730 -23.972  0.00  0.00    +0.019 C 
ATOM     13  C   UNL     1      34.263 -16.646 -24.788  0.00  0.00    +0.003 C 
ATOM     14  C   UNL     1      34.693 -15.204 -22.947  0.00  0.00    +0.099 C 
ATOM     15  C   UNL     1      34.324 -15.356 -24.273  0.00  0.00    +0.021 C 
ENDBRANCH   7  11
ENDBRANCH   2   3
ENDBRANCH   1   2
BRANCH   1  16
ATOM     16  C   UNL     1      34.991 -22.602 -17.104  0.00  0.00    +0.020 C 
BRANCH  16  17
ATOM     17  C   UNL     1      34.131 -23.745 -16.574  0.00  0.00    +0.099 C 
BRANCH  17  21
ATOM     18 CL   UNL     1      31.750 -22.966 -15.041  0.00  0.00    -0.062 Cl
ATOM     19  O   UNL     1      33.823 -25.034 -12.379  0.00  0.00    -0.448 OA
ATOM     20  O   UNL     1      36.496 -24.524 -15.373  0.00  0.00    -0.269 OA
ATOM     21  N   UNL     1      34.257 -23.914 -15.119  0.00  0.00    -0.244 N 
ATOM     22  C   UNL     1      35.553 -24.212 -14.642  0.00  0.00    +0.256 C 
ATOM     23  C   UNL     1      33.116 -23.779 -14.331  0.00  0.00    +0.151 C 
ATOM     24  C   UNL     1      35.882 -24.058 -13.205  0.00  0.00    +0.088 C 
ATOM     25  C   UNL     1      35.049 -24.470 -12.169  0.00  0.00    +0.150 C 
ATOM     26  C   UNL     1      32.944 -24.276 -13.100  0.00  0.00    +0.206 C 
ATOM     27  C   UNL     1      37.140 -23.518 -12.888  0.00  0.00    +0.008 C 
ATOM     28  C   UNL     1      35.467 -24.372 -10.837  0.00  0.00    +0.038 C 
ATOM     29  C   UNL     1      37.549 -23.399 -11.558  0.00  0.00    +0.000 C 
ATOM     30  C   UNL     1      36.713 -23.830 -10.532  0.00  0.00    +0.003 C 
ENDBRANCH  17  21
ENDBRANCH  16  17
ENDBRANCH   1  16
TORSDOF 6
ENDMDL
MODEL 6
REMARK VINA RESULT:     -10.7      4.345     10.367
REMARK  Name = 9801640
REMARK  6 active torsions:
REMARK  status: ('A' for Active; 'I' for Inactive)
REMARK    1  A    between atoms: C_1  and  C_2
REMARK    2  A    between atoms: C_1  and  C_16
REMARK    3  A    between atoms: C_2  and  N_3
REMARK    4  A    between atoms: C_7  and  C_11
REMARK    5  A    between atoms: C_16  and  C_17
REMARK    6  A    between atoms: C_17  and  N_21
REMARK                            x       y       z     vdW  Elec       q    Type
REMARK                         _______ _______ _______ _____ _____    ______ ____
ROOT
ATOM      1  C   UNL     1      36.550 -18.591 -22.008  0.00  0.00    -0.021 C 
ENDROOT
BRANCH   1   2
ATOM      2  C   UNL     1      35.409 -18.550 -23.024  0.00  0.00    -0.077 C 
BRANCH   2   3
ATOM      3  N   UNL     1      34.637 -17.319 -22.870  0.00  0.00    +0.390 N 
ATOM      4  C   UNL     1      35.259 -16.424 -21.889  0.00  0.00    -0.072 C 
ATOM      5  C   UNL     1      34.475 -16.639 -24.165  0.00  0.00    -0.051 C 
ATOM      6  C   UNL     1      34.341 -15.220 -21.627  0.00  0.00    +0.005 C 
ATOM      7  C   UNL     1      33.831 -14.579 -22.898  0.00  0.00    -0.013 C 
ATOM      8  C   UNL     1      33.904 -15.251 -24.061  0.00  0.00    -0.052 C 
ATOM      9  H   UNL     1      33.712 -17.571 -22.522  0.00  0.00    -0.079 HD
BRANCH   7  11
ATOM     10  N   UNL     1      32.169 -13.075 -22.017  0.00  0.00    -0.244 NA
ATOM     11  C   UNL     1      33.253 -13.215 -22.814  0.00  0.00    +0.077 C 
ATOM     12  C   UNL     1      33.825 -12.174 -23.531  0.00  0.00    +0.019 C 
ATOM     13  C   UNL     1      33.249 -10.913 -23.422  0.00  0.00    +0.003 C 
ATOM     14  C   UNL     1      31.636 -11.835 -21.938  0.00  0.00    +0.099 C 
ATOM     15  C   UNL     1      32.133 -10.732 -22.612  0.00  0.00    +0.021 C 
ENDBRANCH   7  11
ENDBRANCH   2   3
ENDBRANCH   1   2
BRANCH   1  16
ATOM     16  C   UNL     1      36.111 -19.284 -20.714  0.00  0.00    +0.020 C 
BRANCH  16  17
ATOM     17  C   UNL     1      35.206 -20.484 -20.968  0.00  0.00    +0.099 C 
BRANCH  17  21
ATOM     18 CL   UNL     1      32.410 -20.371 -20.074  0.00  0.00    -0.062 Cl
ATOM     19  O   UNL     1      33.845 -23.393 -17.961  0.00  0.00    -0.448 OA
ATOM     20  O   UNL     1      37.195 -21.733 -19.508  0.00  0.00    -0.269 OA
ATOM     21  N   UNL     1      34.924 -21.245 -19.742  0.00  0.00    -0.244 N 
ATOM     22  C   UNL     1      36.051 -21.737 -19.046  0.00  0.00    +0.256 C 
ATOM     23  C   UNL     1      33.596 -21.429 -19.363  0.00  0.00    +0.151 C 
ATOM     24  C   UNL     1      35.930 -22.198 -17.643  0.00  0.00    +0.088 C 
ATOM     25  C   UNL     1      34.886 -22.988 -17.173  0.00  0.00    +0.150 C 
ATOM     26  C   UNL     1      33.132 -22.389 -18.553  0.00  0.00    +0.206 C 
ATOM     27  C   UNL     1      36.973 -21.861 -16.763  0.00  0.00    +0.008 C 
ATOM     28  C   UNL     1      34.886 -23.459 -15.855  0.00  0.00    +0.038 C 
ATOM     29  C   UNL     1      36.963 -22.312 -15.442  0.00  0.00    +0.000 C 
ATOM     30  C   UNL     1      35.921 -23.115 -14.989  0.00  0.00    +0.003 C 
ENDBRANCH  17  21
ENDBRANCH  16  17
ENDBRANCH   1  16
TORSDOF 6
ENDMDL
MODEL 7
REMARK VINA RESULT:     -10.5      7.530     13.227
REMARK  Name = 9801640
REMARK  6 active torsions:
REMARK  status: ('A' for Active; 'I' for Inactive)
REMARK    1  A    between atoms: C_1  and  C_2
REMARK    2  A    between atoms: C_1  and  C_16
REMARK    3  A    between atoms: C_2  and  N_3
REMARK    4  A    between atoms: C_7  and  C_11
REMARK    5  A    between atoms: C_16  and  C_17
REMARK    6  A    between atoms: C_17  and  N_21
REMARK                            x       y       z     vdW  Elec       q    Type
REMARK                         _______ _______ _______ _____ _____    ______ ____
ROOT
ATOM      1  C   UNL     1      33.980 -23.086 -16.542  0.00  0.00    -0.021 C 
ENDROOT
BRANCH   1   2
ATOM      2  C   UNL     1      33.725 -23.754 -17.893  0.00  0.00    -0.077 C 
BRANCH   2   3
ATOM      3  N   UNL     1      33.911 -22.792 -18.977  0.00  0.00    +0.390 N 
ATOM      4  C   UNL     1      32.942 -21.696 -18.884  0.00  0.00    -0.072 C 
ATOM      5  C   UNL     1      35.287 -22.270 -18.981  0.00  0.00    -0.051 C 
ATOM      6  C   UNL     1      33.051 -20.795 -20.123  0.00  0.00    +0.005 C 
ATOM      7  C   UNL     1      34.477 -20.410 -20.448  0.00  0.00    -0.013 C 
ATOM      8  C   UNL     1      35.497 -21.103 -19.908  0.00  0.00    -0.052 C 
ATOM      9  H   UNL     1      33.749 -23.278 -19.859  0.00  0.00    -0.079 HD
BRANCH   7  11
ATOM     10  N   UNL     1      35.141 -18.122 -20.798  0.00  0.00    -0.244 NA
ATOM     11  C   UNL     1      34.705 -19.269 -21.368  0.00  0.00    +0.077 C 
ATOM     12  C   UNL     1      34.471 -19.416 -22.728  0.00  0.00    +0.019 C 
ATOM     13  C   UNL     1      34.698 -18.319 -23.551  0.00  0.00    +0.003 C 
ATOM     14  C   UNL     1      35.350 -17.077 -21.630  0.00  0.00    +0.099 C 
ATOM     15  C   UNL     1      35.146 -17.123 -23.000  0.00  0.00    +0.021 C 
ENDBRANCH   7  11
ENDBRANCH   2   3
ENDBRANCH   1   2
BRANCH   1  16
ATOM     16  C   UNL     1      32.873 -23.428 -15.540  0.00  0.00    +0.020 C 
BRANCH  16  17
ATOM     17  C   UNL     1      33.038 -24.818 -14.935  0.00  0.00    +0.099 C 
BRANCH  17  21
ATOM     18 CL   UNL     1      32.872 -23.214 -12.480  0.00  0.00    -0.062 Cl
ATOM     19  O   UNL     1      35.902 -25.636 -11.696  0.00  0.00    -0.448 OA
ATOM     20  O   UNL     1      35.311 -26.220 -15.655  0.00  0.00    -0.269 OA
ATOM     21  N   UNL     1      34.216 -24.914 -14.060  0.00  0.00    -0.244 N 
ATOM     22  C   UNL     1      35.340 -25.573 -14.606  0.00  0.00    +0.256 C 
ATOM     23  C   UNL     1      34.142 -24.366 -12.781  0.00  0.00    +0.151 C 
ATOM     24  C   UNL     1      36.677 -25.428 -13.983  0.00  0.00    +0.088 C 
ATOM     25  C   UNL     1      36.904 -25.477 -12.611  0.00  0.00    +0.150 C 
ATOM     26  C   UNL     1      34.915 -24.692 -11.737  0.00  0.00    +0.206 C 
ATOM     27  C   UNL     1      37.778 -25.295 -14.846  0.00  0.00    +0.008 C 
ATOM     28  C   UNL     1      38.206 -25.421 -12.101  0.00  0.00    +0.038 C 
ATOM     29  C   UNL     1      39.077 -25.217 -14.338  0.00  0.00    +0.000 C 
ATOM     30  C   UNL     1      39.290 -25.284 -12.964  0.00  0.00    +0.003 C 
ENDBRANCH  17  21
ENDBRANCH  16  17
ENDBRANCH   1  16
TORSDOF 6
ENDMDL
MODEL 8
REMARK VINA RESULT:     -10.5      1.683      2.802
REMARK  Name = 9801640
REMARK  6 active torsions:
REMARK  status: ('A' for Active; 'I' for Inactive)
REMARK    1  A    between atoms: C_1  and  C_2
REMARK    2  A    between atoms: C_1  and  C_16
REMARK    3  A    between atoms: C_2  and  N_3
REMARK    4  A    between atoms: C_7  and  C_11
REMARK    5  A    between atoms: C_16  and  C_17
REMARK    6  A    between atoms: C_17  and  N_21
REMARK                            x       y       z     vdW  Elec       q    Type
REMARK                         _______ _______ _______ _____ _____    ______ ____
ROOT
ATOM      1  C   UNL     1      33.556 -14.325 -23.739  0.00  0.00    -0.021 C 
ENDROOT
BRANCH   1   2
ATOM      2  C   UNL     1      34.790 -15.226 -23.711  0.00  0.00    -0.077 C 
BRANCH   2   3
ATOM      3  N   UNL     1      34.528 -16.418 -22.907  0.00  0.00    +0.390 N 
ATOM      4  C   UNL     1      34.912 -17.637 -23.626  0.00  0.00    -0.072 C 
ATOM      5  C   UNL     1      35.224 -16.337 -21.613  0.00  0.00    -0.051 C 
ATOM      6  C   UNL     1      34.473 -18.874 -22.828  0.00  0.00    +0.005 C 
ATOM      7  C   UNL     1      34.860 -18.801 -21.368  0.00  0.00    -0.013 C 
ATOM      8  C   UNL     1      35.206 -17.619 -20.826  0.00  0.00    -0.052 C 
ATOM      9  H   UNL     1      33.525 -16.462 -22.729  0.00  0.00    -0.079 HD
BRANCH   7  11
ATOM     10  N   UNL     1      33.613 -20.535 -20.255  0.00  0.00    -0.244 NA
ATOM     11  C   UNL     1      34.837 -20.053 -20.572  0.00  0.00    +0.077 C 
ATOM     12  C   UNL     1      36.027 -20.659 -20.196  0.00  0.00    +0.019 C 
ATOM     13  C   UNL     1      35.956 -21.830 -19.450  0.00  0.00    +0.003 C 
ATOM     14  C   UNL     1      33.584 -21.675 -19.528  0.00  0.00    +0.099 C 
ATOM     15  C   UNL     1      34.715 -22.354 -19.105  0.00  0.00    +0.021 C 
ENDBRANCH   7  11
ENDBRANCH   2   3
ENDBRANCH   1   2
BRANCH   1  16
ATOM     16  C   UNL     1      33.817 -13.010 -22.998  0.00  0.00    +0.020 C 
BRANCH  16  17
ATOM     17  C   UNL     1      33.171 -11.811 -23.683  0.00  0.00    +0.099 C 
BRANCH  17  21
ATOM     18 CL   UNL     1      30.819 -12.274 -21.984  0.00  0.00    -0.062 Cl
ATOM     19  O   UNL     1      32.596  -9.250 -20.152  0.00  0.00    -0.448 OA
ATOM     20  O   UNL     1      34.578  -9.430 -23.674  0.00  0.00    -0.269 OA
ATOM     21  N   UNL     1      32.871 -10.721 -22.742  0.00  0.00    -0.244 N 
ATOM     22  C   UNL     1      33.602  -9.526 -22.926  0.00  0.00    +0.256 C 
ATOM     23  C   UNL     1      31.914 -10.940 -21.753  0.00  0.00    +0.151 C 
ATOM     24  C   UNL     1      33.155  -8.263 -22.293  0.00  0.00    +0.088 C 
ATOM     25  C   UNL     1      32.702  -8.170 -20.981  0.00  0.00    +0.150 C 
ATOM     26  C   UNL     1      31.797 -10.262 -20.604  0.00  0.00    +0.206 C 
ATOM     27  C   UNL     1      33.260  -7.088 -23.058  0.00  0.00    +0.008 C 
ATOM     28  C   UNL     1      32.381  -6.926 -20.424  0.00  0.00    +0.038 C 
ATOM     29  C   UNL     1      32.919  -5.850 -22.511  0.00  0.00    +0.000 C 
ATOM     30  C   UNL     1      32.483  -5.769 -21.192  0.00  0.00    +0.003 C 
ENDBRANCH  17  21
ENDBRANCH  16  17
ENDBRANCH   1  16
TORSDOF 6
ENDMDL
MODEL 9
REMARK VINA RESULT:     -10.2      2.965      4.977
REMARK  Name = 9801640
REMARK  6 active torsions:
REMARK  status: ('A' for Active; 'I' for Inactive)
REMARK    1  A    between atoms: C_1  and  C_2
REMARK    2  A    between atoms: C_1  and  C_16
REMARK    3  A    between atoms: C_2  and  N_3
REMARK    4  A    between atoms: C_7  and  C_11
REMARK    5  A    between atoms: C_16  and  C_17
REMARK    6  A    between atoms: C_17  and  N_21
REMARK                            x       y       z     vdW  Elec       q    Type
REMARK                         _______ _______ _______ _____ _____    ______ ____
ROOT
ATOM      1  C   UNL     1      32.415 -11.241 -22.741  0.00  0.00    -0.021 C 
ENDROOT
BRANCH   1   2
ATOM      2  C   UNL     1      33.655 -11.364 -23.626  0.00  0.00    -0.077 C 
BRANCH   2   3
ATOM      3  N   UNL     1      34.135 -12.744 -23.637  0.00  0.00    +0.390 N 
ATOM      4  C   UNL     1      33.924 -13.388 -22.337  0.00  0.00    -0.072 C 
ATOM      5  C   UNL     1      33.485 -13.514 -24.710  0.00  0.00    -0.051 C 
ATOM      6  C   UNL     1      34.587 -14.774 -22.327  0.00  0.00    +0.005 C 
ATOM      7  C   UNL     1      34.250 -15.597 -23.551  0.00  0.00    -0.013 C 
ATOM      8  C   UNL     1      33.740 -14.996 -24.641  0.00  0.00    -0.052 C 
ATOM      9  H   UNL     1      35.138 -12.726 -23.818  0.00  0.00    -0.079 HD
BRANCH   7  11
ATOM     10  N   UNL     1      33.962 -17.786 -24.510  0.00  0.00    -0.244 NA
ATOM     11  C   UNL     1      34.504 -17.058 -23.507  0.00  0.00    +0.077 C 
ATOM     12  C   UNL     1      35.260 -17.601 -22.478  0.00  0.00    +0.019 C 
ATOM     13  C   UNL     1      35.470 -18.976 -22.479  0.00  0.00    +0.003 C 
ATOM     14  C   UNL     1      34.188 -19.120 -24.477  0.00  0.00    +0.099 C 
ATOM     15  C   UNL     1      34.928 -19.756 -23.494  0.00  0.00    +0.021 C 
ENDBRANCH   7  11
ENDBRANCH   2   3
ENDBRANCH   1   2
BRANCH   1  16
ATOM     16  C   UNL     1      31.915  -9.794 -22.691  0.00  0.00    +0.020 C 
BRANCH  16  17
ATOM     17  C   UNL     1      32.951  -8.834 -22.115  0.00  0.00    +0.099 C 
BRANCH  17  21
ATOM     18 CL   UNL     1      35.273  -8.290 -23.830  0.00  0.00    -0.062 Cl
ATOM     19  O   UNL     1      32.720  -5.484 -24.957  0.00  0.00    -0.448 OA
ATOM     20  O   UNL     1      30.992  -6.951 -21.606  0.00  0.00    -0.269 OA
ATOM     21  N   UNL     1      32.930  -7.522 -22.776  0.00  0.00    -0.244 N 
ATOM     22  C   UNL     1      31.930  -6.625 -22.338  0.00  0.00    +0.256 C 
ATOM     23  C   UNL     1      33.870  -7.261 -23.771  0.00  0.00    +0.151 C 
ATOM     24  C   UNL     1      32.018  -5.180 -22.657  0.00  0.00    +0.088 C 
ATOM     25  C   UNL     1      32.379  -4.682 -23.905  0.00  0.00    +0.150 C 
ATOM     26  C   UNL     1      33.766  -6.334 -24.732  0.00  0.00    +0.206 C 
ATOM     27  C   UNL     1      31.652  -4.274 -21.647  0.00  0.00    +0.008 C 
ATOM     28  C   UNL     1      32.355  -3.305 -24.157  0.00  0.00    +0.038 C 
ATOM     29  C   UNL     1      31.648  -2.899 -21.890  0.00  0.00    +0.000 C 
ATOM     30  C   UNL     1      31.996  -2.415 -23.148  0.00  0.00    +0.003 C 
ENDBRANCH  17  21
ENDBRANCH  16  17
ENDBRANCH   1  16
TORSDOF 6
ENDMDL
