MODEL 1
REMARK VINA RESULT:     -12.7      0.000      0.000
REMARK  Name = 25184541
REMARK  4 active torsions:
REMARK  status: ('A' for Active; 'I' for Inactive)
REMARK    1  A    between atoms: C_4  and  N_19
REMARK    2  A    between atoms: C_5  and  N_11
REMARK    3  A    between atoms: C_20  and  C_23
REMARK    4  A    between atoms: C_23  and  N_25
REMARK                            x       y       z     vdW  Elec       q    Type
REMARK                         _______ _______ _______ _____ _____    ______ ____
ROOT
ATOM      1  F   UNL     1      32.310 -21.820 -18.794  0.00  0.00    -0.200 F 
ATOM      2  F   UNL     1      32.381 -20.118 -20.910  0.00  0.00    -0.200 F 
ATOM      3  F   UNL     1      37.128 -20.095 -20.729  0.00  0.00    -0.203 F 
ATOM      4  C   UNL     1      34.681 -21.831 -18.675  0.00  0.00    +0.089 C 
ATOM      5  C   UNL     1      34.755 -20.083 -20.847  0.00  0.00    +0.110 C 
ATOM      6  C   UNL     1      33.493 -21.399 -19.264  0.00  0.00    +0.182 C 
ATOM      7  C   UNL     1      35.907 -21.389 -19.174  0.00  0.00    +0.048 C 
ATOM      8  C   UNL     1      33.530 -20.525 -20.350  0.00  0.00    +0.184 C 
ATOM      9  C   UNL     1      35.944 -20.515 -20.259  0.00  0.00    +0.157 C 
ENDROOT
BRANCH   5  11
ATOM     10  O   UNL     1      34.846 -16.576 -25.075  0.00  0.00    -0.291 OA
ATOM     11  N   UNL     1      34.793 -19.190 -21.951  0.00  0.00    -0.282 N 
ATOM     12  C   UNL     1      35.509 -17.915 -21.770  0.00  0.00    +0.104 C 
ATOM     13  C   UNL     1      34.938 -16.834 -22.686  0.00  0.00    +0.091 C 
ATOM     14  C   UNL     1      34.355 -19.533 -23.221  0.00  0.00    +0.068 C 
ATOM     15  C   UNL     1      34.747 -17.325 -24.105  0.00  0.00    +0.176 C 
ATOM     16  C   UNL     1      34.337 -18.735 -24.294  0.00  0.00    +0.054 C 
ENDBRANCH   5  11
BRANCH   4  19
ATOM     17  O   UNL     1      35.186 -23.836 -15.678  0.00  0.00    -0.434 OA
ATOM     18  O   UNL     1      36.654 -22.265 -16.401  0.00  0.00    -0.226 OA
ATOM     19  N   UNL     1      34.647 -22.725 -17.567  0.00  0.00    -0.219 N 
ATOM     20  C   UNL     1      33.834 -24.204 -15.984  0.00  0.00    +0.210 C 
ATOM     21  C   UNL     1      33.627 -23.727 -17.405  0.00  0.00    +0.147 C 
ATOM     22  C   UNL     1      35.594 -22.856 -16.555  0.00  0.00    +0.409 C 
BRANCH  20  23
ATOM     23  C   UNL     1      32.903 -23.532 -14.984  0.00  0.00    +0.134 C 
BRANCH  23  25
ATOM     24  O   UNL     1      29.033 -22.889 -16.787  0.00  0.00    -0.349 OA
ATOM     25  N   UNL     1      31.665 -24.263 -14.897  0.00  0.00    -0.312 N 
ATOM     26  N   UNL     1      30.355 -22.838 -16.363  0.00  0.00    -0.062 NA
ATOM     27  C   UNL     1      30.503 -23.897 -15.561  0.00  0.00    +0.171 C 
ATOM     28  C   UNL     1      29.320 -24.645 -15.443  0.00  0.00    +0.081 C 
ATOM     29  C   UNL     1      28.427 -23.971 -16.233  0.00  0.00    +0.215 C 
ATOM     30  H   UNL     1      31.642 -25.070 -14.332  0.00  0.00    +0.148 HD
ENDBRANCH  23  25
ENDBRANCH  20  23
ENDBRANCH   4  19
TORSDOF 4
ENDMDL
MODEL 2
REMARK VINA RESULT:     -11.7      3.279      9.093
REMARK  Name = 25184541
REMARK  4 active torsions:
REMARK  status: ('A' for Active; 'I' for Inactive)
REMARK    1  A    between atoms: C_4  and  N_19
REMARK    2  A    between atoms: C_5  and  N_11
REMARK    3  A    between atoms: C_20  and  C_23
REMARK    4  A    between atoms: C_23  and  N_25
REMARK                            x       y       z     vdW  Elec       q    Type
REMARK                         _______ _______ _______ _____ _____    ______ ____
ROOT
ATOM      1  F   UNL     1      37.194 -21.160 -18.128  0.00  0.00    -0.200 F 
ATOM      2  F   UNL     1      37.723 -22.523 -15.839  0.00  0.00    -0.200 F 
ATOM      3  F   UNL     1      33.342 -24.356 -15.920  0.00  0.00    -0.203 F 
ATOM      4  C   UNL     1      34.997 -22.058 -18.199  0.00  0.00    +0.089 C 
ATOM      5  C   UNL     1      35.540 -23.457 -15.848  0.00  0.00    +0.110 C 
ATOM      6  C   UNL     1      36.247 -21.941 -17.591  0.00  0.00    +0.182 C 
ATOM      7  C   UNL     1      34.019 -22.875 -17.632  0.00  0.00    +0.048 C 
ATOM      8  C   UNL     1      36.518 -22.641 -16.415  0.00  0.00    +0.184 C 
ATOM      9  C   UNL     1      34.291 -23.574 -16.457  0.00  0.00    +0.157 C 
ENDROOT
BRANCH   5  11
ATOM     10  O   UNL     1      36.655 -26.138 -11.185  0.00  0.00    -0.291 OA
ATOM     11  N   UNL     1      35.815 -24.168 -14.650  0.00  0.00    -0.282 N 
ATOM     12  C   UNL     1      35.215 -23.657 -13.405  0.00  0.00    +0.104 C 
ATOM     13  C   UNL     1      36.066 -24.036 -12.193  0.00  0.00    +0.091 C 
ATOM     14  C   UNL     1      36.458 -25.396 -14.624  0.00  0.00    +0.068 C 
ATOM     15  C   UNL     1      36.482 -25.492 -12.216  0.00  0.00    +0.176 C 
ATOM     16  C   UNL     1      36.771 -26.102 -13.533  0.00  0.00    +0.054 C 
ENDBRANCH   5  11
BRANCH   4  19
ATOM     17  O   UNL     1      33.643 -20.244 -21.051  0.00  0.00    -0.434 OA
ATOM     18  O   UNL     1      32.380 -20.984 -19.318  0.00  0.00    -0.226 OA
ATOM     19  N   UNL     1      34.717 -21.345 -19.400  0.00  0.00    -0.219 N 
ATOM     20  C   UNL     1      35.044 -20.088 -21.315  0.00  0.00    +0.210 C 
ATOM     21  C   UNL     1      35.712 -21.101 -20.411  0.00  0.00    +0.147 C 
ATOM     22  C   UNL     1      33.482 -20.876 -19.839  0.00  0.00    +0.409 C 
BRANCH  20  23
ATOM     23  C   UNL     1      35.445 -18.651 -21.006  0.00  0.00    +0.134 C 
BRANCH  23  25
ATOM     24  O   UNL     1      34.475 -14.474 -21.502  0.00  0.00    -0.349 OA
ATOM     25  N   UNL     1      35.280 -17.832 -22.179  0.00  0.00    -0.312 N 
ATOM     26  N   UNL     1      34.765 -15.751 -21.039  0.00  0.00    -0.062 NA
ATOM     27  C   UNL     1      34.962 -16.482 -22.141  0.00  0.00    +0.171 C 
ATOM     28  C   UNL     1      34.811 -15.727 -23.315  0.00  0.00    +0.081 C 
ATOM     29  C   UNL     1      34.506 -14.472 -22.860  0.00  0.00    +0.215 C 
ATOM     30  H   UNL     1      35.399 -18.256 -23.061  0.00  0.00    +0.148 HD
ENDBRANCH  23  25
ENDBRANCH  20  23
ENDBRANCH   4  19
TORSDOF 4
ENDMDL
MODEL 3
REMARK VINA RESULT:     -11.7      2.402      3.323
REMARK  Name = 25184541
REMARK  4 active torsions:
REMARK  status: ('A' for Active; 'I' for Inactive)
REMARK    1  A    between atoms: C_4  and  N_19
REMARK    2  A    between atoms: C_5  and  N_11
REMARK    3  A    between atoms: C_20  and  C_23
REMARK    4  A    between atoms: C_23  and  N_25
REMARK                            x       y       z     vdW  Elec       q    Type
REMARK                         _______ _______ _______ _____ _____    ______ ____
ROOT
ATOM      1  F   UNL     1      32.795 -22.091 -18.609  0.00  0.00    -0.200 F 
ATOM      2  F   UNL     1      32.644 -20.394 -20.724  0.00  0.00    -0.200 F 
ATOM      3  F   UNL     1      37.367 -19.896 -20.660  0.00  0.00    -0.203 F 
ATOM      4  C   UNL     1      35.158 -21.865 -18.548  0.00  0.00    +0.089 C 
ATOM      5  C   UNL     1      35.003 -20.121 -20.720  0.00  0.00    +0.110 C 
ATOM      6  C   UNL     1      33.918 -21.555 -19.107  0.00  0.00    +0.182 C 
ATOM      7  C   UNL     1      36.321 -21.303 -19.076  0.00  0.00    +0.048 C 
ATOM      8  C   UNL     1      33.841 -20.683 -20.193  0.00  0.00    +0.184 C 
ATOM      9  C   UNL     1      36.243 -20.431 -20.161  0.00  0.00    +0.157 C 
ENDROOT
BRANCH   5  11
ATOM     10  O   UNL     1      34.645 -16.625 -24.943  0.00  0.00    -0.291 OA
ATOM     11  N   UNL     1      34.925 -19.231 -21.823  0.00  0.00    -0.282 N 
ATOM     12  C   UNL     1      35.602 -17.929 -21.696  0.00  0.00    +0.104 C 
ATOM     13  C   UNL     1      34.923 -16.873 -22.567  0.00  0.00    +0.091 C 
ATOM     14  C   UNL     1      34.407 -19.594 -23.058  0.00  0.00    +0.068 C 
ATOM     15  C   UNL     1      34.646 -17.375 -23.969  0.00  0.00    +0.176 C 
ATOM     16  C   UNL     1      34.279 -18.800 -24.126  0.00  0.00    +0.054 C 
ENDBRANCH   5  11
BRANCH   4  19
ATOM     17  O   UNL     1      36.008 -23.931 -15.674  0.00  0.00    -0.434 OA
ATOM     18  O   UNL     1      37.473 -22.531 -16.691  0.00  0.00    -0.226 OA
ATOM     19  N   UNL     1      35.240 -22.756 -17.440  0.00  0.00    -0.219 N 
ATOM     20  C   UNL     1      34.591 -24.144 -15.707  0.00  0.00    +0.210 C 
ATOM     21  C   UNL     1      34.166 -23.638 -17.069  0.00  0.00    +0.147 C 
ATOM     22  C   UNL     1      36.345 -22.998 -16.628  0.00  0.00    +0.409 C 
BRANCH  20  23
ATOM     23  C   UNL     1      33.951 -23.378 -14.556  0.00  0.00    +0.134 C 
BRANCH  23  25
ATOM     24  O   UNL     1      34.945 -25.371 -10.858  0.00  0.00    -0.349 OA
ATOM     25  N   UNL     1      34.938 -23.098 -13.544  0.00  0.00    -0.312 N 
ATOM     26  N   UNL     1      34.412 -24.955 -12.072  0.00  0.00    -0.062 NA
ATOM     27  C   UNL     1      35.113 -23.866 -12.402  0.00  0.00    +0.171 C 
ATOM     28  C   UNL     1      36.090 -23.550 -11.445  0.00  0.00    +0.081 C 
ATOM     29  C   UNL     1      35.944 -24.526 -10.495  0.00  0.00    +0.215 C 
ATOM     30  H   UNL     1      35.522 -22.315 -13.671  0.00  0.00    +0.148 HD
ENDBRANCH  23  25
ENDBRANCH  20  23
ENDBRANCH   4  19
TORSDOF 4
ENDMDL
MODEL 4
REMARK VINA RESULT:     -11.2      8.557     13.843
REMARK  Name = 25184541
REMARK  4 active torsions:
REMARK  status: ('A' for Active; 'I' for Inactive)
REMARK    1  A    between atoms: C_4  and  N_19
REMARK    2  A    between atoms: C_5  and  N_11
REMARK    3  A    between atoms: C_20  and  C_23
REMARK    4  A    between atoms: C_23  and  N_25
REMARK                            x       y       z     vdW  Elec       q    Type
REMARK                         _______ _______ _______ _____ _____    ______ ____
ROOT
ATOM      1  F   UNL     1      33.888  -9.258 -23.653  0.00  0.00    -0.200 F 
ATOM      2  F   UNL     1      34.667 -11.769 -24.335  0.00  0.00    -0.200 F 
ATOM      3  F   UNL     1      31.544 -13.575 -21.246  0.00  0.00    -0.203 F 
ATOM      4  C   UNL     1      32.316 -10.127 -22.100  0.00  0.00    +0.089 C 
ATOM      5  C   UNL     1      33.117 -12.706 -22.799  0.00  0.00    +0.110 C 
ATOM      6  C   UNL     1      33.311 -10.312 -23.060  0.00  0.00    +0.182 C 
ATOM      7  C   UNL     1      31.721 -11.231 -21.491  0.00  0.00    +0.048 C 
ATOM      8  C   UNL     1      33.711 -11.602 -23.409  0.00  0.00    +0.184 C 
ATOM      9  C   UNL     1      32.122 -12.520 -21.840  0.00  0.00    +0.157 C 
ENDROOT
BRANCH   5  11
ATOM     10  O   UNL     1      34.786 -17.760 -24.159  0.00  0.00    -0.291 OA
ATOM     11  N   UNL     1      33.526 -14.018 -23.153  0.00  0.00    -0.282 N 
ATOM     12  C   UNL     1      34.127 -14.850 -22.095  0.00  0.00    +0.104 C 
ATOM     13  C   UNL     1      35.087 -15.880 -22.690  0.00  0.00    +0.091 C 
ATOM     14  C   UNL     1      33.228 -14.606 -24.373  0.00  0.00    +0.068 C 
ATOM     15  C   UNL     1      34.493 -16.599 -23.883  0.00  0.00    +0.176 C 
ATOM     16  C   UNL     1      33.605 -15.823 -24.779  0.00  0.00    +0.054 C 
ENDBRANCH   5  11
BRANCH   4  19
ATOM     17  O   UNL     1      31.593  -6.886 -20.608  0.00  0.00    -0.434 OA
ATOM     18  O   UNL     1      32.801  -8.503 -19.575  0.00  0.00    -0.226 OA
ATOM     19  N   UNL     1      31.904  -8.812 -21.742  0.00  0.00    -0.219 N 
ATOM     20  C   UNL     1      31.115  -6.645 -21.938  0.00  0.00    +0.210 C 
ATOM     21  C   UNL     1      31.020  -8.023 -22.558  0.00  0.00    +0.147 C 
ATOM     22  C   UNL     1      32.179  -8.130 -20.559  0.00  0.00    +0.409 C 
BRANCH  20  23
ATOM     23  C   UNL     1      32.098  -5.731 -22.657  0.00  0.00    +0.134 C 
BRANCH  23  25
ATOM     24  O   UNL     1      35.600  -6.127 -25.151  0.00  0.00    -0.349 OA
ATOM     25  N   UNL     1      32.268  -6.167 -24.020  0.00  0.00    -0.312 N 
ATOM     26  N   UNL     1      34.679  -5.902 -24.136  0.00  0.00    -0.062 NA
ATOM     27  C   UNL     1      33.495  -6.229 -24.664  0.00  0.00    +0.171 C 
ATOM     28  C   UNL     1      33.607  -6.662 -25.995  0.00  0.00    +0.081 C 
ATOM     29  C   UNL     1      34.950  -6.580 -26.254  0.00  0.00    +0.215 C 
ATOM     30  H   UNL     1      31.466  -6.436 -24.523  0.00  0.00    +0.148 HD
ENDBRANCH  23  25
ENDBRANCH  20  23
ENDBRANCH   4  19
TORSDOF 4
ENDMDL
MODEL 5
REMARK VINA RESULT:     -11.2      8.742     13.684
REMARK  Name = 25184541
REMARK  4 active torsions:
REMARK  status: ('A' for Active; 'I' for Inactive)
REMARK    1  A    between atoms: C_4  and  N_19
REMARK    2  A    between atoms: C_5  and  N_11
REMARK    3  A    between atoms: C_20  and  C_23
REMARK    4  A    between atoms: C_23  and  N_25
REMARK                            x       y       z     vdW  Elec       q    Type
REMARK                         _______ _______ _______ _____ _____    ______ ____
ROOT
ATOM      1  F   UNL     1      30.730 -10.950 -20.630  0.00  0.00    -0.200 F 
ATOM      2  F   UNL     1      31.480 -13.419 -21.480  0.00  0.00    -0.200 F 
ATOM      3  F   UNL     1      34.702 -11.449 -24.360  0.00  0.00    -0.203 F 
ATOM      4  C   UNL     1      32.331  -9.932 -22.059  0.00  0.00    +0.089 C 
ATOM      5  C   UNL     1      33.100 -12.467 -22.932  0.00  0.00    +0.110 C 
ATOM      6  C   UNL     1      31.704 -11.067 -21.545  0.00  0.00    +0.182 C 
ATOM      7  C   UNL     1      33.344 -10.065 -23.009  0.00  0.00    +0.048 C 
ATOM      8  C   UNL     1      32.089 -12.335 -21.982  0.00  0.00    +0.184 C 
ATOM      9  C   UNL     1      33.728 -11.332 -23.445  0.00  0.00    +0.157 C 
ENDROOT
BRANCH   5  11
ATOM     10  O   UNL     1      34.693 -17.434 -24.655  0.00  0.00    -0.291 OA
ATOM     11  N   UNL     1      33.490 -13.757 -23.379  0.00  0.00    -0.282 N 
ATOM     12  C   UNL     1      34.103 -14.662 -22.391  0.00  0.00    +0.104 C 
ATOM     13  C   UNL     1      35.041 -15.658 -23.071  0.00  0.00    +0.091 C 
ATOM     14  C   UNL     1      33.162 -14.260 -24.629  0.00  0.00    +0.068 C 
ATOM     15  C   UNL     1      34.416 -16.292 -24.297  0.00  0.00    +0.176 C 
ATOM     16  C   UNL     1      33.519 -15.451 -25.122  0.00  0.00    +0.054 C 
ENDBRANCH   5  11
BRANCH   4  19
ATOM     17  O   UNL     1      31.625  -6.801 -20.341  0.00  0.00    -0.434 OA
ATOM     18  O   UNL     1      32.714  -8.542 -19.380  0.00  0.00    -0.226 OA
ATOM     19  N   UNL     1      31.942  -8.636 -21.614  0.00  0.00    -0.219 N 
ATOM     20  C   UNL     1      31.237  -6.433 -21.671  0.00  0.00    +0.210 C 
ATOM     21  C   UNL     1      31.135  -7.750 -22.411  0.00  0.00    +0.147 C 
ATOM     22  C   UNL     1      32.165  -8.066 -20.364  0.00  0.00    +0.409 C 
BRANCH  20  23
ATOM     23  C   UNL     1      32.292  -5.500 -22.252  0.00  0.00    +0.134 C 
BRANCH  23  25
ATOM     24  O   UNL     1      35.448  -7.084 -24.735  0.00  0.00    -0.349 OA
ATOM     25  N   UNL     1      32.393  -5.697 -23.675  0.00  0.00    -0.312 N 
ATOM     26  N   UNL     1      34.633  -6.632 -23.705  0.00  0.00    -0.062 NA
ATOM     27  C   UNL     1      33.508  -6.230 -24.304  0.00  0.00    +0.171 C 
ATOM     28  C   UNL     1      33.556  -6.402 -25.698  0.00  0.00    +0.081 C 
ATOM     29  C   UNL     1      34.796  -6.942 -25.917  0.00  0.00    +0.215 C 
ATOM     30  H   UNL     1      31.624  -5.438 -24.234  0.00  0.00    +0.148 HD
ENDBRANCH  23  25
ENDBRANCH  20  23
ENDBRANCH   4  19
TORSDOF 4
ENDMDL
MODEL 6
REMARK VINA RESULT:     -11.2      9.477     14.121
REMARK  Name = 25184541
REMARK  4 active torsions:
REMARK  status: ('A' for Active; 'I' for Inactive)
REMARK    1  A    between atoms: C_4  and  N_19
REMARK    2  A    between atoms: C_5  and  N_11
REMARK    3  A    between atoms: C_20  and  C_23
REMARK    4  A    between atoms: C_23  and  N_25
REMARK                            x       y       z     vdW  Elec       q    Type
REMARK                         _______ _______ _______ _____ _____    ______ ____
ROOT
ATOM      1  F   UNL     1      30.873 -11.212 -20.421  0.00  0.00    -0.200 F 
ATOM      2  F   UNL     1      31.608 -13.675 -21.301  0.00  0.00    -0.200 F 
ATOM      3  F   UNL     1      34.636 -11.675 -24.366  0.00  0.00    -0.203 F 
ATOM      4  C   UNL     1      32.377 -10.179 -21.942  0.00  0.00    +0.089 C 
ATOM      5  C   UNL     1      33.131 -12.708 -22.846  0.00  0.00    +0.110 C 
ATOM      6  C   UNL     1      31.795 -11.320 -21.389  0.00  0.00    +0.182 C 
ATOM      7  C   UNL     1      33.336 -10.303 -22.947  0.00  0.00    +0.048 C 
ATOM      8  C   UNL     1      32.172 -12.585 -21.841  0.00  0.00    +0.184 C 
ATOM      9  C   UNL     1      33.713 -11.567 -23.399  0.00  0.00    +0.157 C 
ENDROOT
BRANCH   5  11
ATOM     10  O   UNL     1      34.694 -17.662 -24.633  0.00  0.00    -0.291 OA
ATOM     11  N   UNL     1      33.513 -13.995 -23.309  0.00  0.00    -0.282 N 
ATOM     12  C   UNL     1      34.165 -14.898 -22.345  0.00  0.00    +0.104 C 
ATOM     13  C   UNL     1      35.085 -15.887 -23.059  0.00  0.00    +0.091 C 
ATOM     14  C   UNL     1      33.145 -14.497 -24.548  0.00  0.00    +0.068 C 
ATOM     15  C   UNL     1      34.423 -16.522 -24.264  0.00  0.00    +0.176 C 
ATOM     16  C   UNL     1      33.493 -15.684 -25.055  0.00  0.00    +0.054 C 
ENDBRANCH   5  11
BRANCH   4  19
ATOM     17  O   UNL     1      31.658  -7.078 -20.176  0.00  0.00    -0.434 OA
ATOM     18  O   UNL     1      32.664  -8.867 -19.212  0.00  0.00    -0.226 OA
ATOM     19  N   UNL     1      31.995  -8.887 -21.481  0.00  0.00    -0.219 N 
ATOM     20  C   UNL     1      31.340  -6.667 -21.512  0.00  0.00    +0.210 C 
ATOM     21  C   UNL     1      31.245  -7.963 -22.290  0.00  0.00    +0.147 C 
ATOM     22  C   UNL     1      32.172  -8.354 -20.208  0.00  0.00    +0.409 C 
BRANCH  20  23
ATOM     23  C   UNL     1      32.441  -5.744 -22.019  0.00  0.00    +0.134 C 
BRANCH  23  25
ATOM     24  O   UNL     1      30.051  -2.778 -24.051  0.00  0.00    -0.349 OA
ATOM     25  N   UNL     1      32.121  -4.377 -21.697  0.00  0.00    -0.312 N 
ATOM     26  N   UNL     1      30.739  -3.912 -23.637  0.00  0.00    -0.062 NA
ATOM     27  C   UNL     1      31.322  -3.564 -22.486  0.00  0.00    +0.171 C 
ATOM     28  C   UNL     1      31.040  -2.235 -22.128  0.00  0.00    +0.081 C 
ATOM     29  C   UNL     1      30.238  -1.786 -23.143  0.00  0.00    +0.215 C 
ATOM     30  H   UNL     1      32.493  -3.997 -20.867  0.00  0.00    +0.148 HD
ENDBRANCH  23  25
ENDBRANCH  20  23
ENDBRANCH   4  19
TORSDOF 4
ENDMDL
MODEL 7
REMARK VINA RESULT:     -11.1      2.765      8.794
REMARK  Name = 25184541
REMARK  4 active torsions:
REMARK  status: ('A' for Active; 'I' for Inactive)
REMARK    1  A    between atoms: C_4  and  N_19
REMARK    2  A    between atoms: C_5  and  N_11
REMARK    3  A    between atoms: C_20  and  C_23
REMARK    4  A    between atoms: C_23  and  N_25
REMARK                            x       y       z     vdW  Elec       q    Type
REMARK                         _______ _______ _______ _____ _____    ______ ____
ROOT
ATOM      1  F   UNL     1      37.286 -18.692 -21.937  0.00  0.00    -0.200 F 
ATOM      2  F   UNL     1      37.449 -20.433 -19.859  0.00  0.00    -0.200 F 
ATOM      3  F   UNL     1      32.732 -20.983 -19.950  0.00  0.00    -0.203 F 
ATOM      4  C   UNL     1      34.925 -18.945 -22.011  0.00  0.00    +0.089 C 
ATOM      5  C   UNL     1      35.093 -20.731 -19.875  0.00  0.00    +0.110 C 
ATOM      6  C   UNL     1      36.167 -19.250 -21.454  0.00  0.00    +0.182 C 
ATOM      7  C   UNL     1      33.768 -19.532 -21.501  0.00  0.00    +0.048 C 
ATOM      8  C   UNL     1      36.250 -20.144 -20.386  0.00  0.00    +0.184 C 
ATOM      9  C   UNL     1      33.852 -20.425 -20.433  0.00  0.00    +0.157 C 
ENDROOT
BRANCH   5  11
ATOM     10  O   UNL     1      35.347 -24.204 -15.626  0.00  0.00    -0.291 OA
ATOM     11  N   UNL     1      35.178 -21.638 -18.786  0.00  0.00    -0.282 N 
ATOM     12  C   UNL     1      34.169 -22.710 -18.715  0.00  0.00    +0.104 C 
ATOM     13  C   UNL     1      33.942 -23.150 -17.269  0.00  0.00    +0.091 C 
ATOM     14  C   UNL     1      36.249 -21.672 -17.906  0.00  0.00    +0.068 C 
ATOM     15  C   UNL     1      35.242 -23.371 -16.525  0.00  0.00    +0.176 C 
ATOM     16  C   UNL     1      36.378 -22.478 -16.848  0.00  0.00    +0.054 C 
ENDBRANCH   5  11
BRANCH   4  19
ATOM     17  O   UNL     1      34.362 -17.114 -25.107  0.00  0.00    -0.434 OA
ATOM     18  O   UNL     1      33.644 -19.236 -24.754  0.00  0.00    -0.226 OA
ATOM     19  N   UNL     1      34.837 -18.034 -23.102  0.00  0.00    -0.219 N 
ATOM     20  C   UNL     1      34.886 -16.053 -24.297  0.00  0.00    +0.210 C 
ATOM     21  C   UNL     1      35.500 -16.757 -23.107  0.00  0.00    +0.147 C 
ATOM     22  C   UNL     1      34.218 -18.242 -24.332  0.00  0.00    +0.409 C 
BRANCH  20  23
ATOM     23  C   UNL     1      33.746 -15.116 -23.917  0.00  0.00    +0.134 C 
BRANCH  23  25
ATOM     24  O   UNL     1      31.588 -12.328 -21.426  0.00  0.00    -0.349 OA
ATOM     25  N   UNL     1      33.747 -14.893 -22.494  0.00  0.00    -0.312 N 
ATOM     26  N   UNL     1      32.125 -13.087 -22.458  0.00  0.00    -0.062 NA
ATOM     27  C   UNL     1      32.972 -13.932 -21.862  0.00  0.00    +0.171 C 
ATOM     28  C   UNL     1      33.011 -13.754 -20.469  0.00  0.00    +0.081 C 
ATOM     29  C   UNL     1      32.123 -12.735 -20.245  0.00  0.00    +0.215 C 
ATOM     30  H   UNL     1      34.335 -15.455 -21.938  0.00  0.00    +0.148 HD
ENDBRANCH  23  25
ENDBRANCH  20  23
ENDBRANCH   4  19
TORSDOF 4
ENDMDL
MODEL 8
REMARK VINA RESULT:     -11.0      9.590     14.279
REMARK  Name = 25184541
REMARK  4 active torsions:
REMARK  status: ('A' for Active; 'I' for Inactive)
REMARK    1  A    between atoms: C_4  and  N_19
REMARK    2  A    between atoms: C_5  and  N_11
REMARK    3  A    between atoms: C_20  and  C_23
REMARK    4  A    between atoms: C_23  and  N_25
REMARK                            x       y       z     vdW  Elec       q    Type
REMARK                         _______ _______ _______ _____ _____    ______ ____
ROOT
ATOM      1  F   UNL     1      33.983  -9.160 -23.419  0.00  0.00    -0.200 F 
ATOM      2  F   UNL     1      34.701 -11.615 -24.332  0.00  0.00    -0.200 F 
ATOM      3  F   UNL     1      31.550 -13.626 -21.401  0.00  0.00    -0.203 F 
ATOM      4  C   UNL     1      32.398 -10.132 -21.942  0.00  0.00    +0.089 C 
ATOM      5  C   UNL     1      33.136 -12.654 -22.878  0.00  0.00    +0.110 C 
ATOM      6  C   UNL     1      33.384 -10.251 -22.920  0.00  0.00    +0.182 C 
ATOM      7  C   UNL     1      31.780 -11.274 -21.431  0.00  0.00    +0.048 C 
ATOM      8  C   UNL     1      33.753 -11.513 -23.389  0.00  0.00    +0.184 C 
ATOM      9  C   UNL     1      32.150 -12.535 -21.899  0.00  0.00    +0.157 C 
ENDROOT
BRANCH   5  11
ATOM     10  O   UNL     1      34.682 -17.597 -24.709  0.00  0.00    -0.291 OA
ATOM     11  N   UNL     1      33.514 -13.938 -23.353  0.00  0.00    -0.282 N 
ATOM     12  C   UNL     1      34.150 -14.857 -22.393  0.00  0.00    +0.104 C 
ATOM     13  C   UNL     1      35.070 -15.844 -23.110  0.00  0.00    +0.091 C 
ATOM     14  C   UNL     1      33.155 -14.423 -24.601  0.00  0.00    +0.068 C 
ATOM     15  C   UNL     1      34.415 -16.460 -24.329  0.00  0.00    +0.176 C 
ATOM     16  C   UNL     1      33.499 -15.606 -25.119  0.00  0.00    +0.054 C 
ENDBRANCH   5  11
BRANCH   4  19
ATOM     17  O   UNL     1      31.704  -7.049 -20.134  0.00  0.00    -0.434 OA
ATOM     18  O   UNL     1      32.751  -8.837 -19.212  0.00  0.00    -0.226 OA
ATOM     19  N   UNL     1      32.018  -8.846 -21.462  0.00  0.00    -0.219 N 
ATOM     20  C   UNL     1      31.346  -6.632 -21.458  0.00  0.00    +0.210 C 
ATOM     21  C   UNL     1      31.239  -7.923 -22.242  0.00  0.00    +0.147 C 
ATOM     22  C   UNL     1      32.227  -8.321 -20.190  0.00  0.00    +0.409 C 
BRANCH  20  23
ATOM     23  C   UNL     1      32.424  -5.696 -21.989  0.00  0.00    +0.134 C 
BRANCH  23  25
ATOM     24  O   UNL     1      30.029  -2.794 -24.104  0.00  0.00    -0.349 OA
ATOM     25  N   UNL     1      32.078  -4.330 -21.691  0.00  0.00    -0.312 N 
ATOM     26  N   UNL     1      30.726  -3.912 -23.663  0.00  0.00    -0.062 NA
ATOM     27  C   UNL     1      31.281  -3.539 -22.506  0.00  0.00    +0.171 C 
ATOM     28  C   UNL     1      30.973  -2.211 -22.170  0.00  0.00    +0.081 C 
ATOM     29  C   UNL     1      30.184  -1.787 -23.206  0.00  0.00    +0.215 C 
ATOM     30  H   UNL     1      32.429  -3.933 -20.860  0.00  0.00    +0.148 HD
ENDBRANCH  23  25
ENDBRANCH  20  23
ENDBRANCH   4  19
TORSDOF 4
ENDMDL
MODEL 9
REMARK VINA RESULT:     -10.9      1.122      2.325
REMARK  Name = 25184541
REMARK  4 active torsions:
REMARK  status: ('A' for Active; 'I' for Inactive)
REMARK    1  A    between atoms: C_4  and  N_19
REMARK    2  A    between atoms: C_5  and  N_11
REMARK    3  A    between atoms: C_20  and  C_23
REMARK    4  A    between atoms: C_23  and  N_25
REMARK                            x       y       z     vdW  Elec       q    Type
REMARK                         _______ _______ _______ _____ _____    ______ ____
ROOT
ATOM      1  F   UNL     1      36.982 -21.867 -18.584  0.00  0.00    -0.200 F 
ATOM      2  F   UNL     1      36.984 -20.153 -20.691  0.00  0.00    -0.200 F 
ATOM      3  F   UNL     1      32.235 -20.206 -20.739  0.00  0.00    -0.203 F 
ATOM      4  C   UNL     1      34.608 -21.916 -18.579  0.00  0.00    +0.089 C 
ATOM      5  C   UNL     1      34.610 -20.157 -20.744  0.00  0.00    +0.110 C 
ATOM      6  C   UNL     1      35.816 -21.463 -19.109  0.00  0.00    +0.182 C 
ATOM      7  C   UNL     1      33.400 -21.489 -19.132  0.00  0.00    +0.048 C 
ATOM      8  C   UNL     1      35.817 -20.583 -20.191  0.00  0.00    +0.184 C 
ATOM      9  C   UNL     1      33.402 -20.610 -20.214  0.00  0.00    +0.157 C 
ENDROOT
BRANCH   5  11
ATOM     10  O   UNL     1      34.670 -16.756 -25.057  0.00  0.00    -0.291 OA
ATOM     11  N   UNL     1      34.611 -19.264 -21.848  0.00  0.00    -0.282 N 
ATOM     12  C   UNL     1      33.929 -19.703 -23.078  0.00  0.00    +0.104 C 
ATOM     13  C   UNL     1      34.542 -19.037 -24.309  0.00  0.00    +0.091 C 
ATOM     14  C   UNL     1      35.055 -17.953 -21.765  0.00  0.00    +0.068 C 
ATOM     15  C   UNL     1      34.736 -17.547 -24.120  0.00  0.00    +0.176 C 
ATOM     16  C   UNL     1      35.109 -17.071 -22.768  0.00  0.00    +0.054 C 
ENDBRANCH   5  11
BRANCH   4  19
ATOM     17  O   UNL     1      35.236 -24.014 -15.671  0.00  0.00    -0.434 OA
ATOM     18  O   UNL     1      36.790 -22.640 -16.587  0.00  0.00    -0.226 OA
ATOM     19  N   UNL     1      34.603 -22.813 -17.473  0.00  0.00    -0.219 N 
ATOM     20  C   UNL     1      33.819 -24.197 -15.792  0.00  0.00    +0.210 C 
ATOM     21  C   UNL     1      33.490 -23.675 -17.174  0.00  0.00    +0.147 C 
ATOM     22  C   UNL     1      35.650 -23.083 -16.597  0.00  0.00    +0.409 C 
BRANCH  20  23
ATOM     23  C   UNL     1      33.126 -23.422 -14.678  0.00  0.00    +0.134 C 
BRANCH  23  25
ATOM     24  O   UNL     1      29.925 -26.267 -14.133  0.00  0.00    -0.349 OA
ATOM     25  N   UNL     1      31.712 -23.345 -14.940  0.00  0.00    -0.312 N 
ATOM     26  N   UNL     1      31.131 -25.580 -14.193  0.00  0.00    -0.062 NA
ATOM     27  C   UNL     1      30.823 -24.381 -14.696  0.00  0.00    +0.171 C 
ATOM     28  C   UNL     1      29.451 -24.255 -14.970  0.00  0.00    +0.081 C 
ATOM     29  C   UNL     1      28.931 -25.467 -14.598  0.00  0.00    +0.215 C 
ATOM     30  H   UNL     1      31.355 -22.507 -15.316  0.00  0.00    +0.148 HD
ENDBRANCH  23  25
ENDBRANCH  20  23
ENDBRANCH   4  19
TORSDOF 4
ENDMDL
