MODEL 1
REMARK VINA RESULT:     -11.7      0.000      0.000
REMARK  Name = 72734520
REMARK  6 active torsions:
REMARK  status: ('A' for Active; 'I' for Inactive)
REMARK    1  A    between atoms: N_1  and  C_19
REMARK    2  A    between atoms: C_8  and  O_28
REMARK    3  A    between atoms: C_14  and  N_20
REMARK    4  A    between atoms: O_28  and  C_29
REMARK    5  A    between atoms: C_32  and  N_36
REMARK    6  A    between atoms: C_37  and  C_39
REMARK                            x       y       z     vdW  Elec       q    Type
REMARK                         _______ _______ _______ _____ _____    ______ ____
ROOT
ATOM      1  N   UNL     1      36.589 -22.787 -17.287  0.00  0.00    -0.238 N 
ATOM      2  N   UNL     1      36.599 -24.042 -15.319  0.00  0.00    -0.316 NA
ATOM      3  N   UNL     1      34.700 -22.642 -15.920  0.00  0.00    -0.294 NA
ATOM      4  N   UNL     1      36.289 -25.200 -13.227  0.00  0.00    -0.289 N 
ATOM      5  C   UNL     1      35.925 -23.180 -16.109  0.00  0.00    +0.207 C 
ATOM      6  C   UNL     1      34.619 -23.880 -13.897  0.00  0.00    +0.181 C 
ATOM      7  C   UNL     1      35.884 -24.352 -14.223  0.00  0.00    +0.188 C 
ATOM      8  C   UNL     1      34.031 -22.993 -14.798  0.00  0.00    +0.281 C 
ATOM      9  C   UNL     1      34.264 -24.473 -12.659  0.00  0.00    +0.008 C 
ATOM     10  C   UNL     1      35.311 -25.281 -12.270  0.00  0.00    +0.060 C 
ATOM     11  H   UNL     1      37.479 -23.195 -17.396  0.00  0.00    +0.166 HD
ATOM     12  H   UNL     1      37.149 -25.678 -13.202  0.00  0.00    +0.154 HD
ENDROOT
BRANCH   1  19
ATOM     13  F   UNL     1      33.315 -21.107 -20.358  0.00  0.00    -0.203 F 
ATOM     14  C   UNL     1      35.516 -20.219 -20.433  0.00  0.00    +0.076 C 
ATOM     15  C   UNL     1      34.569 -21.085 -19.887  0.00  0.00    +0.155 C 
ATOM     16  C   UNL     1      36.819 -20.207 -19.936  0.00  0.00    +0.018 C 
ATOM     17  C   UNL     1      34.926 -21.937 -18.841  0.00  0.00    +0.046 C 
ATOM     18  C   UNL     1      37.175 -21.059 -18.891  0.00  0.00    +0.017 C 
ATOM     19  C   UNL     1      36.229 -21.924 -18.344  0.00  0.00    +0.061 C 
BRANCH  14  20
ATOM     20  N   UNL     1      35.162 -19.363 -21.483  0.00  0.00    -0.310 N 
ATOM     21  N   UNL     1      34.691 -17.613 -23.690  0.00  0.00    +0.388 N 
ATOM     22  C   UNL     1      35.680 -17.990 -21.456  0.00  0.00    +0.068 C 
ATOM     23  C   UNL     1      34.897 -19.916 -22.814  0.00  0.00    +0.068 C 
ATOM     24  C   UNL     1      34.820 -17.074 -22.330  0.00  0.00    -0.056 C 
ATOM     25  C   UNL     1      34.062 -18.938 -23.645  0.00  0.00    -0.056 C 
ATOM     26  C   UNL     1      33.913 -16.703 -24.531  0.00  0.00    -0.101 C 
ATOM     27  H   UNL     1      35.621 -17.704 -24.097  0.00  0.00    -0.080 HD
ENDBRANCH  14  20
ENDBRANCH   1  19
BRANCH   8  28
ATOM     28  O   UNL     1      32.785 -22.456 -14.592  0.00  0.00    -0.429 OA
BRANCH  28  29
ATOM     29  C   UNL     1      31.697 -23.263 -14.859  0.00  0.00    +0.149 C 
ATOM     30  C   UNL     1      30.686 -22.809 -15.707  0.00  0.00    +0.052 C 
ATOM     31  C   UNL     1      31.609 -24.530 -14.284  0.00  0.00    +0.038 C 
ATOM     32  C   UNL     1      29.587 -23.624 -15.979  0.00  0.00    +0.054 C 
ATOM     33  C   UNL     1      29.498 -24.891 -15.403  0.00  0.00    +0.015 C 
ATOM     34  C   UNL     1      30.510 -25.345 -14.556  0.00  0.00    +0.004 C 
BRANCH  32  36
ATOM     35  O   UNL     1      26.784 -22.738 -15.364  0.00  0.00    -0.270 OA
ATOM     36  N   UNL     1      28.576 -23.171 -16.827  0.00  0.00    -0.280 N 
ATOM     37  C   UNL     1      27.278 -22.767 -16.486  0.00  0.00    +0.250 C 
ATOM     38  H   UNL     1      28.803 -23.130 -17.784  0.00  0.00    +0.155 HD
BRANCH  37  39
ATOM     39  C   UNL     1      26.497 -22.349 -17.686  0.00  0.00    +0.058 C 
ATOM     40  C   UNL     1      25.718 -21.265 -17.646  0.00  0.00    +0.005 C 
ENDBRANCH  37  39
ENDBRANCH  32  36
ENDBRANCH  28  29
ENDBRANCH   8  28
TORSDOF 6
ENDMDL
MODEL 2
REMARK VINA RESULT:     -11.2      4.174     10.292
REMARK  Name = 72734520
REMARK  6 active torsions:
REMARK  status: ('A' for Active; 'I' for Inactive)
REMARK    1  A    between atoms: N_1  and  C_19
REMARK    2  A    between atoms: C_8  and  O_28
REMARK    3  A    between atoms: C_14  and  N_20
REMARK    4  A    between atoms: O_28  and  C_29
REMARK    5  A    between atoms: C_32  and  N_36
REMARK    6  A    between atoms: C_37  and  C_39
REMARK                            x       y       z     vdW  Elec       q    Type
REMARK                         _______ _______ _______ _____ _____    ______ ____
ROOT
ATOM      1  N   UNL     1      35.099 -20.939 -21.193  0.00  0.00    -0.238 N 
ATOM      2  N   UNL     1      34.813 -19.552 -23.048  0.00  0.00    -0.316 NA
ATOM      3  N   UNL     1      35.132 -18.632 -20.816  0.00  0.00    -0.294 NA
ATOM      4  N   UNL     1      34.546 -17.851 -24.736  0.00  0.00    -0.289 N 
ATOM      5  C   UNL     1      35.010 -19.634 -21.716  0.00  0.00    +0.207 C 
ATOM      6  C   UNL     1      34.848 -17.143 -22.641  0.00  0.00    +0.181 C 
ATOM      7  C   UNL     1      34.740 -18.270 -23.447  0.00  0.00    +0.188 C 
ATOM      8  C   UNL     1      35.051 -17.365 -21.280  0.00  0.00    +0.281 C 
ATOM      9  C   UNL     1      34.711 -16.014 -23.489  0.00  0.00    +0.008 C 
ATOM     10  C   UNL     1      34.525 -16.480 -24.773  0.00  0.00    +0.060 C 
ATOM     11  H   UNL     1      35.006 -21.645 -21.872  0.00  0.00    +0.166 HD
ATOM     12  H   UNL     1      34.437 -18.442 -25.516  0.00  0.00    +0.154 HD
ENDROOT
BRANCH   1  19
ATOM     13  F   UNL     1      33.470 -23.255 -17.325  0.00  0.00    -0.203 F 
ATOM     14  C   UNL     1      35.688 -22.405 -17.300  0.00  0.00    +0.076 C 
ATOM     15  C   UNL     1      34.465 -22.601 -17.942  0.00  0.00    +0.155 C 
ATOM     16  C   UNL     1      36.715 -21.722 -17.952  0.00  0.00    +0.018 C 
ATOM     17  C   UNL     1      34.270 -22.114 -19.235  0.00  0.00    +0.046 C 
ATOM     18  C   UNL     1      36.520 -21.235 -19.244  0.00  0.00    +0.017 C 
ATOM     19  C   UNL     1      35.297 -21.432 -19.886  0.00  0.00    +0.061 C 
BRANCH  14  20
ATOM     20  N   UNL     1      35.887 -22.891 -16.003  0.00  0.00    -0.310 N 
ATOM     21  N   UNL     1      36.360 -23.641 -13.288  0.00  0.00    +0.388 N 
ATOM     22  C   UNL     1      37.251 -22.866 -15.460  0.00  0.00    +0.068 C 
ATOM     23  C   UNL     1      34.808 -22.791 -15.016  0.00  0.00    +0.068 C 
ATOM     24  C   UNL     1      37.389 -23.867 -14.310  0.00  0.00    -0.056 C 
ATOM     25  C   UNL     1      35.026 -23.794 -13.880  0.00  0.00    -0.056 C 
ATOM     26  C   UNL     1      36.535 -24.567 -12.170  0.00  0.00    -0.101 C 
ATOM     27  H   UNL     1      36.454 -22.690 -12.932  0.00  0.00    -0.080 HD
ENDBRANCH  14  20
ENDBRANCH   1  19
BRANCH   8  28
ATOM     28  O   UNL     1      35.174 -16.337 -20.379  0.00  0.00    -0.429 OA
BRANCH  28  29
ATOM     29  C   UNL     1      34.162 -15.399 -20.347  0.00  0.00    +0.149 C 
ATOM     30  C   UNL     1      34.267 -14.235 -21.110  0.00  0.00    +0.052 C 
ATOM     31  C   UNL     1      33.035 -15.614 -19.555  0.00  0.00    +0.038 C 
ATOM     32  C   UNL     1      33.244 -13.287 -21.079  0.00  0.00    +0.054 C 
ATOM     33  C   UNL     1      32.117 -13.503 -20.287  0.00  0.00    +0.015 C 
ATOM     34  C   UNL     1      32.012 -14.667 -19.525  0.00  0.00    +0.004 C 
BRANCH  32  36
ATOM     35  O   UNL     1      33.204 -12.905 -24.057  0.00  0.00    -0.270 OA
ATOM     36  N   UNL     1      33.349 -12.123 -21.842  0.00  0.00    -0.280 N 
ATOM     37  C   UNL     1      33.323 -12.001 -23.238  0.00  0.00    +0.250 C 
ATOM     38  H   UNL     1      33.452 -11.285 -21.337  0.00  0.00    +0.155 HD
BRANCH  37  39
ATOM     39  C   UNL     1      33.464 -10.580 -23.669  0.00  0.00    +0.058 C 
ATOM     40  C   UNL     1      32.684  -9.631 -23.144  0.00  0.00    +0.005 C 
ENDBRANCH  37  39
ENDBRANCH  32  36
ENDBRANCH  28  29
ENDBRANCH   8  28
TORSDOF 6
ENDMDL
MODEL 3
REMARK VINA RESULT:     -11.1      1.024      1.536
REMARK  Name = 72734520
REMARK  6 active torsions:
REMARK  status: ('A' for Active; 'I' for Inactive)
REMARK    1  A    between atoms: N_1  and  C_19
REMARK    2  A    between atoms: C_8  and  O_28
REMARK    3  A    between atoms: C_14  and  N_20
REMARK    4  A    between atoms: O_28  and  C_29
REMARK    5  A    between atoms: C_32  and  N_36
REMARK    6  A    between atoms: C_37  and  C_39
REMARK                            x       y       z     vdW  Elec       q    Type
REMARK                         _______ _______ _______ _____ _____    ______ ____
ROOT
ATOM      1  N   UNL     1      36.646 -22.843 -17.257  0.00  0.00    -0.238 N 
ATOM      2  N   UNL     1      36.684 -24.097 -15.289  0.00  0.00    -0.316 NA
ATOM      3  N   UNL     1      34.818 -22.626 -15.817  0.00  0.00    -0.294 NA
ATOM      4  N   UNL     1      36.412 -25.243 -13.185  0.00  0.00    -0.289 N 
ATOM      5  C   UNL     1      36.013 -23.210 -16.053  0.00  0.00    +0.207 C 
ATOM      6  C   UNL     1      34.769 -23.860 -13.791  0.00  0.00    +0.181 C 
ATOM      7  C   UNL     1      36.001 -24.380 -14.166  0.00  0.00    +0.188 C 
ATOM      8  C   UNL     1      34.180 -22.952 -14.670  0.00  0.00    +0.281 C 
ATOM      9  C   UNL     1      34.439 -24.440 -12.539  0.00  0.00    +0.008 C 
ATOM     10  C   UNL     1      35.469 -25.287 -12.190  0.00  0.00    +0.060 C 
ATOM     11  H   UNL     1      37.514 -23.284 -17.399  0.00  0.00    +0.166 HD
ATOM     12  H   UNL     1      37.253 -25.754 -13.193  0.00  0.00    +0.154 HD
ENDROOT
BRANCH   1  19
ATOM     13  F   UNL     1      37.717 -19.269 -20.265  0.00  0.00    -0.203 F 
ATOM     14  C   UNL     1      35.549 -20.233 -20.361  0.00  0.00    +0.076 C 
ATOM     15  C   UNL     1      36.829 -20.164 -19.812  0.00  0.00    +0.155 C 
ATOM     16  C   UNL     1      34.633 -21.168 -19.878  0.00  0.00    +0.018 C 
ATOM     17  C   UNL     1      37.193 -21.031 -18.781  0.00  0.00    +0.046 C 
ATOM     18  C   UNL     1      34.997 -22.035 -18.848  0.00  0.00    +0.017 C 
ATOM     19  C   UNL     1      36.277 -21.966 -18.299  0.00  0.00    +0.061 C 
BRANCH  14  20
ATOM     20  N   UNL     1      35.180 -19.364 -21.393  0.00  0.00    -0.310 N 
ATOM     21  N   UNL     1      34.186 -17.593 -23.402  0.00  0.00    +0.388 N 
ATOM     22  C   UNL     1      34.215 -19.847 -22.389  0.00  0.00    +0.068 C 
ATOM     23  C   UNL     1      35.181 -17.916 -21.162  0.00  0.00    +0.068 C 
ATOM     24  C   UNL     1      34.318 -19.029 -23.678  0.00  0.00    -0.056 C 
ATOM     25  C   UNL     1      35.252 -17.160 -22.491  0.00  0.00    -0.056 C 
ATOM     26  C   UNL     1      34.232 -16.825 -24.646  0.00  0.00    -0.101 C 
ATOM     27  H   UNL     1      33.285 -17.425 -22.957  0.00  0.00    -0.080 HD
ENDBRANCH  14  20
ENDBRANCH   1  19
BRANCH   8  28
ATOM     28  O   UNL     1      32.964 -22.368 -14.416  0.00  0.00    -0.429 OA
BRANCH  28  29
ATOM     29  C   UNL     1      31.842 -23.160 -14.552  0.00  0.00    +0.149 C 
ATOM     30  C   UNL     1      30.616 -22.579 -14.881  0.00  0.00    +0.052 C 
ATOM     31  C   UNL     1      31.933 -24.538 -14.364  0.00  0.00    +0.038 C 
ATOM     32  C   UNL     1      29.481 -23.379 -15.020  0.00  0.00    +0.054 C 
ATOM     33  C   UNL     1      29.572 -24.758 -14.831  0.00  0.00    +0.015 C 
ATOM     34  C   UNL     1      30.798 -25.338 -14.504  0.00  0.00    +0.004 C 
BRANCH  32  36
ATOM     35  O   UNL     1      27.813 -23.635 -17.503  0.00  0.00    -0.270 OA
ATOM     36  N   UNL     1      28.255 -22.799 -15.349  0.00  0.00    -0.280 N 
ATOM     37  C   UNL     1      27.516 -22.954 -16.529  0.00  0.00    +0.250 C 
ATOM     38  H   UNL     1      27.861 -22.208 -14.667  0.00  0.00    +0.155 HD
BRANCH  37  39
ATOM     39  C   UNL     1      26.251 -22.164 -16.494  0.00  0.00    +0.058 C 
ATOM     40  C   UNL     1      25.886 -21.419 -17.542  0.00  0.00    +0.005 C 
ENDBRANCH  37  39
ENDBRANCH  32  36
ENDBRANCH  28  29
ENDBRANCH   8  28
TORSDOF 6
ENDMDL
MODEL 4
REMARK VINA RESULT:     -10.7     10.401     17.292
REMARK  Name = 72734520
REMARK  6 active torsions:
REMARK  status: ('A' for Active; 'I' for Inactive)
REMARK    1  A    between atoms: N_1  and  C_19
REMARK    2  A    between atoms: C_8  and  O_28
REMARK    3  A    between atoms: C_14  and  N_20
REMARK    4  A    between atoms: O_28  and  C_29
REMARK    5  A    between atoms: C_32  and  N_36
REMARK    6  A    between atoms: C_37  and  C_39
REMARK                            x       y       z     vdW  Elec       q    Type
REMARK                         _______ _______ _______ _____ _____    ______ ____
ROOT
ATOM      1  N   UNL     1      31.472  -9.871 -22.090  0.00  0.00    -0.238 N 
ATOM      2  N   UNL     1      30.967  -7.600 -22.283  0.00  0.00    -0.316 NA
ATOM      3  N   UNL     1      33.114  -8.486 -23.012  0.00  0.00    -0.294 NA
ATOM      4  N   UNL     1      30.768  -5.221 -22.619  0.00  0.00    -0.289 N 
ATOM      5  C   UNL     1      31.873  -8.579 -22.485  0.00  0.00    +0.207 C 
ATOM      6  C   UNL     1      32.691  -6.163 -23.247  0.00  0.00    +0.181 C 
ATOM      7  C   UNL     1      31.443  -6.410 -22.688  0.00  0.00    +0.188 C 
ATOM      8  C   UNL     1      33.535  -7.262 -23.402  0.00  0.00    +0.281 C 
ATOM      9  C   UNL     1      32.755  -4.772 -23.517  0.00  0.00    +0.008 C 
ATOM     10  C   UNL     1      31.557  -4.217 -23.120  0.00  0.00    +0.060 C 
ATOM     11  H   UNL     1      30.565  -9.905 -21.709  0.00  0.00    +0.166 HD
ATOM     12  H   UNL     1      29.857  -5.104 -22.264  0.00  0.00    +0.154 HD
ENDROOT
BRANCH   1  19
ATOM     13  F   UNL     1      32.267 -14.212 -20.220  0.00  0.00    -0.203 F 
ATOM     14  C   UNL     1      33.391 -13.606 -22.223  0.00  0.00    +0.076 C 
ATOM     15  C   UNL     1      32.509 -13.311 -21.183  0.00  0.00    +0.155 C 
ATOM     16  C   UNL     1      33.635 -12.659 -23.218  0.00  0.00    +0.018 C 
ATOM     17  C   UNL     1      31.872 -12.071 -21.139  0.00  0.00    +0.046 C 
ATOM     18  C   UNL     1      32.998 -11.419 -23.174  0.00  0.00    +0.017 C 
ATOM     19  C   UNL     1      32.116 -11.125 -22.135  0.00  0.00    +0.061 C 
BRANCH  14  20
ATOM     20  N   UNL     1      34.032 -14.848 -22.270  0.00  0.00    -0.310 N 
ATOM     21  N   UNL     1      35.557 -17.258 -22.440  0.00  0.00    +0.388 N 
ATOM     22  C   UNL     1      34.488 -15.340 -23.576  0.00  0.00    +0.068 C 
ATOM     23  C   UNL     1      34.803 -15.312 -21.113  0.00  0.00    +0.068 C 
ATOM     24  C   UNL     1      34.673 -16.859 -23.543  0.00  0.00    -0.056 C 
ATOM     25  C   UNL     1      34.980 -16.832 -21.159  0.00  0.00    -0.056 C 
ATOM     26  C   UNL     1      35.770 -18.705 -22.451  0.00  0.00    -0.101 C 
ATOM     27  H   UNL     1      36.460 -16.802 -22.561  0.00  0.00    -0.080 HD
ENDBRANCH  14  20
ENDBRANCH   1  19
BRANCH   8  28
ATOM     28  O   UNL     1      34.792  -7.151 -23.941  0.00  0.00    -0.429 OA
BRANCH  28  29
ATOM     29  C   UNL     1      34.889  -6.650 -25.223  0.00  0.00    +0.149 C 
ATOM     30  C   UNL     1      35.754  -5.589 -25.493  0.00  0.00    +0.052 C 
ATOM     31  C   UNL     1      34.122  -7.202 -26.249  0.00  0.00    +0.038 C 
ATOM     32  C   UNL     1      35.853  -5.082 -26.789  0.00  0.00    +0.054 C 
ATOM     33  C   UNL     1      35.087  -5.635 -27.815  0.00  0.00    +0.015 C 
ATOM     34  C   UNL     1      34.222  -6.696 -27.545  0.00  0.00    +0.004 C 
BRANCH  32  36
ATOM     35  O   UNL     1      35.296  -2.150 -27.115  0.00  0.00    -0.270 OA
ATOM     36  N   UNL     1      36.720  -4.022 -27.059  0.00  0.00    -0.280 N 
ATOM     37  C   UNL     1      36.404  -2.664 -27.201  0.00  0.00    +0.250 C 
ATOM     38  H   UNL     1      37.670  -4.258 -27.161  0.00  0.00    +0.155 HD
BRANCH  37  39
ATOM     39  C   UNL     1      37.617  -1.844 -27.487  0.00  0.00    +0.058 C 
ATOM     40  C   UNL     1      38.649  -1.839 -26.638  0.00  0.00    +0.005 C 
ENDBRANCH  37  39
ENDBRANCH  32  36
ENDBRANCH  28  29
ENDBRANCH   8  28
TORSDOF 6
ENDMDL
MODEL 5
REMARK VINA RESULT:     -10.5     10.787     17.309
REMARK  Name = 72734520
REMARK  6 active torsions:
REMARK  status: ('A' for Active; 'I' for Inactive)
REMARK    1  A    between atoms: N_1  and  C_19
REMARK    2  A    between atoms: C_8  and  O_28
REMARK    3  A    between atoms: C_14  and  N_20
REMARK    4  A    between atoms: O_28  and  C_29
REMARK    5  A    between atoms: C_32  and  N_36
REMARK    6  A    between atoms: C_37  and  C_39
REMARK                            x       y       z     vdW  Elec       q    Type
REMARK                         _______ _______ _______ _____ _____    ______ ____
ROOT
ATOM      1  N   UNL     1      31.060  -8.996 -21.791  0.00  0.00    -0.238 N 
ATOM      2  N   UNL     1      30.596  -6.719 -21.577  0.00  0.00    -0.316 NA
ATOM      3  N   UNL     1      32.648  -7.500 -22.629  0.00  0.00    -0.294 NA
ATOM      4  N   UNL     1      30.428  -4.314 -21.515  0.00  0.00    -0.289 N 
ATOM      5  C   UNL     1      31.456  -7.662 -22.012  0.00  0.00    +0.207 C 
ATOM      6  C   UNL     1      32.264  -5.164 -22.454  0.00  0.00    +0.181 C 
ATOM      7  C   UNL     1      31.065  -5.484 -21.831  0.00  0.00    +0.188 C 
ATOM      8  C   UNL     1      33.064  -6.233 -22.856  0.00  0.00    +0.281 C 
ATOM      9  C   UNL     1      32.338  -3.749 -22.507  0.00  0.00    +0.008 C 
ATOM     10  C   UNL     1      31.194  -3.252 -21.921  0.00  0.00    +0.060 C 
ATOM     11  H   UNL     1      30.189  -9.081 -21.341  0.00  0.00    +0.166 HD
ATOM     12  H   UNL     1      29.554  -4.245 -21.065  0.00  0.00    +0.154 HD
ENDROOT
BRANCH   1  19
ATOM     13  F   UNL     1      31.704 -13.652 -20.856  0.00  0.00    -0.203 F 
ATOM     14  C   UNL     1      32.867 -12.682 -22.685  0.00  0.00    +0.076 C 
ATOM     15  C   UNL     1      31.983 -12.581 -21.611  0.00  0.00    +0.155 C 
ATOM     16  C   UNL     1      33.151 -11.558 -23.461  0.00  0.00    +0.018 C 
ATOM     17  C   UNL     1      31.383 -11.356 -21.314  0.00  0.00    +0.046 C 
ATOM     18  C   UNL     1      32.551 -10.335 -23.165  0.00  0.00    +0.017 C 
ATOM     19  C   UNL     1      31.667 -10.234 -22.092  0.00  0.00    +0.061 C 
BRANCH  14  20
ATOM     20  N   UNL     1      33.472 -13.908 -22.984  0.00  0.00    -0.310 N 
ATOM     21  N   UNL     1      34.887 -16.275 -23.723  0.00  0.00    +0.388 N 
ATOM     22  C   UNL     1      33.522 -14.326 -24.390  0.00  0.00    +0.068 C 
ATOM     23  C   UNL     1      34.553 -14.412 -22.133  0.00  0.00    +0.068 C 
ATOM     24  C   UNL     1      33.715 -15.841 -24.493  0.00  0.00    -0.056 C 
ATOM     25  C   UNL     1      34.714 -15.924 -22.309  0.00  0.00    -0.056 C 
ATOM     26  C   UNL     1      35.094 -17.716 -23.873  0.00  0.00    -0.101 C 
ATOM     27  H   UNL     1      35.713 -15.797 -24.083  0.00  0.00    -0.080 HD
ENDBRANCH  14  20
ENDBRANCH   1  19
BRANCH   8  28
ATOM     28  O   UNL     1      34.272  -6.051 -23.483  0.00  0.00    -0.429 OA
BRANCH  28  29
ATOM     29  C   UNL     1      34.264  -5.978 -24.861  0.00  0.00    +0.149 C 
ATOM     30  C   UNL     1      33.515  -4.991 -25.502  0.00  0.00    +0.052 C 
ATOM     31  C   UNL     1      35.006  -6.888 -25.613  0.00  0.00    +0.038 C 
ATOM     32  C   UNL     1      33.508  -4.915 -26.895  0.00  0.00    +0.054 C 
ATOM     33  C   UNL     1      34.249  -5.826 -27.647  0.00  0.00    +0.015 C 
ATOM     34  C   UNL     1      34.999  -6.812 -27.006  0.00  0.00    +0.004 C 
BRANCH  32  36
ATOM     35  O   UNL     1      32.656  -4.675 -29.764  0.00  0.00    -0.270 OA
ATOM     36  N   UNL     1      32.759  -3.927 -27.536  0.00  0.00    -0.280 N 
ATOM     37  C   UNL     1      32.388  -3.864 -28.886  0.00  0.00    +0.250 C 
ATOM     38  H   UNL     1      32.453  -3.182 -26.969  0.00  0.00    +0.155 HD
BRANCH  37  39
ATOM     39  C   UNL     1      31.584  -2.642 -29.180  0.00  0.00    +0.058 C 
ATOM     40  C   UNL     1      30.401  -2.739 -29.792  0.00  0.00    +0.005 C 
ENDBRANCH  37  39
ENDBRANCH  32  36
ENDBRANCH  28  29
ENDBRANCH   8  28
TORSDOF 6
ENDMDL
MODEL 6
REMARK VINA RESULT:     -10.4      5.012     11.371
REMARK  Name = 72734520
REMARK  6 active torsions:
REMARK  status: ('A' for Active; 'I' for Inactive)
REMARK    1  A    between atoms: N_1  and  C_19
REMARK    2  A    between atoms: C_8  and  O_28
REMARK    3  A    between atoms: C_14  and  N_20
REMARK    4  A    between atoms: O_28  and  C_29
REMARK    5  A    between atoms: C_32  and  N_36
REMARK    6  A    between atoms: C_37  and  C_39
REMARK                            x       y       z     vdW  Elec       q    Type
REMARK                         _______ _______ _______ _____ _____    ______ ____
ROOT
ATOM      1  N   UNL     1      34.463 -18.570 -23.408  0.00  0.00    -0.238 N 
ATOM      2  N   UNL     1      34.025 -16.894 -24.972  0.00  0.00    -0.316 NA
ATOM      3  N   UNL     1      34.480 -16.363 -22.640  0.00  0.00    -0.294 NA
ATOM      4  N   UNL     1      33.612 -14.937 -26.319  0.00  0.00    -0.289 N 
ATOM      5  C   UNL     1      34.315 -17.198 -23.690  0.00  0.00    +0.207 C 
ATOM      6  C   UNL     1      34.044 -14.591 -24.157  0.00  0.00    +0.181 C 
ATOM      7  C   UNL     1      33.902 -15.566 -25.137  0.00  0.00    +0.188 C 
ATOM      8  C   UNL     1      34.344 -15.037 -22.871  0.00  0.00    +0.281 C 
ATOM      9  C   UNL     1      33.828 -13.338 -24.786  0.00  0.00    +0.008 C 
ATOM     10  C   UNL     1      33.564 -13.582 -26.117  0.00  0.00    +0.060 C 
ATOM     11  H   UNL     1      34.337 -19.152 -24.192  0.00  0.00    +0.166 HD
ATOM     12  H   UNL     1      33.461 -15.388 -27.181  0.00  0.00    +0.154 HD
ENDROOT
BRANCH   1  19
ATOM     13  F   UNL     1      33.028 -21.105 -19.602  0.00  0.00    -0.203 F 
ATOM     14  C   UNL     1      35.346 -20.666 -19.876  0.00  0.00    +0.076 C 
ATOM     15  C   UNL     1      34.024 -20.552 -20.307  0.00  0.00    +0.155 C 
ATOM     16  C   UNL     1      36.373 -20.083 -20.617  0.00  0.00    +0.018 C 
ATOM     17  C   UNL     1      33.731 -19.856 -21.481  0.00  0.00    +0.046 C 
ATOM     18  C   UNL     1      36.081 -19.388 -21.790  0.00  0.00    +0.017 C 
ATOM     19  C   UNL     1      34.760 -19.274 -22.222  0.00  0.00    +0.061 C 
BRANCH  14  20
ATOM     20  N   UNL     1      35.642 -21.361 -18.699  0.00  0.00    -0.310 N 
ATOM     21  N   UNL     1      36.329 -22.978 -16.446  0.00  0.00    +0.388 N 
ATOM     22  C   UNL     1      34.878 -22.581 -18.407  0.00  0.00    +0.068 C 
ATOM     23  C   UNL     1      37.002 -21.319 -18.152  0.00  0.00    +0.068 C 
ATOM     24  C   UNL     1      34.939 -22.909 -16.914  0.00  0.00    -0.056 C 
ATOM     25  C   UNL     1      36.995 -21.689 -16.666  0.00  0.00    -0.056 C 
ATOM     26  C   UNL     1      36.376 -23.346 -15.031  0.00  0.00    -0.101 C 
ATOM     27  H   UNL     1      36.819 -23.697 -16.978  0.00  0.00    -0.080 HD
ENDBRANCH  14  20
ENDBRANCH   1  19
BRANCH   8  28
ATOM     28  O   UNL     1      34.510 -14.176 -21.815  0.00  0.00    -0.429 OA
BRANCH  28  29
ATOM     29  C   UNL     1      33.420 -13.418 -21.440  0.00  0.00    +0.149 C 
ATOM     30  C   UNL     1      33.060 -12.297 -22.189  0.00  0.00    +0.052 C 
ATOM     31  C   UNL     1      32.677 -13.772 -20.314  0.00  0.00    +0.038 C 
ATOM     32  C   UNL     1      31.957 -11.531 -21.811  0.00  0.00    +0.054 C 
ATOM     33  C   UNL     1      31.215 -11.885 -20.685  0.00  0.00    +0.015 C 
ATOM     34  C   UNL     1      31.574 -13.006 -19.937  0.00  0.00    +0.004 C 
BRANCH  32  36
ATOM     35  O   UNL     1      32.617  -8.629 -21.409  0.00  0.00    -0.270 OA
ATOM     36  N   UNL     1      31.597 -10.410 -22.560  0.00  0.00    -0.280 N 
ATOM     37  C   UNL     1      31.935  -9.070 -22.327  0.00  0.00    +0.250 C 
ATOM     38  H   UNL     1      31.037 -10.583 -23.352  0.00  0.00    +0.155 HD
BRANCH  37  39
ATOM     39  C   UNL     1      31.352  -8.168 -23.361  0.00  0.00    +0.058 C 
ATOM     40  C   UNL     1      31.884  -8.104 -24.586  0.00  0.00    +0.005 C 
ENDBRANCH  37  39
ENDBRANCH  32  36
ENDBRANCH  28  29
ENDBRANCH   8  28
TORSDOF 6
ENDMDL
MODEL 7
REMARK VINA RESULT:     -10.2      2.743      7.479
REMARK  Name = 72734520
REMARK  6 active torsions:
REMARK  status: ('A' for Active; 'I' for Inactive)
REMARK    1  A    between atoms: N_1  and  C_19
REMARK    2  A    between atoms: C_8  and  O_28
REMARK    3  A    between atoms: C_14  and  N_20
REMARK    4  A    between atoms: O_28  and  C_29
REMARK    5  A    between atoms: C_32  and  N_36
REMARK    6  A    between atoms: C_37  and  C_39
REMARK                            x       y       z     vdW  Elec       q    Type
REMARK                         _______ _______ _______ _____ _____    ______ ____
ROOT
ATOM      1  N   UNL     1      34.208 -25.383 -13.438  0.00  0.00    -0.238 N 
ATOM      2  N   UNL     1      36.472 -25.831 -13.093  0.00  0.00    -0.316 NA
ATOM      3  N   UNL     1      35.742 -24.176 -14.722  0.00  0.00    -0.294 NA
ATOM      4  N   UNL     1      38.871 -26.052 -12.987  0.00  0.00    -0.289 N 
ATOM      5  C   UNL     1      35.550 -25.115 -13.769  0.00  0.00    +0.207 C 
ATOM      6  C   UNL     1      38.066 -24.565 -14.443  0.00  0.00    +0.181 C 
ATOM      7  C   UNL     1      37.717 -25.505 -13.482  0.00  0.00    +0.188 C 
ATOM      8  C   UNL     1      37.018 -23.892 -15.069  0.00  0.00    +0.281 C 
ATOM      9  C   UNL     1      39.482 -24.558 -14.519  0.00  0.00    +0.008 C 
ATOM     10  C   UNL     1      39.951 -25.484 -13.612  0.00  0.00    +0.060 C 
ATOM     11  H   UNL     1      34.101 -26.070 -12.741  0.00  0.00    +0.166 HD
ATOM     12  H   UNL     1      38.918 -26.746 -12.291  0.00  0.00    +0.154 HD
ENDROOT
BRANCH   1  19
ATOM     13  F   UNL     1      29.601 -25.976 -14.623  0.00  0.00    -0.203 F 
ATOM     14  C   UNL     1      30.568 -23.818 -14.836  0.00  0.00    +0.076 C 
ATOM     15  C   UNL     1      30.664 -25.168 -14.501  0.00  0.00    +0.155 C 
ATOM     16  C   UNL     1      31.682 -22.988 -14.708  0.00  0.00    +0.018 C 
ATOM     17  C   UNL     1      31.872 -25.688 -14.036  0.00  0.00    +0.046 C 
ATOM     18  C   UNL     1      32.890 -23.507 -14.243  0.00  0.00    +0.017 C 
ATOM     19  C   UNL     1      32.985 -24.857 -13.907  0.00  0.00    +0.061 C 
BRANCH  14  20
ATOM     20  N   UNL     1      29.358 -23.294 -15.304  0.00  0.00    -0.310 N 
ATOM     21  N   UNL     1      27.007 -21.994 -16.275  0.00  0.00    +0.388 N 
ATOM     22  C   UNL     1      28.670 -22.300 -14.471  0.00  0.00    +0.068 C 
ATOM     23  C   UNL     1      29.121 -23.186 -16.747  0.00  0.00    +0.068 C 
ATOM     24  C   UNL     1      27.185 -22.229 -14.836  0.00  0.00    -0.056 C 
ATOM     25  C   UNL     1      27.622 -23.086 -17.039  0.00  0.00    -0.056 C 
ATOM     26  C   UNL     1      25.587 -21.874 -16.603  0.00  0.00    -0.101 C 
ATOM     27  H   UNL     1      27.467 -21.119 -16.524  0.00  0.00    -0.080 HD
ENDBRANCH  14  20
ENDBRANCH   1  19
BRANCH   8  28
ATOM     28  O   UNL     1      37.229 -22.940 -16.035  0.00  0.00    -0.429 OA
BRANCH  28  29
ATOM     29  C   UNL     1      36.208 -22.714 -16.935  0.00  0.00    +0.149 C 
ATOM     30  C   UNL     1      36.424 -21.893 -18.042  0.00  0.00    +0.052 C 
ATOM     31  C   UNL     1      34.961 -23.308 -16.740  0.00  0.00    +0.038 C 
ATOM     32  C   UNL     1      35.392 -21.665 -18.953  0.00  0.00    +0.054 C 
ATOM     33  C   UNL     1      34.145 -22.259 -18.758  0.00  0.00    +0.015 C 
ATOM     34  C   UNL     1      33.930 -23.081 -17.652  0.00  0.00    +0.004 C 
BRANCH  32  36
ATOM     35  O   UNL     1      33.445 -20.122 -20.639  0.00  0.00    -0.270 OA
ATOM     36  N   UNL     1      35.608 -20.844 -20.061  0.00  0.00    -0.280 N 
ATOM     37  C   UNL     1      34.657 -20.143 -20.815  0.00  0.00    +0.250 C 
ATOM     38  H   UNL     1      36.545 -20.745 -20.347  0.00  0.00    +0.155 HD
BRANCH  37  39
ATOM     39  C   UNL     1      35.292 -19.375 -21.924  0.00  0.00    +0.058 C 
ATOM     40  C   UNL     1      34.761 -19.387 -23.150  0.00  0.00    +0.005 C 
ENDBRANCH  37  39
ENDBRANCH  32  36
ENDBRANCH  28  29
ENDBRANCH   8  28
TORSDOF 6
ENDMDL
MODEL 8
REMARK VINA RESULT:     -10.0      9.389     14.954
REMARK  Name = 72734520
REMARK  6 active torsions:
REMARK  status: ('A' for Active; 'I' for Inactive)
REMARK    1  A    between atoms: N_1  and  C_19
REMARK    2  A    between atoms: C_8  and  O_28
REMARK    3  A    between atoms: C_14  and  N_20
REMARK    4  A    between atoms: O_28  and  C_29
REMARK    5  A    between atoms: C_32  and  N_36
REMARK    6  A    between atoms: C_37  and  C_39
REMARK                            x       y       z     vdW  Elec       q    Type
REMARK                         _______ _______ _______ _____ _____    ______ ____
ROOT
ATOM      1  N   UNL     1      32.502  -7.636 -23.925  0.00  0.00    -0.238 N 
ATOM      2  N   UNL     1      31.381  -9.105 -22.499  0.00  0.00    -0.316 NA
ATOM      3  N   UNL     1      33.472  -9.733 -23.576  0.00  0.00    -0.294 NA
ATOM      4  N   UNL     1      30.484 -10.849 -21.096  0.00  0.00    -0.289 N 
ATOM      5  C   UNL     1      32.448  -8.896 -23.297  0.00  0.00    +0.207 C 
ATOM      6  C   UNL     1      32.403 -11.295 -22.144  0.00  0.00    +0.181 C 
ATOM      7  C   UNL     1      31.421 -10.332 -21.952  0.00  0.00    +0.188 C 
ATOM      8  C   UNL     1      33.455 -10.954 -22.993  0.00  0.00    +0.281 C 
ATOM      9  C   UNL     1      32.031 -12.425 -21.372  0.00  0.00    +0.008 C 
ATOM     10  C   UNL     1      30.846 -12.122 -20.738  0.00  0.00    +0.060 C 
ATOM     11  H   UNL     1      31.743  -7.049 -23.702  0.00  0.00    +0.166 HD
ATOM     12  H   UNL     1      29.677 -10.379 -20.786  0.00  0.00    +0.154 HD
ENDROOT
BRANCH   1  19
ATOM     13  F   UNL     1      34.002  -6.721 -28.384  0.00  0.00    -0.203 F 
ATOM     14  C   UNL     1      35.271  -5.889 -26.557  0.00  0.00    +0.076 C 
ATOM     15  C   UNL     1      34.178  -6.594 -27.061  0.00  0.00    +0.155 C 
ATOM     16  C   UNL     1      35.444  -5.765 -25.178  0.00  0.00    +0.018 C 
ATOM     17  C   UNL     1      33.258  -7.174 -26.187  0.00  0.00    +0.046 C 
ATOM     18  C   UNL     1      34.524  -6.344 -24.304  0.00  0.00    +0.017 C 
ATOM     19  C   UNL     1      33.432  -7.049 -24.809  0.00  0.00    +0.061 C 
BRANCH  14  20
ATOM     20  N   UNL     1      36.195  -5.307 -27.431  0.00  0.00    -0.310 N 
ATOM     21  N   UNL     1      37.940  -4.214 -29.411  0.00  0.00    +0.388 N 
ATOM     22  C   UNL     1      36.999  -6.198 -28.277  0.00  0.00    +0.068 C 
ATOM     23  C   UNL     1      35.937  -3.973 -27.981  0.00  0.00    +0.068 C 
ATOM     24  C   UNL     1      38.266  -5.487 -28.755  0.00  0.00    -0.056 C 
ATOM     25  C   UNL     1      37.239  -3.333 -28.470  0.00  0.00    -0.056 C 
ATOM     26  C   UNL     1      39.154  -3.569 -29.912  0.00  0.00    -0.101 C 
ATOM     27  H   UNL     1      37.328  -4.401 -30.205  0.00  0.00    -0.080 HD
ENDBRANCH  14  20
ENDBRANCH   1  19
BRANCH   8  28
ATOM     28  O   UNL     1      34.488 -11.815 -23.266  0.00  0.00    -0.429 OA
BRANCH  28  29
ATOM     29  C   UNL     1      34.164 -13.031 -23.833  0.00  0.00    +0.149 C 
ATOM     30  C   UNL     1      34.557 -14.216 -23.211  0.00  0.00    +0.052 C 
ATOM     31  C   UNL     1      33.445 -13.075 -25.027  0.00  0.00    +0.038 C 
ATOM     32  C   UNL     1      34.229 -15.446 -23.783  0.00  0.00    +0.054 C 
ATOM     33  C   UNL     1      33.510 -15.490 -24.976  0.00  0.00    +0.015 C 
ATOM     34  C   UNL     1      33.117 -14.305 -25.598  0.00  0.00    +0.004 C 
BRANCH  32  36
ATOM     35  O   UNL     1      34.189 -18.275 -24.787  0.00  0.00    -0.270 OA
ATOM     36  N   UNL     1      34.621 -16.632 -23.159  0.00  0.00    -0.280 N 
ATOM     37  C   UNL     1      34.581 -17.933 -23.677  0.00  0.00    +0.250 C 
ATOM     38  H   UNL     1      34.969 -16.542 -22.243  0.00  0.00    +0.155 HD
BRANCH  37  39
ATOM     39  C   UNL     1      35.091 -18.933 -22.694  0.00  0.00    +0.058 C 
ATOM     40  C   UNL     1      35.744 -18.535 -21.599  0.00  0.00    +0.005 C 
ENDBRANCH  37  39
ENDBRANCH  32  36
ENDBRANCH  28  29
ENDBRANCH   8  28
TORSDOF 6
ENDMDL
MODEL 9
REMARK VINA RESULT:     -10.0      8.655     14.047
REMARK  Name = 72734520
REMARK  6 active torsions:
REMARK  status: ('A' for Active; 'I' for Inactive)
REMARK    1  A    between atoms: N_1  and  C_19
REMARK    2  A    between atoms: C_8  and  O_28
REMARK    3  A    between atoms: C_14  and  N_20
REMARK    4  A    between atoms: O_28  and  C_29
REMARK    5  A    between atoms: C_32  and  N_36
REMARK    6  A    between atoms: C_37  and  C_39
REMARK                            x       y       z     vdW  Elec       q    Type
REMARK                         _______ _______ _______ _____ _____    ______ ____
ROOT
ATOM      1  N   UNL     1      32.121  -8.931 -22.670  0.00  0.00    -0.238 N 
ATOM      2  N   UNL     1      31.620 -10.781 -21.338  0.00  0.00    -0.316 NA
ATOM      3  N   UNL     1      33.332 -10.890 -23.066  0.00  0.00    -0.294 NA
ATOM      4  N   UNL     1      31.351 -12.861 -20.148  0.00  0.00    -0.289 N 
ATOM      5  C   UNL     1      32.372 -10.277 -22.338  0.00  0.00    +0.207 C 
ATOM      6  C   UNL     1      32.891 -12.824 -21.762  0.00  0.00    +0.181 C 
ATOM      7  C   UNL     1      31.933 -12.066 -21.100  0.00  0.00    +0.188 C 
ATOM      8  C   UNL     1      33.601 -12.184 -22.778  0.00  0.00    +0.281 C 
ATOM      9  C   UNL     1      32.873 -14.116 -21.178  0.00  0.00    +0.008 C 
ATOM     10  C   UNL     1      31.915 -14.110 -20.187  0.00  0.00    +0.060 C 
ATOM     11  H   UNL     1      31.417  -8.513 -22.123  0.00  0.00    +0.166 HD
ATOM     12  H   UNL     1      30.637 -12.579 -19.531  0.00  0.00    +0.154 HD
ENDROOT
BRANCH   1  19
ATOM     13  F   UNL     1      35.741  -6.178 -24.185  0.00  0.00    -0.203 F 
ATOM     14  C   UNL     1      33.792  -6.349 -25.532  0.00  0.00    +0.076 C 
ATOM     15  C   UNL     1      34.514  -6.680 -24.385  0.00  0.00    +0.155 C 
ATOM     16  C   UNL     1      32.515  -6.876 -25.727  0.00  0.00    +0.018 C 
ATOM     17  C   UNL     1      33.959  -7.538 -23.435  0.00  0.00    +0.046 C 
ATOM     18  C   UNL     1      31.960  -7.733 -24.778  0.00  0.00    +0.017 C 
ATOM     19  C   UNL     1      32.682  -8.064 -23.631  0.00  0.00    +0.061 C 
BRANCH  14  20
ATOM     20  N   UNL     1      34.345  -5.488 -26.486  0.00  0.00    -0.310 N 
ATOM     21  N   UNL     1      35.236  -3.710 -28.536  0.00  0.00    +0.388 N 
ATOM     22  C   UNL     1      34.345  -5.923 -27.889  0.00  0.00    +0.068 C 
ATOM     23  C   UNL     1      34.300  -4.039 -26.271  0.00  0.00    +0.068 C 
ATOM     24  C   UNL     1      35.405  -5.161 -28.687  0.00  0.00    -0.056 C 
ATOM     25  C   UNL     1      35.361  -3.337 -27.123  0.00  0.00    -0.056 C 
ATOM     26  C   UNL     1      36.219  -2.992 -29.347  0.00  0.00    -0.101 C 
ATOM     27  H   UNL     1      34.305  -3.452 -28.863  0.00  0.00    -0.080 HD
ENDBRANCH  14  20
ENDBRANCH   1  19
BRANCH   8  28
ATOM     28  O   UNL     1      34.574 -12.820 -23.506  0.00  0.00    -0.429 OA
BRANCH  28  29
ATOM     29  C   UNL     1      34.333 -14.127 -23.878  0.00  0.00    +0.149 C 
ATOM     30  C   UNL     1      34.977 -15.171 -23.213  0.00  0.00    +0.052 C 
ATOM     31  C   UNL     1      33.445 -14.405 -24.917  0.00  0.00    +0.038 C 
ATOM     32  C   UNL     1      34.732 -16.492 -23.587  0.00  0.00    +0.054 C 
ATOM     33  C   UNL     1      33.845 -16.770 -24.626  0.00  0.00    +0.015 C 
ATOM     34  C   UNL     1      33.200 -15.727 -25.290  0.00  0.00    +0.004 C 
BRANCH  32  36
ATOM     35  O   UNL     1      35.068 -17.009 -20.648  0.00  0.00    -0.270 OA
ATOM     36  N   UNL     1      35.376 -17.536 -22.920  0.00  0.00    -0.280 N 
ATOM     37  C   UNL     1      35.503 -17.730 -21.538  0.00  0.00    +0.250 C 
ATOM     38  H   UNL     1      35.791 -18.222 -23.492  0.00  0.00    +0.155 HD
BRANCH  37  39
ATOM     39  C   UNL     1      36.266 -18.973 -21.224  0.00  0.00    +0.058 C 
ATOM     40  C   UNL     1      37.602 -18.976 -21.255  0.00  0.00    +0.005 C 
ENDBRANCH  37  39
ENDBRANCH  32  36
ENDBRANCH  28  29
ENDBRANCH   8  28
TORSDOF 6
ENDMDL
