MODEL 1
REMARK VINA RESULT:     -11.5      0.000      0.000
REMARK  Name = 16045418
REMARK  6 active torsions:
REMARK  status: ('A' for Active; 'I' for Inactive)
REMARK    1  A    between atoms: C_2  and  O_8
REMARK    2  A    between atoms: C_4  and  O_23
REMARK    3  A    between atoms: O_8  and  C_9
REMARK    4  A    between atoms: C_9  and  C_14
REMARK    5  A    between atoms: O_23  and  C_25
REMARK    6  A    between atoms: C_28  and  C_32
REMARK                            x       y       z     vdW  Elec       q    Type
REMARK                         _______ _______ _______ _____ _____    ______ ____
ROOT
ATOM      1 CL   UNL     1      33.602 -15.133 -25.539  0.00  0.00    -0.079 Cl
ATOM      2  C   UNL     1      35.130 -18.267 -22.680  0.00  0.00    +0.142 C 
ATOM      3  C   UNL     1      35.280 -16.920 -22.362  0.00  0.00    +0.075 C 
ATOM      4  C   UNL     1      34.810 -15.944 -23.240  0.00  0.00    +0.159 C 
ATOM      5  C   UNL     1      34.514 -18.646 -23.869  0.00  0.00    +0.038 C 
ATOM      6  C   UNL     1      34.192 -16.319 -24.433  0.00  0.00    +0.092 C 
ATOM      7  C   UNL     1      34.044 -17.669 -24.748  0.00  0.00    +0.018 C 
ENDROOT
BRANCH   2   8
ATOM      8  O   UNL     1      35.591 -19.224 -21.819  0.00  0.00    -0.469 OA
BRANCH   8   9
ATOM      9  C   UNL     1      34.620 -20.133 -21.296  0.00  0.00    +0.249 C 
BRANCH   9  14
ATOM     10  N   UNL     1      36.482 -20.750 -19.772  0.00  0.00    -0.227 N 
ATOM     11  N   UNL     1      36.815 -21.437 -18.659  0.00  0.00    -0.115 NA
ATOM     12  N   UNL     1      35.430 -22.769 -17.180  0.00  0.00    -0.335 NA
ATOM     13  N   UNL     1      33.750 -23.972 -15.989  0.00  0.00    -0.332 N 
ATOM     14  C   UNL     1      35.158 -20.821 -20.111  0.00  0.00    +0.097 C 
ATOM     15  C   UNL     1      34.594 -21.611 -19.147  0.00  0.00    +0.090 C 
ATOM     16  C   UNL     1      35.655 -21.974 -18.264  0.00  0.00    +0.105 C 
ATOM     17  C   UNL     1      33.257 -21.972 -19.068  0.00  0.00    +0.016 C 
ATOM     18  C   UNL     1      33.047 -22.786 -17.951  0.00  0.00    +0.049 C 
ATOM     19  C   UNL     1      34.112 -23.135 -17.085  0.00  0.00    +0.189 C 
ATOM     20  H   UNL     1      37.139 -20.239 -20.298  0.00  0.00    +0.175 HD
ATOM     21  H   UNL     1      34.434 -24.258 -15.342  0.00  0.00    +0.145 HD
ATOM     22  H   UNL     1      32.816 -24.262 -15.879  0.00  0.00    +0.145 HD
ENDBRANCH   9  14
ENDBRANCH   8   9
ENDBRANCH   2   8
BRANCH   4  23
ATOM     23  O   UNL     1      34.967 -14.632 -22.907  0.00  0.00    -0.452 OA
BRANCH  23  25
ATOM     24 CL   UNL     1      31.894 -14.789 -18.854  0.00  0.00    -0.082 Cl
ATOM     25  C   UNL     1      33.958 -14.030 -22.176  0.00  0.00    +0.147 C 
ATOM     26  C   UNL     1      33.432 -12.827 -22.614  0.00  0.00    +0.048 C 
ATOM     27  C   UNL     1      33.498 -14.646 -21.025  0.00  0.00    +0.049 C 
ATOM     28  C   UNL     1      32.414 -12.222 -21.878  0.00  0.00    +0.072 C 
ATOM     29  C   UNL     1      32.480 -14.041 -20.289  0.00  0.00    +0.061 C 
ATOM     30  C   UNL     1      31.938 -12.828 -20.715  0.00  0.00    +0.022 C 
BRANCH  28  32
ATOM     31  N   UNL     1      31.409  -9.966 -22.671  0.00  0.00    -0.191 NA
ATOM     32  C   UNL     1      31.860 -10.979 -22.314  0.00  0.00    +0.101 C 
ENDBRANCH  28  32
ENDBRANCH  23  25
ENDBRANCH   4  23
TORSDOF 6
ENDMDL
MODEL 2
REMARK VINA RESULT:     -11.5      6.051     10.841
REMARK  Name = 16045418
REMARK  6 active torsions:
REMARK  status: ('A' for Active; 'I' for Inactive)
REMARK    1  A    between atoms: C_2  and  O_8
REMARK    2  A    between atoms: C_4  and  O_23
REMARK    3  A    between atoms: O_8  and  C_9
REMARK    4  A    between atoms: C_9  and  C_14
REMARK    5  A    between atoms: O_23  and  C_25
REMARK    6  A    between atoms: C_28  and  C_32
REMARK                            x       y       z     vdW  Elec       q    Type
REMARK                         _______ _______ _______ _____ _____    ______ ____
ROOT
ATOM      1 CL   UNL     1      30.786 -24.905 -12.398  0.00  0.00    -0.079 Cl
ATOM      2  C   UNL     1      31.659 -23.200 -16.479  0.00  0.00    +0.142 C 
ATOM      3  C   UNL     1      32.707 -23.408 -15.587  0.00  0.00    +0.075 C 
ATOM      4  C   UNL     1      32.446 -23.936 -14.322  0.00  0.00    +0.159 C 
ATOM      5  C   UNL     1      30.353 -23.515 -16.118  0.00  0.00    +0.038 C 
ATOM      6  C   UNL     1      31.138 -24.252 -13.955  0.00  0.00    +0.092 C 
ATOM      7  C   UNL     1      30.092 -24.042 -14.853  0.00  0.00    +0.018 C 
ENDROOT
BRANCH   2   8
ATOM      8  O   UNL     1      31.916 -22.683 -17.719  0.00  0.00    -0.469 OA
BRANCH   8   9
ATOM      9  C   UNL     1      33.240 -22.864 -18.224  0.00  0.00    +0.249 C 
BRANCH   9  14
ATOM     10  N   UNL     1      32.620 -21.109 -19.868  0.00  0.00    -0.227 N 
ATOM     11  N   UNL     1      33.094 -20.140 -20.679  0.00  0.00    -0.115 NA
ATOM     12  N   UNL     1      35.375 -19.412 -21.065  0.00  0.00    -0.335 NA
ATOM     13  N   UNL     1      37.721 -18.999 -21.162  0.00  0.00    -0.332 N 
ATOM     14  C   UNL     1      33.579 -21.777 -19.157  0.00  0.00    +0.097 C 
ATOM     15  C   UNL     1      34.759 -21.199 -19.536  0.00  0.00    +0.090 C 
ATOM     16  C   UNL     1      34.417 -20.187 -20.483  0.00  0.00    +0.105 C 
ATOM     17  C   UNL     1      36.021 -21.547 -19.078  0.00  0.00    +0.016 C 
ATOM     18  C   UNL     1      36.989 -20.741 -19.685  0.00  0.00    +0.049 C 
ATOM     19  C   UNL     1      36.631 -19.741 -20.623  0.00  0.00    +0.189 C 
ATOM     20  H   UNL     1      31.660 -21.317 -19.793  0.00  0.00    +0.175 HD
ATOM     21  H   UNL     1      37.554 -18.286 -21.819  0.00  0.00    +0.145 HD
ATOM     22  H   UNL     1      38.642 -19.199 -20.876  0.00  0.00    +0.145 HD
ENDBRANCH   9  14
ENDBRANCH   8   9
ENDBRANCH   2   8
BRANCH   4  23
ATOM     23  O   UNL     1      33.488 -24.132 -13.466  0.00  0.00    -0.452 OA
BRANCH  23  25
ATOM     24 CL   UNL     1      37.217 -21.662 -15.892  0.00  0.00    -0.082 Cl
ATOM     25  C   UNL     1      34.763 -24.167 -14.004  0.00  0.00    +0.147 C 
ATOM     26  C   UNL     1      35.493 -25.341 -13.932  0.00  0.00    +0.048 C 
ATOM     27  C   UNL     1      35.276 -23.030 -14.602  0.00  0.00    +0.049 C 
ATOM     28  C   UNL     1      36.777 -25.377 -14.475  0.00  0.00    +0.072 C 
ATOM     29  C   UNL     1      36.559 -23.066 -15.145  0.00  0.00    +0.061 C 
ATOM     30  C   UNL     1      37.311 -24.240 -15.081  0.00  0.00    +0.022 C 
BRANCH  28  32
ATOM     31  N   UNL     1      38.172 -27.560 -14.355  0.00  0.00    -0.191 NA
ATOM     32  C   UNL     1      37.547 -26.579 -14.409  0.00  0.00    +0.101 C 
ENDBRANCH  28  32
ENDBRANCH  23  25
ENDBRANCH   4  23
TORSDOF 6
ENDMDL
MODEL 3
REMARK VINA RESULT:     -11.3      4.773      7.867
REMARK  Name = 16045418
REMARK  6 active torsions:
REMARK  status: ('A' for Active; 'I' for Inactive)
REMARK    1  A    between atoms: C_2  and  O_8
REMARK    2  A    between atoms: C_4  and  O_23
REMARK    3  A    between atoms: O_8  and  C_9
REMARK    4  A    between atoms: C_9  and  C_14
REMARK    5  A    between atoms: O_23  and  C_25
REMARK    6  A    between atoms: C_28  and  C_32
REMARK                            x       y       z     vdW  Elec       q    Type
REMARK                         _______ _______ _______ _____ _____    ______ ____
ROOT
ATOM      1 CL   UNL     1      31.588 -10.108 -17.961  0.00  0.00    -0.079 Cl
ATOM      2  C   UNL     1      32.081 -11.786 -22.117  0.00  0.00    +0.142 C 
ATOM      3  C   UNL     1      31.871 -10.419 -21.952  0.00  0.00    +0.075 C 
ATOM      4  C   UNL     1      31.718  -9.892 -20.669  0.00  0.00    +0.159 C 
ATOM      5  C   UNL     1      32.138 -12.629 -21.011  0.00  0.00    +0.038 C 
ATOM      6  C   UNL     1      31.775 -10.732 -19.558  0.00  0.00    +0.092 C 
ATOM      7  C   UNL     1      31.984 -12.101 -19.729  0.00  0.00    +0.018 C 
ENDROOT
BRANCH   2   8
ATOM      8  O   UNL     1      32.230 -12.303 -23.374  0.00  0.00    -0.469 OA
BRANCH   8   9
ATOM      9  C   UNL     1      33.569 -12.543 -23.809  0.00  0.00    +0.249 C 
BRANCH   9  14
ATOM     10  N   UNL     1      33.320 -14.279 -25.567  0.00  0.00    -0.227 N 
ATOM     11  N   UNL     1      33.505 -15.583 -25.865  0.00  0.00    -0.115 NA
ATOM     12  N   UNL     1      34.408 -17.376 -24.505  0.00  0.00    -0.335 NA
ATOM     13  N   UNL     1      35.337 -18.839 -22.867  0.00  0.00    -0.332 N 
ATOM     14  C   UNL     1      33.702 -13.924 -24.302  0.00  0.00    +0.097 C 
ATOM     15  C   UNL     1      34.169 -15.080 -23.741  0.00  0.00    +0.090 C 
ATOM     16  C   UNL     1      34.031 -16.089 -24.743  0.00  0.00    +0.105 C 
ATOM     17  C   UNL     1      34.670 -15.219 -22.456  0.00  0.00    +0.016 C 
ATOM     18  C   UNL     1      35.052 -16.545 -22.232  0.00  0.00    +0.049 C 
ATOM     19  C   UNL     1      34.908 -17.532 -23.237  0.00  0.00    +0.189 C 
ATOM     20  H   UNL     1      32.939 -13.636 -26.209  0.00  0.00    +0.175 HD
ATOM     21  H   UNL     1      35.269 -19.580 -23.512  0.00  0.00    +0.145 HD
ATOM     22  H   UNL     1      35.702 -19.002 -21.967  0.00  0.00    +0.145 HD
ENDBRANCH   9  14
ENDBRANCH   8   9
ENDBRANCH   2   8
BRANCH   4  23
ATOM     23  O   UNL     1      31.515  -8.551 -20.532  0.00  0.00    -0.452 OA
BRANCH  23  25
ATOM     24 CL   UNL     1      35.699  -7.313 -23.152  0.00  0.00    -0.082 Cl
ATOM     25  C   UNL     1      32.117  -7.713 -21.456  0.00  0.00    +0.147 C 
ATOM     26  C   UNL     1      31.377  -6.689 -22.021  0.00  0.00    +0.048 C 
ATOM     27  C   UNL     1      33.444  -7.919 -21.790  0.00  0.00    +0.049 C 
ATOM     28  C   UNL     1      31.983  -5.845 -22.950  0.00  0.00    +0.072 C 
ATOM     29  C   UNL     1      34.050  -7.074 -22.720  0.00  0.00    +0.061 C 
ATOM     30  C   UNL     1      33.319  -6.037 -23.300  0.00  0.00    +0.022 C 
BRANCH  28  32
ATOM     31  N   UNL     1      30.625  -3.917 -24.031  0.00  0.00    -0.191 NA
ATOM     32  C   UNL     1      31.234  -4.783 -23.545  0.00  0.00    +0.101 C 
ENDBRANCH  28  32
ENDBRANCH  23  25
ENDBRANCH   4  23
TORSDOF 6
ENDMDL
MODEL 4
REMARK VINA RESULT:     -11.3      6.156     10.881
REMARK  Name = 16045418
REMARK  6 active torsions:
REMARK  status: ('A' for Active; 'I' for Inactive)
REMARK    1  A    between atoms: C_2  and  O_8
REMARK    2  A    between atoms: C_4  and  O_23
REMARK    3  A    between atoms: O_8  and  C_9
REMARK    4  A    between atoms: C_9  and  C_14
REMARK    5  A    between atoms: O_23  and  C_25
REMARK    6  A    between atoms: C_28  and  C_32
REMARK                            x       y       z     vdW  Elec       q    Type
REMARK                         _______ _______ _______ _____ _____    ______ ____
ROOT
ATOM      1 CL   UNL     1      30.466 -25.247 -12.695  0.00  0.00    -0.079 Cl
ATOM      2  C   UNL     1      31.575 -23.146 -16.526  0.00  0.00    +0.142 C 
ATOM      3  C   UNL     1      32.540 -23.889 -15.850  0.00  0.00    +0.075 C 
ATOM      4  C   UNL     1      32.205 -24.543 -14.664  0.00  0.00    +0.159 C 
ATOM      5  C   UNL     1      30.280 -23.052 -16.026  0.00  0.00    +0.038 C 
ATOM      6  C   UNL     1      30.908 -24.451 -14.159  0.00  0.00    +0.092 C 
ATOM      7  C   UNL     1      29.946 -23.705 -14.840  0.00  0.00    +0.018 C 
ENDROOT
BRANCH   2   8
ATOM      8  O   UNL     1      31.904 -22.505 -17.689  0.00  0.00    -0.469 OA
BRANCH   8   9
ATOM      9  C   UNL     1      33.209 -22.760 -18.210  0.00  0.00    +0.249 C 
BRANCH   9  14
ATOM     10  N   UNL     1      32.634 -21.112 -19.977  0.00  0.00    -0.227 N 
ATOM     11  N   UNL     1      33.129 -20.188 -20.827  0.00  0.00    -0.115 NA
ATOM     12  N   UNL     1      35.416 -19.459 -21.173  0.00  0.00    -0.335 NA
ATOM     13  N   UNL     1      37.760 -19.027 -21.211  0.00  0.00    -0.332 N 
ATOM     14  C   UNL     1      33.573 -21.727 -19.194  0.00  0.00    +0.097 C 
ATOM     15  C   UNL     1      34.761 -21.160 -19.564  0.00  0.00    +0.090 C 
ATOM     16  C   UNL     1      34.444 -20.209 -20.581  0.00  0.00    +0.105 C 
ATOM     17  C   UNL     1      36.008 -21.466 -19.041  0.00  0.00    +0.016 C 
ATOM     18  C   UNL     1      36.991 -20.687 -19.661  0.00  0.00    +0.049 C 
ATOM     19  C   UNL     1      36.658 -19.748 -20.668  0.00  0.00    +0.189 C 
ATOM     20  H   UNL     1      31.674 -21.327 -19.924  0.00  0.00    +0.175 HD
ATOM     21  H   UNL     1      37.611 -18.356 -21.915  0.00  0.00    +0.145 HD
ATOM     22  H   UNL     1      38.672 -19.200 -20.881  0.00  0.00    +0.145 HD
ENDBRANCH   9  14
ENDBRANCH   8   9
ENDBRANCH   2   8
BRANCH   4  23
ATOM     23  O   UNL     1      33.165 -25.265 -14.020  0.00  0.00    -0.452 OA
BRANCH  23  25
ATOM     24 CL   UNL     1      37.284 -22.843 -15.770  0.00  0.00    -0.082 Cl
ATOM     25  C   UNL     1      34.362 -24.630 -13.737  0.00  0.00    +0.147 C 
ATOM     26  C   UNL     1      34.773 -24.521 -12.420  0.00  0.00    +0.048 C 
ATOM     27  C   UNL     1      35.120 -24.122 -14.777  0.00  0.00    +0.049 C 
ATOM     28  C   UNL     1      35.980 -23.884 -12.134  0.00  0.00    +0.072 C 
ATOM     29  C   UNL     1      36.327 -23.484 -14.492  0.00  0.00    +0.061 C 
ATOM     30  C   UNL     1      36.757 -23.364 -13.170  0.00  0.00    +0.022 C 
BRANCH  28  32
ATOM     31  N   UNL     1      36.777 -23.659  -9.676  0.00  0.00    -0.191 NA
ATOM     32  C   UNL     1      36.419 -23.761 -10.780  0.00  0.00    +0.101 C 
ENDBRANCH  28  32
ENDBRANCH  23  25
ENDBRANCH   4  23
TORSDOF 6
ENDMDL
MODEL 5
REMARK VINA RESULT:     -11.2      6.224      9.522
REMARK  Name = 16045418
REMARK  6 active torsions:
REMARK  status: ('A' for Active; 'I' for Inactive)
REMARK    1  A    between atoms: C_2  and  O_8
REMARK    2  A    between atoms: C_4  and  O_23
REMARK    3  A    between atoms: O_8  and  C_9
REMARK    4  A    between atoms: C_9  and  C_14
REMARK    5  A    between atoms: O_23  and  C_25
REMARK    6  A    between atoms: C_28  and  C_32
REMARK                            x       y       z     vdW  Elec       q    Type
REMARK                         _______ _______ _______ _____ _____    ______ ____
ROOT
ATOM      1 CL   UNL     1      29.222 -22.764 -16.516  0.00  0.00    -0.079 Cl
ATOM      2  C   UNL     1      32.684 -24.013 -13.913  0.00  0.00    +0.142 C 
ATOM      3  C   UNL     1      32.878 -23.868 -15.284  0.00  0.00    +0.075 C 
ATOM      4  C   UNL     1      31.812 -23.481 -16.097  0.00  0.00    +0.159 C 
ATOM      5  C   UNL     1      31.435 -23.776 -13.348  0.00  0.00    +0.038 C 
ATOM      6  C   UNL     1      30.557 -23.242 -15.536  0.00  0.00    +0.092 C 
ATOM      7  C   UNL     1      30.369 -23.390 -14.161  0.00  0.00    +0.018 C 
ENDROOT
BRANCH   2   8
ATOM      8  O   UNL     1      33.730 -24.392 -13.116  0.00  0.00    -0.469 OA
BRANCH   8   9
ATOM      9  C   UNL     1      35.022 -23.910 -13.488  0.00  0.00    +0.249 C 
BRANCH   9  14
ATOM     10  N   UNL     1      35.360 -26.039 -14.720  0.00  0.00    -0.227 N 
ATOM     11  N   UNL     1      36.261 -26.983 -15.065  0.00  0.00    -0.115 NA
ATOM     12  N   UNL     1      38.622 -27.149 -14.533  0.00  0.00    -0.335 NA
ATOM     13  N   UNL     1      40.881 -26.947 -13.799  0.00  0.00    -0.332 N 
ATOM     14  C   UNL     1      35.864 -25.023 -13.953  0.00  0.00    +0.097 C 
ATOM     15  C   UNL     1      37.186 -25.332 -13.791  0.00  0.00    +0.090 C 
ATOM     16  C   UNL     1      37.395 -26.557 -14.496  0.00  0.00    +0.105 C 
ATOM     17  C   UNL     1      38.116 -24.590 -13.079  0.00  0.00    +0.016 C 
ATOM     18  C   UNL     1      39.367 -25.212 -13.130  0.00  0.00    +0.049 C 
ATOM     19  C   UNL     1      39.555 -26.427 -13.835  0.00  0.00    +0.189 C 
ATOM     20  H   UNL     1      34.416 -26.078 -14.998  0.00  0.00    +0.175 HD
ATOM     21  H   UNL     1      41.093 -27.788 -14.265  0.00  0.00    +0.145 HD
ATOM     22  H   UNL     1      41.586 -26.465 -13.309  0.00  0.00    +0.145 HD
ENDBRANCH   9  14
ENDBRANCH   8   9
ENDBRANCH   2   8
BRANCH   4  23
ATOM     23  O   UNL     1      32.025 -23.344 -17.436  0.00  0.00    -0.452 OA
BRANCH  23  25
ATOM     24 CL   UNL     1      36.996 -22.674 -16.580  0.00  0.00    -0.082 Cl
ATOM     25  C   UNL     1      33.219 -22.772 -17.841  0.00  0.00    +0.147 C 
ATOM     26  C   UNL     1      33.241 -21.994 -18.985  0.00  0.00    +0.048 C 
ATOM     27  C   UNL     1      34.361 -22.991 -17.091  0.00  0.00    +0.049 C 
ATOM     28  C   UNL     1      34.444 -21.418 -19.392  0.00  0.00    +0.072 C 
ATOM     29  C   UNL     1      35.563 -22.414 -17.497  0.00  0.00    +0.061 C 
ATOM     30  C   UNL     1      35.605 -21.628 -18.649  0.00  0.00    +0.022 C 
BRANCH  28  32
ATOM     31  N   UNL     1      34.519 -19.957 -21.534  0.00  0.00    -0.191 NA
ATOM     32  C   UNL     1      34.486 -20.612 -20.572  0.00  0.00    +0.101 C 
ENDBRANCH  28  32
ENDBRANCH  23  25
ENDBRANCH   4  23
TORSDOF 6
ENDMDL
MODEL 6
REMARK VINA RESULT:     -11.2      6.257     11.187
REMARK  Name = 16045418
REMARK  6 active torsions:
REMARK  status: ('A' for Active; 'I' for Inactive)
REMARK    1  A    between atoms: C_2  and  O_8
REMARK    2  A    between atoms: C_4  and  O_23
REMARK    3  A    between atoms: O_8  and  C_9
REMARK    4  A    between atoms: C_9  and  C_14
REMARK    5  A    between atoms: O_23  and  C_25
REMARK    6  A    between atoms: C_28  and  C_32
REMARK                            x       y       z     vdW  Elec       q    Type
REMARK                         _______ _______ _______ _____ _____    ______ ____
ROOT
ATOM      1 CL   UNL     1      30.488 -25.393 -12.533  0.00  0.00    -0.079 Cl
ATOM      2  C   UNL     1      32.091 -23.199 -16.131  0.00  0.00    +0.142 C 
ATOM      3  C   UNL     1      32.882 -23.311 -14.990  0.00  0.00    +0.075 C 
ATOM      4  C   UNL     1      32.394 -23.989 -13.873  0.00  0.00    +0.159 C 
ATOM      5  C   UNL     1      30.817 -23.758 -16.163  0.00  0.00    +0.038 C 
ATOM      6  C   UNL     1      31.118 -24.551 -13.900  0.00  0.00    +0.092 C 
ATOM      7  C   UNL     1      30.329 -24.435 -15.045  0.00  0.00    +0.018 C 
ENDROOT
BRANCH   2   8
ATOM      8  O   UNL     1      32.569 -22.534 -17.226  0.00  0.00    -0.469 OA
BRANCH   8   9
ATOM      9  C   UNL     1      33.469 -23.257 -18.068  0.00  0.00    +0.249 C 
BRANCH   9  14
ATOM     10  N   UNL     1      35.816 -22.467 -17.879  0.00  0.00    -0.227 N 
ATOM     11  N   UNL     1      36.733 -21.605 -18.368  0.00  0.00    -0.115 NA
ATOM     12  N   UNL     1      36.531 -19.954 -20.133  0.00  0.00    -0.335 NA
ATOM     13  N   UNL     1      35.929 -18.468 -21.898  0.00  0.00    -0.332 N 
ATOM     14  C   UNL     1      34.587 -22.391 -18.476  0.00  0.00    +0.097 C 
ATOM     15  C   UNL     1      34.718 -21.410 -19.420  0.00  0.00    +0.090 C 
ATOM     16  C   UNL     1      36.065 -20.946 -19.322  0.00  0.00    +0.105 C 
ATOM     17  C   UNL     1      33.727 -20.971 -20.284  0.00  0.00    +0.016 C 
ATOM     18  C   UNL     1      34.224 -19.956 -21.107  0.00  0.00    +0.049 C 
ATOM     19  C   UNL     1      35.563 -19.509 -20.996  0.00  0.00    +0.189 C 
ATOM     20  H   UNL     1      36.016 -23.099 -17.151  0.00  0.00    +0.175 HD
ATOM     21  H   UNL     1      36.843 -18.103 -21.882  0.00  0.00    +0.145 HD
ATOM     22  H   UNL     1      35.268 -18.114 -22.536  0.00  0.00    +0.145 HD
ENDBRANCH   9  14
ENDBRANCH   8   9
ENDBRANCH   2   8
BRANCH   4  23
ATOM     23  O   UNL     1      33.186 -24.087 -12.768  0.00  0.00    -0.452 OA
BRANCH  23  25
ATOM     24 CL   UNL     1      38.066 -23.496 -11.451  0.00  0.00    -0.082 Cl
ATOM     25  C   UNL     1      34.506 -24.459 -12.956  0.00  0.00    +0.147 C 
ATOM     26  C   UNL     1      34.807 -25.424 -13.902  0.00  0.00    +0.048 C 
ATOM     27  C   UNL     1      35.493 -23.857 -12.196  0.00  0.00    +0.049 C 
ATOM     28  C   UNL     1      36.136 -25.799 -14.092  0.00  0.00    +0.072 C 
ATOM     29  C   UNL     1      36.823 -24.231 -12.386  0.00  0.00    +0.061 C 
ATOM     30  C   UNL     1      37.144 -25.203 -13.334  0.00  0.00    +0.022 C 
BRANCH  28  32
ATOM     31  N   UNL     1      36.735 -27.606 -15.853  0.00  0.00    -0.191 NA
ATOM     32  C   UNL     1      36.466 -26.795 -15.063  0.00  0.00    +0.101 C 
ENDBRANCH  28  32
ENDBRANCH  23  25
ENDBRANCH   4  23
TORSDOF 6
ENDMDL
MODEL 7
REMARK VINA RESULT:     -11.1      6.940      9.987
REMARK  Name = 16045418
REMARK  6 active torsions:
REMARK  status: ('A' for Active; 'I' for Inactive)
REMARK    1  A    between atoms: C_2  and  O_8
REMARK    2  A    between atoms: C_4  and  O_23
REMARK    3  A    between atoms: O_8  and  C_9
REMARK    4  A    between atoms: C_9  and  C_14
REMARK    5  A    between atoms: O_23  and  C_25
REMARK    6  A    between atoms: C_28  and  C_32
REMARK                            x       y       z     vdW  Elec       q    Type
REMARK                         _______ _______ _______ _____ _____    ______ ____
ROOT
ATOM      1 CL   UNL     1      29.357 -22.782 -16.507  0.00  0.00    -0.079 Cl
ATOM      2  C   UNL     1      32.680 -24.118 -13.769  0.00  0.00    +0.142 C 
ATOM      3  C   UNL     1      32.923 -24.008 -15.136  0.00  0.00    +0.075 C 
ATOM      4  C   UNL     1      31.901 -23.595 -15.990  0.00  0.00    +0.159 C 
ATOM      5  C   UNL     1      31.424 -23.818 -13.250  0.00  0.00    +0.038 C 
ATOM      6  C   UNL     1      30.640 -23.294 -15.475  0.00  0.00    +0.092 C 
ATOM      7  C   UNL     1      30.402 -23.406 -14.105  0.00  0.00    +0.018 C 
ENDROOT
BRANCH   2   8
ATOM      8  O   UNL     1      33.683 -24.523 -12.932  0.00  0.00    -0.469 OA
BRANCH   8   9
ATOM      9  C   UNL     1      34.989 -24.012 -13.207  0.00  0.00    +0.249 C 
BRANCH   9  14
ATOM     10  N   UNL     1      35.346 -26.031 -14.609  0.00  0.00    -0.227 N 
ATOM     11  N   UNL     1      36.255 -26.934 -15.032  0.00  0.00    -0.115 NA
ATOM     12  N   UNL     1      38.620 -27.114 -14.524  0.00  0.00    -0.335 NA
ATOM     13  N   UNL     1      40.880 -26.946 -13.784  0.00  0.00    -0.332 N 
ATOM     14  C   UNL     1      35.841 -25.075 -13.764  0.00  0.00    +0.097 C 
ATOM     15  C   UNL     1      37.167 -25.381 -13.632  0.00  0.00    +0.090 C 
ATOM     16  C   UNL     1      37.386 -26.542 -14.434  0.00  0.00    +0.105 C 
ATOM     17  C   UNL     1      38.092 -24.687 -12.865  0.00  0.00    +0.016 C 
ATOM     18  C   UNL     1      39.349 -25.289 -12.971  0.00  0.00    +0.049 C 
ATOM     19  C   UNL     1      39.548 -26.441 -13.772  0.00  0.00    +0.189 C 
ATOM     20  H   UNL     1      34.401 -26.058 -14.886  0.00  0.00    +0.175 HD
ATOM     21  H   UNL     1      41.099 -27.744 -14.317  0.00  0.00    +0.145 HD
ATOM     22  H   UNL     1      41.582 -26.497 -13.258  0.00  0.00    +0.145 HD
ENDBRANCH   9  14
ENDBRANCH   8   9
ENDBRANCH   2   8
BRANCH   4  23
ATOM     23  O   UNL     1      32.162 -23.493 -17.324  0.00  0.00    -0.452 OA
BRANCH  23  25
ATOM     24 CL   UNL     1      34.710 -20.701 -20.730  0.00  0.00    -0.082 Cl
ATOM     25  C   UNL     1      33.357 -22.904 -17.701  0.00  0.00    +0.147 C 
ATOM     26  C   UNL     1      34.466 -23.047 -16.885  0.00  0.00    +0.048 C 
ATOM     27  C   UNL     1      33.413 -22.189 -18.884  0.00  0.00    +0.049 C 
ATOM     28  C   UNL     1      35.670 -22.454 -17.265  0.00  0.00    +0.072 C 
ATOM     29  C   UNL     1      34.617 -21.596 -19.264  0.00  0.00    +0.061 C 
ATOM     30  C   UNL     1      35.745 -21.729 -18.454  0.00  0.00    +0.022 C 
BRANCH  28  32
ATOM     31  N   UNL     1      37.767 -22.701 -15.760  0.00  0.00    -0.191 NA
ATOM     32  C   UNL     1      36.825 -22.590 -16.435  0.00  0.00    +0.101 C 
ENDBRANCH  28  32
ENDBRANCH  23  25
ENDBRANCH   4  23
TORSDOF 6
ENDMDL
MODEL 8
REMARK VINA RESULT:     -11.1      6.509     10.624
REMARK  Name = 16045418
REMARK  6 active torsions:
REMARK  status: ('A' for Active; 'I' for Inactive)
REMARK    1  A    between atoms: C_2  and  O_8
REMARK    2  A    between atoms: C_4  and  O_23
REMARK    3  A    between atoms: O_8  and  C_9
REMARK    4  A    between atoms: C_9  and  C_14
REMARK    5  A    between atoms: O_23  and  C_25
REMARK    6  A    between atoms: C_28  and  C_32
REMARK                            x       y       z     vdW  Elec       q    Type
REMARK                         _______ _______ _______ _____ _____    ______ ____
ROOT
ATOM      1 CL   UNL     1      30.576 -24.689 -12.358  0.00  0.00    -0.079 Cl
ATOM      2  C   UNL     1      31.595 -23.109 -16.455  0.00  0.00    +0.142 C 
ATOM      3  C   UNL     1      32.518 -23.904 -15.781  0.00  0.00    +0.075 C 
ATOM      4  C   UNL     1      32.210 -24.397 -14.512  0.00  0.00    +0.159 C 
ATOM      5  C   UNL     1      30.368 -22.804 -15.873  0.00  0.00    +0.038 C 
ATOM      6  C   UNL     1      30.982 -24.094 -13.924  0.00  0.00    +0.092 C 
ATOM      7  C   UNL     1      30.062 -23.297 -14.605  0.00  0.00    +0.018 C 
ENDROOT
BRANCH   2   8
ATOM      8  O   UNL     1      31.897 -22.625 -17.698  0.00  0.00    -0.469 OA
BRANCH   8   9
ATOM      9  C   UNL     1      33.248 -22.784 -18.134  0.00  0.00    +0.249 C 
BRANCH   9  14
ATOM     10  N   UNL     1      32.626 -21.148 -19.895  0.00  0.00    -0.227 N 
ATOM     11  N   UNL     1      33.097 -20.226 -20.760  0.00  0.00    -0.115 NA
ATOM     12  N   UNL     1      35.372 -19.486 -21.160  0.00  0.00    -0.335 NA
ATOM     13  N   UNL     1      37.712 -19.041 -21.250  0.00  0.00    -0.332 N 
ATOM     14  C   UNL     1      33.585 -21.754 -19.129  0.00  0.00    +0.097 C 
ATOM     15  C   UNL     1      34.761 -21.182 -19.528  0.00  0.00    +0.090 C 
ATOM     16  C   UNL     1      34.417 -20.238 -20.542  0.00  0.00    +0.105 C 
ATOM     17  C   UNL     1      36.021 -21.478 -19.031  0.00  0.00    +0.016 C 
ATOM     18  C   UNL     1      36.986 -20.697 -19.676  0.00  0.00    +0.049 C 
ATOM     19  C   UNL     1      36.626 -19.765 -20.680  0.00  0.00    +0.189 C 
ATOM     20  H   UNL     1      31.668 -21.367 -19.820  0.00  0.00    +0.175 HD
ATOM     21  H   UNL     1      37.544 -18.374 -21.955  0.00  0.00    +0.145 HD
ATOM     22  H   UNL     1      38.632 -19.207 -20.940  0.00  0.00    +0.145 HD
ENDBRANCH   9  14
ENDBRANCH   8   9
ENDBRANCH   2   8
BRANCH   4  23
ATOM     23  O   UNL     1      33.128 -25.174 -13.871  0.00  0.00    -0.452 OA
BRANCH  23  25
ATOM     24 CL   UNL     1      36.507 -23.891 -10.289  0.00  0.00    -0.082 Cl
ATOM     25  C   UNL     1      34.350 -24.601 -13.561  0.00  0.00    +0.147 C 
ATOM     26  C   UNL     1      35.136 -24.094 -14.581  0.00  0.00    +0.048 C 
ATOM     27  C   UNL     1      34.754 -24.546 -12.239  0.00  0.00    +0.049 C 
ATOM     28  C   UNL     1      36.365 -23.515 -14.269  0.00  0.00    +0.072 C 
ATOM     29  C   UNL     1      35.984 -23.968 -11.926  0.00  0.00    +0.061 C 
ATOM     30  C   UNL     1      36.790 -23.453 -12.942  0.00  0.00    +0.022 C 
BRANCH  28  32
ATOM     31  N   UNL     1      37.865 -22.560 -16.157  0.00  0.00    -0.191 NA
ATOM     32  C   UNL     1      37.191 -22.988 -15.309  0.00  0.00    +0.101 C 
ENDBRANCH  28  32
ENDBRANCH  23  25
ENDBRANCH   4  23
TORSDOF 6
ENDMDL
MODEL 9
REMARK VINA RESULT:     -11.0      5.182     10.781
REMARK  Name = 16045418
REMARK  6 active torsions:
REMARK  status: ('A' for Active; 'I' for Inactive)
REMARK    1  A    between atoms: C_2  and  O_8
REMARK    2  A    between atoms: C_4  and  O_23
REMARK    3  A    between atoms: O_8  and  C_9
REMARK    4  A    between atoms: C_9  and  C_14
REMARK    5  A    between atoms: O_23  and  C_25
REMARK    6  A    between atoms: C_28  and  C_32
REMARK                            x       y       z     vdW  Elec       q    Type
REMARK                         _______ _______ _______ _____ _____    ______ ____
ROOT
ATOM      1 CL   UNL     1      30.848 -23.897 -14.957  0.00  0.00    -0.079 Cl
ATOM      2  C   UNL     1      34.373 -22.746 -17.522  0.00  0.00    +0.142 C 
ATOM      3  C   UNL     1      34.594 -23.251 -16.243  0.00  0.00    +0.075 C 
ATOM      4  C   UNL     1      33.509 -23.611 -15.443  0.00  0.00    +0.159 C 
ATOM      5  C   UNL     1      33.077 -22.596 -18.006  0.00  0.00    +0.038 C 
ATOM      6  C   UNL     1      32.208 -23.463 -15.924  0.00  0.00    +0.092 C 
ATOM      7  C   UNL     1      31.992 -22.955 -17.205  0.00  0.00    +0.018 C 
ENDROOT
BRANCH   2   8
ATOM      8  O   UNL     1      35.437 -22.393 -18.306  0.00  0.00    -0.469 OA
BRANCH   8   9
ATOM      9  C   UNL     1      35.160 -22.159 -19.687  0.00  0.00    +0.249 C 
BRANCH   9  14
ATOM     10  N   UNL     1      36.840 -20.341 -19.484  0.00  0.00    -0.227 N 
ATOM     11  N   UNL     1      37.257 -19.162 -19.993  0.00  0.00    -0.115 NA
ATOM     12  N   UNL     1      36.368 -17.861 -21.837  0.00  0.00    -0.335 NA
ATOM     13  N   UNL     1      35.207 -16.896 -23.683  0.00  0.00    -0.332 N 
ATOM     14  C   UNL     1      35.748 -20.878 -20.111  0.00  0.00    +0.097 C 
ATOM     15  C   UNL     1      35.437 -19.982 -21.097  0.00  0.00    +0.090 C 
ATOM     16  C   UNL     1      36.396 -18.930 -20.991  0.00  0.00    +0.105 C 
ATOM     17  C   UNL     1      34.393 -20.096 -22.002  0.00  0.00    +0.016 C 
ATOM     18  C   UNL     1      34.382 -18.992 -22.861  0.00  0.00    +0.049 C 
ATOM     19  C   UNL     1      35.342 -17.958 -22.742  0.00  0.00    +0.189 C 
ATOM     20  H   UNL     1      37.286 -20.779 -18.723  0.00  0.00    +0.175 HD
ATOM     21  H   UNL     1      35.837 -16.140 -23.664  0.00  0.00    +0.145 HD
ATOM     22  H   UNL     1      34.485 -16.920 -24.351  0.00  0.00    +0.145 HD
ENDBRANCH   9  14
ENDBRANCH   8   9
ENDBRANCH   2   8
BRANCH   4  23
ATOM     23  O   UNL     1      33.750 -24.104 -14.196  0.00  0.00    -0.452 OA
BRANCH  23  25
ATOM     24 CL   UNL     1      37.231 -27.701 -15.114  0.00  0.00    -0.082 Cl
ATOM     25  C   UNL     1      35.013 -24.608 -13.938  0.00  0.00    +0.147 C 
ATOM     26  C   UNL     1      35.833 -23.946 -13.040  0.00  0.00    +0.048 C 
ATOM     27  C   UNL     1      35.425 -25.761 -14.582  0.00  0.00    +0.049 C 
ATOM     28  C   UNL     1      37.105 -24.454 -12.780  0.00  0.00    +0.072 C 
ATOM     29  C   UNL     1      36.698 -26.269 -14.322  0.00  0.00    +0.061 C 
ATOM     30  C   UNL     1      37.538 -25.615 -13.421  0.00  0.00    +0.022 C 
BRANCH  28  32
ATOM     31  N   UNL     1      38.667 -23.236 -11.105  0.00  0.00    -0.191 NA
ATOM     32  C   UNL     1      37.966 -23.784 -11.857  0.00  0.00    +0.101 C 
ENDBRANCH  28  32
ENDBRANCH  23  25
ENDBRANCH   4  23
TORSDOF 6
ENDMDL
