MODEL 1
REMARK VINA RESULT:     -12.0      0.000      0.000
REMARK  Name = 124173720
REMARK  4 active torsions:
REMARK  status: ('A' for Active; 'I' for Inactive)
REMARK    1  A    between atoms: C_13  and  N_24
REMARK    2  A    between atoms: C_18  and  C_23
REMARK    3  A    between atoms: N_24  and  C_26
REMARK    4  A    between atoms: C_26  and  C_30
REMARK                            x       y       z     vdW  Elec       q    Type
REMARK                         _______ _______ _______ _____ _____    ______ ____
ROOT
ATOM      1  O   UNL     1      32.148 -22.857 -17.961  0.00  0.00    -0.473 OA
ATOM      2  N   UNL     1      33.967 -23.929 -15.785  0.00  0.00    -0.272 N 
ATOM      3  N   UNL     1      36.098 -23.482 -16.137  0.00  0.00    -0.374 NA
ATOM      4  C   UNL     1      35.979 -24.291 -15.043  0.00  0.00    +0.190 C 
ATOM      5  C   UNL     1      34.869 -23.265 -16.593  0.00  0.00    +0.188 C 
ATOM      6  C   UNL     1      32.524 -23.976 -15.882  0.00  0.00    +0.141 C 
ATOM      7  C   UNL     1      34.664 -24.587 -14.804  0.00  0.00    +0.169 C 
ATOM      8  C   UNL     1      34.576 -22.437 -17.781  0.00  0.00    +0.078 C 
ATOM      9  C   UNL     1      31.934 -22.758 -16.556  0.00  0.00    +0.227 C 
ATOM     10  C   UNL     1      33.317 -22.287 -18.386  0.00  0.00    +0.144 C 
ATOM     11  C   UNL     1      35.663 -21.769 -18.384  0.00  0.00    +0.008 C 
ATOM     12  C   UNL     1      33.174 -21.542 -19.570  0.00  0.00    +0.051 C 
ATOM     13  C   UNL     1      34.266 -20.899 -20.143  0.00  0.00    +0.048 C 
ATOM     14  C   UNL     1      35.513 -21.007 -19.546  0.00  0.00    +0.015 C 
ATOM     15  O   UNL     1      39.202 -25.159 -13.743  0.00  0.00    -0.432 OA
ATOM     16  O   UNL     1      38.828 -23.611 -15.388  0.00  0.00    -0.226 OA
ATOM     17  N   UNL     1      37.057 -24.728 -14.312  0.00  0.00    -0.194 N 
ATOM     18  C   UNL     1      36.992 -25.586 -13.150  0.00  0.00    +0.195 C 
ATOM     19  C   UNL     1      38.394 -26.162 -13.118  0.00  0.00    +0.236 C 
ATOM     20  C   UNL     1      38.393 -24.414 -14.573  0.00  0.00    +0.411 C 
ENDROOT
BRANCH  18  23
ATOM     21  F   UNL     1      35.635 -25.383 -11.254  0.00  0.00    -0.196 F 
ATOM     22  F   UNL     1      37.738 -24.859 -11.053  0.00  0.00    -0.196 F 
ATOM     23  C   UNL     1      36.674 -24.796 -11.881  0.00  0.00    +0.340 C 
ENDBRANCH  18  23
BRANCH  13  24
ATOM     24  N   UNL     1      34.106 -20.143 -21.322  0.00  0.00    -0.327 N 
ATOM     25  H   UNL     1      33.194 -19.968 -21.648  0.00  0.00    +0.147 HD
BRANCH  24  26
ATOM     26  C   UNL     1      35.210 -19.619 -22.067  0.00  0.00    +0.146 C 
ATOM     27  C   UNL     1      34.979 -19.858 -23.552  0.00  0.00    +0.031 C 
BRANCH  26  30
ATOM     28  O   UNL     1      35.329 -17.661 -20.640  0.00  0.00    -0.274 OA
ATOM     29  N   UNL     1      35.509 -17.375 -22.911  0.00  0.00    -0.327 N 
ATOM     30  C   UNL     1      35.350 -18.136 -21.773  0.00  0.00    +0.237 C 
ATOM     31  H   UNL     1      35.609 -16.398 -22.840  0.00  0.00    +0.145 HD
ATOM     32  H   UNL     1      35.521 -17.808 -23.795  0.00  0.00    +0.145 HD
ENDBRANCH  26  30
ENDBRANCH  24  26
ENDBRANCH  13  24
TORSDOF 4
ENDMDL
MODEL 2
REMARK VINA RESULT:     -11.4      3.820      5.978
REMARK  Name = 124173720
REMARK  4 active torsions:
REMARK  status: ('A' for Active; 'I' for Inactive)
REMARK    1  A    between atoms: C_13  and  N_24
REMARK    2  A    between atoms: C_18  and  C_23
REMARK    3  A    between atoms: N_24  and  C_26
REMARK    4  A    between atoms: C_26  and  C_30
REMARK                            x       y       z     vdW  Elec       q    Type
REMARK                         _______ _______ _______ _____ _____    ______ ____
ROOT
ATOM      1  O   UNL     1      32.559 -22.601 -17.389  0.00  0.00    -0.473 OA
ATOM      2  N   UNL     1      34.951 -23.530 -15.773  0.00  0.00    -0.272 N 
ATOM      3  N   UNL     1      34.437 -24.082 -13.701  0.00  0.00    -0.374 NA
ATOM      4  C   UNL     1      35.793 -24.134 -13.862  0.00  0.00    +0.190 C 
ATOM      5  C   UNL     1      33.924 -23.707 -14.868  0.00  0.00    +0.188 C 
ATOM      6  C   UNL     1      34.878 -23.138 -17.165  0.00  0.00    +0.141 C 
ATOM      7  C   UNL     1      36.139 -23.792 -15.141  0.00  0.00    +0.169 C 
ATOM      8  C   UNL     1      32.476 -23.527 -15.100  0.00  0.00    +0.078 C 
ATOM      9  C   UNL     1      33.566 -23.511 -17.819  0.00  0.00    +0.227 C 
ATOM     10  C   UNL     1      31.890 -23.003 -16.264  0.00  0.00    +0.144 C 
ATOM     11  C   UNL     1      31.606 -23.874 -14.043  0.00  0.00    +0.008 C 
ATOM     12  C   UNL     1      30.502 -22.793 -16.338  0.00  0.00    +0.051 C 
ATOM     13  C   UNL     1      29.672 -23.141 -15.278  0.00  0.00    +0.048 C 
ATOM     14  C   UNL     1      30.224 -23.689 -14.130  0.00  0.00    +0.015 C 
ATOM     15  O   UNL     1      37.411 -24.955 -10.773  0.00  0.00    -0.432 OA
ATOM     16  O   UNL     1      35.149 -25.013 -11.121  0.00  0.00    -0.226 OA
ATOM     17  N   UNL     1      36.655 -24.484 -12.851  0.00  0.00    -0.194 N 
ATOM     18  C   UNL     1      38.095 -24.554 -12.962  0.00  0.00    +0.195 C 
ATOM     19  C   UNL     1      38.518 -24.427 -11.512  0.00  0.00    +0.236 C 
ATOM     20  C   UNL     1      36.280 -24.830 -11.550  0.00  0.00    +0.411 C 
ENDROOT
BRANCH  18  23
ATOM     21  F   UNL     1      38.853 -25.674 -14.871  0.00  0.00    -0.196 F 
ATOM     22  F   UNL     1      39.681 -26.275 -12.951  0.00  0.00    -0.196 F 
ATOM     23  C   UNL     1      38.552 -25.877 -13.573  0.00  0.00    +0.340 C 
ENDBRANCH  18  23
BRANCH  13  24
ATOM     24  N   UNL     1      28.280 -22.938 -15.370  0.00  0.00    -0.327 N 
ATOM     25  H   UNL     1      27.752 -22.921 -14.541  0.00  0.00    +0.147 HD
BRANCH  24  26
ATOM     26  C   UNL     1      27.601 -22.757 -16.617  0.00  0.00    +0.146 C 
ATOM     27  C   UNL     1      27.453 -24.101 -17.315  0.00  0.00    +0.031 C 
BRANCH  26  30
ATOM     28  O   UNL     1      25.570 -22.353 -15.353  0.00  0.00    -0.274 OA
ATOM     29  N   UNL     1      25.840 -21.280 -17.365  0.00  0.00    -0.327 N 
ATOM     30  C   UNL     1      26.242 -22.130 -16.358  0.00  0.00    +0.237 C 
ATOM     31  H   UNL     1      24.973 -20.818 -17.304  0.00  0.00    +0.145 HD
ATOM     32  H   UNL     1      26.420 -21.136 -18.148  0.00  0.00    +0.145 HD
ENDBRANCH  26  30
ENDBRANCH  24  26
ENDBRANCH  13  24
TORSDOF 4
ENDMDL
MODEL 3
REMARK VINA RESULT:     -10.8      4.066      8.805
REMARK  Name = 124173720
REMARK  4 active torsions:
REMARK  status: ('A' for Active; 'I' for Inactive)
REMARK    1  A    between atoms: C_13  and  N_24
REMARK    2  A    between atoms: C_18  and  C_23
REMARK    3  A    between atoms: N_24  and  C_26
REMARK    4  A    between atoms: C_26  and  C_30
REMARK                            x       y       z     vdW  Elec       q    Type
REMARK                         _______ _______ _______ _____ _____    ______ ____
ROOT
ATOM      1  O   UNL     1      33.777 -23.500 -16.348  0.00  0.00    -0.473 OA
ATOM      2  N   UNL     1      33.952 -21.818 -18.865  0.00  0.00    -0.272 N 
ATOM      3  N   UNL     1      35.923 -20.865 -19.136  0.00  0.00    -0.374 NA
ATOM      4  C   UNL     1      35.066 -20.420 -20.103  0.00  0.00    +0.190 C 
ATOM      5  C   UNL     1      35.240 -21.715 -18.377  0.00  0.00    +0.188 C 
ATOM      6  C   UNL     1      32.857 -22.628 -18.375  0.00  0.00    +0.141 C 
ATOM      7  C   UNL     1      33.833 -20.994 -19.955  0.00  0.00    +0.169 C 
ATOM      8  C   UNL     1      35.821 -22.411 -17.210  0.00  0.00    +0.078 C 
ATOM      9  C   UNL     1      33.317 -23.869 -17.644  0.00  0.00    +0.227 C 
ATOM     10  C   UNL     1      35.114 -23.208 -16.295  0.00  0.00    +0.144 C 
ATOM     11  C   UNL     1      37.200 -22.225 -16.970  0.00  0.00    +0.008 C 
ATOM     12  C   UNL     1      35.756 -23.749 -15.167  0.00  0.00    +0.051 C 
ATOM     13  C   UNL     1      37.115 -23.544 -14.956  0.00  0.00    +0.048 C 
ATOM     14  C   UNL     1      37.841 -22.785 -15.862  0.00  0.00    +0.015 C 
ATOM     15  O   UNL     1      36.649 -17.963 -22.175  0.00  0.00    -0.432 OA
ATOM     16  O   UNL     1      37.719 -19.226 -20.593  0.00  0.00    -0.226 OA
ATOM     17  N   UNL     1      35.432 -19.515 -21.071  0.00  0.00    -0.194 N 
ATOM     18  C   UNL     1      34.570 -19.007 -22.115  0.00  0.00    +0.195 C 
ATOM     19  C   UNL     1      35.274 -17.719 -22.491  0.00  0.00    +0.236 C 
ATOM     20  C   UNL     1      36.698 -18.940 -21.205  0.00  0.00    +0.411 C 
ENDROOT
BRANCH  18  23
ATOM     21  F   UNL     1      34.176 -19.271 -24.406  0.00  0.00    -0.196 F 
ATOM     22  F   UNL     1      35.694 -20.532 -23.489  0.00  0.00    -0.196 F 
ATOM     23  C   UNL     1      34.482 -19.972 -23.296  0.00  0.00    +0.340 C 
ENDBRANCH  18  23
BRANCH  13  24
ATOM     24  N   UNL     1      37.750 -24.104 -13.828  0.00  0.00    -0.327 N 
ATOM     25  H   UNL     1      38.724 -24.244 -13.859  0.00  0.00    +0.147 HD
BRANCH  24  26
ATOM     26  C   UNL     1      37.043 -24.476 -12.642  0.00  0.00    +0.146 C 
ATOM     27  C   UNL     1      37.330 -25.935 -12.316  0.00  0.00    +0.031 C 
BRANCH  26  30
ATOM     28  O   UNL     1      38.318 -22.686 -11.614  0.00  0.00    -0.274 OA
ATOM     29  N   UNL     1      36.819 -23.847 -10.319  0.00  0.00    -0.327 N 
ATOM     30  C   UNL     1      37.475 -23.573 -11.500  0.00  0.00    +0.237 C 
ATOM     31  H   UNL     1      37.020 -23.323  -9.510  0.00  0.00    +0.145 HD
ATOM     32  H   UNL     1      36.149 -24.569 -10.284  0.00  0.00    +0.145 HD
ENDBRANCH  26  30
ENDBRANCH  24  26
ENDBRANCH  13  24
TORSDOF 4
ENDMDL
MODEL 4
REMARK VINA RESULT:      -9.5     10.750     14.585
REMARK  Name = 124173720
REMARK  4 active torsions:
REMARK  status: ('A' for Active; 'I' for Inactive)
REMARK    1  A    between atoms: C_13  and  N_24
REMARK    2  A    between atoms: C_18  and  C_23
REMARK    3  A    between atoms: N_24  and  C_26
REMARK    4  A    between atoms: C_26  and  C_30
REMARK                            x       y       z     vdW  Elec       q    Type
REMARK                         _______ _______ _______ _____ _____    ______ ____
ROOT
ATOM      1  O   UNL     1      31.240  -9.363 -20.317  0.00  0.00    -0.473 OA
ATOM      2  N   UNL     1      32.341 -11.967 -21.415  0.00  0.00    -0.272 N 
ATOM      3  N   UNL     1      32.756 -11.888 -23.580  0.00  0.00    -0.374 NA
ATOM      4  C   UNL     1      32.952 -13.162 -23.126  0.00  0.00    +0.190 C 
ATOM      5  C   UNL     1      32.379 -11.159 -22.535  0.00  0.00    +0.188 C 
ATOM      6  C   UNL     1      32.000 -11.615 -20.054  0.00  0.00    +0.141 C 
ATOM      7  C   UNL     1      32.697 -13.239 -21.784  0.00  0.00    +0.169 C 
ATOM      8  C   UNL     1      32.062  -9.719 -22.620  0.00  0.00    +0.078 C 
ATOM      9  C   UNL     1      32.264 -10.162 -19.731  0.00  0.00    +0.227 C 
ATOM     10  C   UNL     1      31.528  -8.934 -21.585  0.00  0.00    +0.144 C 
ATOM     11  C   UNL     1      32.278  -9.084 -23.862  0.00  0.00    +0.008 C 
ATOM     12  C   UNL     1      31.182  -7.589 -21.808  0.00  0.00    +0.051 C 
ATOM     13  C   UNL     1      31.403  -6.993 -23.045  0.00  0.00    +0.048 C 
ATOM     14  C   UNL     1      31.958  -7.740 -24.074  0.00  0.00    +0.015 C 
ATOM     15  O   UNL     1      33.809 -15.359 -25.823  0.00  0.00    -0.432 OA
ATOM     16  O   UNL     1      33.652 -13.081 -25.990  0.00  0.00    -0.226 OA
ATOM     17  N   UNL     1      33.346 -14.196 -23.940  0.00  0.00    -0.194 N 
ATOM     18  C   UNL     1      33.565 -15.562 -23.517  0.00  0.00    +0.195 C 
ATOM     19  C   UNL     1      33.424 -16.312 -24.827  0.00  0.00    +0.236 C 
ATOM     20  C   UNL     1      33.601 -14.097 -25.310  0.00  0.00    +0.411 C 
ENDROOT
BRANCH  18  23
ATOM     21  F   UNL     1      34.838 -15.707 -21.559  0.00  0.00    -0.196 F 
ATOM     22  F   UNL     1      35.412 -16.972 -23.235  0.00  0.00    -0.196 F 
ATOM     23  C   UNL     1      34.951 -15.748 -22.902  0.00  0.00    +0.340 C 
ENDBRANCH  18  23
BRANCH  13  24
ATOM     24  N   UNL     1      31.065  -5.640 -23.251  0.00  0.00    -0.327 N 
ATOM     25  H   UNL     1      30.205  -5.432 -23.680  0.00  0.00    +0.147 HD
BRANCH  24  26
ATOM     26  C   UNL     1      31.917  -4.558 -22.866  0.00  0.00    +0.146 C 
ATOM     27  C   UNL     1      32.251  -3.714 -24.087  0.00  0.00    +0.031 C 
BRANCH  26  30
ATOM     28  O   UNL     1      30.111  -3.999 -21.346  0.00  0.00    -0.274 OA
ATOM     29  N   UNL     1      31.948  -2.624 -21.416  0.00  0.00    -0.327 N 
ATOM     30  C   UNL     1      31.215  -3.723 -21.808  0.00  0.00    +0.237 C 
ATOM     31  H   UNL     1      31.590  -2.010 -20.735  0.00  0.00    +0.145 HD
ATOM     32  H   UNL     1      32.831  -2.452 -21.818  0.00  0.00    +0.145 HD
ENDBRANCH  26  30
ENDBRANCH  24  26
ENDBRANCH  13  24
TORSDOF 4
ENDMDL
MODEL 5
REMARK VINA RESULT:      -9.2      4.070      8.694
REMARK  Name = 124173720
REMARK  4 active torsions:
REMARK  status: ('A' for Active; 'I' for Inactive)
REMARK    1  A    between atoms: C_13  and  N_24
REMARK    2  A    between atoms: C_18  and  C_23
REMARK    3  A    between atoms: N_24  and  C_26
REMARK    4  A    between atoms: C_26  and  C_30
REMARK                            x       y       z     vdW  Elec       q    Type
REMARK                         _______ _______ _______ _____ _____    ______ ____
ROOT
ATOM      1  O   UNL     1      36.276 -23.959 -15.457  0.00  0.00    -0.473 OA
ATOM      2  N   UNL     1      36.219 -22.117 -17.866  0.00  0.00    -0.272 N 
ATOM      3  N   UNL     1      34.191 -21.816 -18.679  0.00  0.00    -0.374 NA
ATOM      4  C   UNL     1      35.103 -21.210 -19.496  0.00  0.00    +0.190 C 
ATOM      5  C   UNL     1      34.874 -22.375 -17.686  0.00  0.00    +0.188 C 
ATOM      6  C   UNL     1      37.338 -22.512 -17.036  0.00  0.00    +0.141 C 
ATOM      7  C   UNL     1      36.372 -21.385 -19.015  0.00  0.00    +0.169 C 
ATOM      8  C   UNL     1      34.240 -23.138 -16.591  0.00  0.00    +0.078 C 
ATOM      9  C   UNL     1      36.960 -22.716 -15.587  0.00  0.00    +0.227 C 
ATOM     10  C   UNL     1      34.918 -23.862 -15.596  0.00  0.00    +0.144 C 
ATOM     11  C   UNL     1      32.829 -23.174 -16.564  0.00  0.00    +0.008 C 
ATOM     12  C   UNL     1      34.207 -24.627 -14.655  0.00  0.00    +0.051 C 
ATOM     13  C   UNL     1      32.816 -24.646 -14.657  0.00  0.00    +0.048 C 
ATOM     14  C   UNL     1      32.125 -23.913 -15.611  0.00  0.00    +0.015 C 
ATOM     15  O   UNL     1      33.495 -19.778 -22.359  0.00  0.00    -0.432 OA
ATOM     16  O   UNL     1      32.404 -20.660 -20.551  0.00  0.00    -0.226 OA
ATOM     17  N   UNL     1      34.752 -20.531 -20.638  0.00  0.00    -0.194 N 
ATOM     18  C   UNL     1      35.672 -19.873 -21.541  0.00  0.00    +0.195 C 
ATOM     19  C   UNL     1      34.852 -19.807 -22.814  0.00  0.00    +0.236 C 
ATOM     20  C   UNL     1      33.449 -20.362 -21.113  0.00  0.00    +0.411 C 
ENDROOT
BRANCH  18  23
ATOM     21  F   UNL     1      37.400 -18.362 -21.092  0.00  0.00    -0.196 F 
ATOM     22  F   UNL     1      35.535 -17.561 -21.876  0.00  0.00    -0.196 F 
ATOM     23  C   UNL     1      36.058 -18.483 -21.041  0.00  0.00    +0.340 C 
ENDBRANCH  18  23
BRANCH  13  24
ATOM     24  N   UNL     1      32.116 -25.405 -13.698  0.00  0.00    -0.327 N 
ATOM     25  H   UNL     1      32.476 -26.283 -13.440  0.00  0.00    +0.147 HD
BRANCH  24  26
ATOM     26  C   UNL     1      30.904 -24.956 -13.085  0.00  0.00    +0.146 C 
ATOM     27  C   UNL     1      31.014 -23.471 -12.770  0.00  0.00    +0.031 C 
BRANCH  26  30
ATOM     28  O   UNL     1      29.165 -24.345 -14.663  0.00  0.00    -0.274 OA
ATOM     29  N   UNL     1      29.398 -26.556 -14.091  0.00  0.00    -0.327 N 
ATOM     30  C   UNL     1      29.740 -25.223 -14.025  0.00  0.00    +0.237 C 
ATOM     31  H   UNL     1      28.656 -26.846 -14.669  0.00  0.00    +0.145 HD
ATOM     32  H   UNL     1      29.895 -27.220 -13.559  0.00  0.00    +0.145 HD
ENDBRANCH  26  30
ENDBRANCH  24  26
ENDBRANCH  13  24
TORSDOF 4
ENDMDL
