MODEL 1
REMARK VINA RESULT:     -12.1      0.000      0.000
REMARK  Name = 46207733
REMARK  4 active torsions:
REMARK  status: ('A' for Active; 'I' for Inactive)
REMARK    1  A    between atoms: N_2  and  C_16
REMARK    2  A    between atoms: C_10  and  C_24
REMARK    3  A    between atoms: C_17  and  O_22
REMARK    4  A    between atoms: C_24  and  C_26
REMARK                            x       y       z     vdW  Elec       q    Type
REMARK                         _______ _______ _______ _____ _____    ______ ____
ROOT
ATOM      1  O   UNL     1      36.435 -22.392 -18.050  0.00  0.00    -0.274 OA
ATOM      2  N   UNL     1      34.614 -21.580 -19.252  0.00  0.00    -0.257 N 
ATOM      3  N   UNL     1      32.398 -21.939 -18.481  0.00  0.00    -0.252 NA
ATOM      4  C   UNL     1      35.224 -22.250 -18.190  0.00  0.00    +0.236 C 
ATOM      5  C   UNL     1      33.241 -21.464 -19.335  0.00  0.00    +0.222 C 
ATOM      6  C   UNL     1      34.288 -22.810 -17.187  0.00  0.00    +0.138 C 
ATOM      7  C   UNL     1      32.905 -22.637 -17.365  0.00  0.00    +0.068 C 
ATOM      8  C   UNL     1      32.006 -23.173 -16.406  0.00  0.00    +0.014 C 
ATOM      9  C   UNL     1      34.788 -23.501 -16.083  0.00  0.00    -0.015 C 
ATOM     10  C   UNL     1      33.909 -24.028 -15.142  0.00  0.00    -0.021 C 
ATOM     11  C   UNL     1      32.523 -23.874 -15.287  0.00  0.00    -0.003 C 
ATOM     12  C   UNL     1      30.604 -23.041 -16.513  0.00  0.00    +0.001 C 
ATOM     13  C   UNL     1      31.645 -24.410 -14.330  0.00  0.00    -0.000 C 
ATOM     14  C   UNL     1      29.746 -23.580 -15.553  0.00  0.00    +0.000 C 
ATOM     15  C   UNL     1      30.266 -24.264 -14.463  0.00  0.00    -0.000 C 
ENDROOT
BRANCH   2  16
ATOM     16  C   UNL     1      35.438 -20.996 -20.287  0.00  0.00    +0.104 C 
ATOM     17  C   UNL     1      36.238 -19.810 -19.734  0.00  0.00    +0.129 C 
ATOM     18  C   UNL     1      34.569 -20.584 -21.479  0.00  0.00    +0.022 C 
ATOM     19  C   UNL     1      37.032 -19.101 -20.833  0.00  0.00    +0.031 C 
ATOM     20  C   UNL     1      35.382 -19.886 -22.564  0.00  0.00    +0.002 C 
ATOM     21  C   UNL     1      36.149 -18.693 -22.004  0.00  0.00    +0.003 C 
BRANCH  17  22
ATOM     22  O   UNL     1      37.153 -20.289 -18.749  0.00  0.00    -0.383 OA
ATOM     23  H   UNL     1      37.793 -19.592 -18.535  0.00  0.00    +0.210 HD
ENDBRANCH  17  22
ENDBRANCH   2  16
BRANCH  10  24
ATOM     24  C   UNL     1      34.513 -24.758 -13.982  0.00  0.00    +0.054 C 
BRANCH  24  26
ATOM     25  N   UNL     1      38.265 -24.209 -13.889  0.00  0.00    -0.248 NA
ATOM     26  C   UNL     1      35.997 -25.013 -14.129  0.00  0.00    +0.001 C 
ATOM     27  C   UNL     1      36.470 -26.226 -14.618  0.00  0.00    -0.001 C 
ATOM     28  C   UNL     1      36.926 -24.046 -13.781  0.00  0.00    +0.094 C 
ATOM     29  C   UNL     1      37.840 -26.431 -14.743  0.00  0.00    +0.014 C 
ATOM     30  C   UNL     1      38.687 -25.401 -14.368  0.00  0.00    +0.059 C 
ATOM     31  C   UNL     1      40.164 -25.586 -14.489  0.00  0.00    +0.052 C 
ENDBRANCH  24  26
ENDBRANCH  10  24
TORSDOF 4
ENDMDL
MODEL 2
REMARK VINA RESULT:     -11.8      1.833      5.437
REMARK  Name = 46207733
REMARK  4 active torsions:
REMARK  status: ('A' for Active; 'I' for Inactive)
REMARK    1  A    between atoms: N_2  and  C_16
REMARK    2  A    between atoms: C_10  and  C_24
REMARK    3  A    between atoms: C_17  and  O_22
REMARK    4  A    between atoms: C_24  and  C_26
REMARK                            x       y       z     vdW  Elec       q    Type
REMARK                         _______ _______ _______ _____ _____    ______ ____
ROOT
ATOM      1  O   UNL     1      32.634 -22.635 -18.556  0.00  0.00    -0.274 OA
ATOM      2  N   UNL     1      34.893 -22.088 -18.423  0.00  0.00    -0.257 N 
ATOM      3  N   UNL     1      36.147 -22.592 -16.471  0.00  0.00    -0.252 NA
ATOM      4  C   UNL     1      33.695 -22.616 -17.939  0.00  0.00    +0.236 C 
ATOM      5  C   UNL     1      36.045 -22.106 -17.663  0.00  0.00    +0.222 C 
ATOM      6  C   UNL     1      33.771 -23.183 -16.572  0.00  0.00    +0.138 C 
ATOM      7  C   UNL     1      34.995 -23.152 -15.883  0.00  0.00    +0.068 C 
ATOM      8  C   UNL     1      35.070 -23.695 -14.573  0.00  0.00    +0.014 C 
ATOM      9  C   UNL     1      32.632 -23.737 -15.988  0.00  0.00    -0.015 C 
ATOM     10  C   UNL     1      32.703 -24.269 -14.704  0.00  0.00    -0.021 C 
ATOM     11  C   UNL     1      33.908 -24.256 -13.986  0.00  0.00    -0.003 C 
ATOM     12  C   UNL     1      36.262 -23.702 -13.814  0.00  0.00    +0.001 C 
ATOM     13  C   UNL     1      33.968 -24.796 -12.691  0.00  0.00    -0.000 C 
ATOM     14  C   UNL     1      36.304 -24.242 -12.528  0.00  0.00    +0.000 C 
ATOM     15  C   UNL     1      35.158 -24.789 -11.967  0.00  0.00    -0.000 C 
ENDROOT
BRANCH   2  16
ATOM     16  C   UNL     1      34.927 -21.508 -19.747  0.00  0.00    +0.104 C 
ATOM     17  C   UNL     1      36.168 -20.622 -19.916  0.00  0.00    +0.129 C 
ATOM     18  C   UNL     1      33.636 -20.728 -20.012  0.00  0.00    +0.022 C 
ATOM     19  C   UNL     1      36.172 -19.904 -21.267  0.00  0.00    +0.031 C 
ATOM     20  C   UNL     1      33.660 -20.028 -21.366  0.00  0.00    +0.002 C 
ATOM     21  C   UNL     1      34.884 -19.129 -21.507  0.00  0.00    +0.003 C 
BRANCH  17  22
ATOM     22  O   UNL     1      37.335 -21.439 -19.831  0.00  0.00    -0.383 OA
ATOM     23  H   UNL     1      37.151 -22.308 -20.220  0.00  0.00    +0.210 HD
ENDBRANCH  17  22
ENDBRANCH   2  16
BRANCH  10  24
ATOM     24  C   UNL     1      31.444 -24.849 -14.137  0.00  0.00    +0.054 C 
BRANCH  24  26
ATOM     25  N   UNL     1      28.738 -22.301 -14.895  0.00  0.00    -0.248 NA
ATOM     26  C   UNL     1      30.183 -24.230 -14.699  0.00  0.00    +0.001 C 
ATOM     27  C   UNL     1      29.322 -24.966 -15.506  0.00  0.00    -0.001 C 
ATOM     28  C   UNL     1      29.849 -22.913 -14.426  0.00  0.00    +0.094 C 
ATOM     29  C   UNL     1      28.169 -24.371 -16.008  0.00  0.00    +0.014 C 
ATOM     30  C   UNL     1      27.925 -23.047 -15.676  0.00  0.00    +0.059 C 
ATOM     31  C   UNL     1      26.698 -22.376 -16.196  0.00  0.00    +0.052 C 
ENDBRANCH  24  26
ENDBRANCH  10  24
TORSDOF 4
ENDMDL
MODEL 3
REMARK VINA RESULT:     -11.7      2.615      7.077
REMARK  Name = 46207733
REMARK  4 active torsions:
REMARK  status: ('A' for Active; 'I' for Inactive)
REMARK    1  A    between atoms: N_2  and  C_16
REMARK    2  A    between atoms: C_10  and  C_24
REMARK    3  A    between atoms: C_17  and  O_22
REMARK    4  A    between atoms: C_24  and  C_26
REMARK                            x       y       z     vdW  Elec       q    Type
REMARK                         _______ _______ _______ _____ _____    ______ ____
ROOT
ATOM      1  O   UNL     1      31.810 -23.094 -16.377  0.00  0.00    -0.274 OA
ATOM      2  N   UNL     1      31.141 -24.031 -14.353  0.00  0.00    -0.257 N 
ATOM      3  N   UNL     1      32.741 -24.612 -12.700  0.00  0.00    -0.252 NA
ATOM      4  C   UNL     1      32.079 -23.553 -15.270  0.00  0.00    +0.236 C 
ATOM      5  C   UNL     1      31.526 -24.531 -13.126  0.00  0.00    +0.222 C 
ATOM      6  C   UNL     1      33.488 -23.629 -14.817  0.00  0.00    +0.138 C 
ATOM      7  C   UNL     1      33.773 -24.157 -13.547  0.00  0.00    +0.068 C 
ATOM      8  C   UNL     1      35.122 -24.231 -13.110  0.00  0.00    +0.014 C 
ATOM      9  C   UNL     1      34.509 -23.180 -15.654  0.00  0.00    -0.015 C 
ATOM     10  C   UNL     1      35.832 -23.253 -15.229  0.00  0.00    -0.021 C 
ATOM     11  C   UNL     1      36.155 -23.773 -13.967  0.00  0.00    -0.003 C 
ATOM     12  C   UNL     1      35.491 -24.748 -11.849  0.00  0.00    +0.001 C 
ATOM     13  C   UNL     1      37.494 -23.841 -13.549  0.00  0.00    -0.000 C 
ATOM     14  C   UNL     1      36.827 -24.809 -11.449  0.00  0.00    +0.000 C 
ATOM     15  C   UNL     1      37.828 -24.356 -12.298  0.00  0.00    -0.000 C 
ENDROOT
BRANCH   2  16
ATOM     16  C   UNL     1      29.737 -24.002 -14.697  0.00  0.00    +0.104 C 
ATOM     17  C   UNL     1      29.471 -24.845 -15.951  0.00  0.00    +0.129 C 
ATOM     18  C   UNL     1      29.271 -22.555 -14.882  0.00  0.00    +0.022 C 
ATOM     19  C   UNL     1      28.014 -24.741 -16.406  0.00  0.00    +0.031 C 
ATOM     20  C   UNL     1      27.815 -22.476 -15.327  0.00  0.00    +0.002 C 
ATOM     21  C   UNL     1      27.574 -23.296 -16.591  0.00  0.00    +0.003 C 
BRANCH  17  22
ATOM     22  O   UNL     1      29.761 -26.212 -15.659  0.00  0.00    -0.383 OA
ATOM     23  H   UNL     1      29.046 -26.586 -15.120  0.00  0.00    +0.210 HD
ENDBRANCH  17  22
ENDBRANCH   2  16
BRANCH  10  24
ATOM     24  C   UNL     1      36.879 -22.753 -16.176  0.00  0.00    +0.054 C 
BRANCH  24  26
ATOM     25  N   UNL     1      36.523 -20.546 -19.240  0.00  0.00    -0.248 NA
ATOM     26  C   UNL     1      36.314 -22.151 -17.445  0.00  0.00    +0.001 C 
ATOM     27  C   UNL     1      35.116 -22.609 -17.982  0.00  0.00    -0.001 C 
ATOM     28  C   UNL     1      36.974 -21.128 -18.105  0.00  0.00    +0.094 C 
ATOM     29  C   UNL     1      34.621 -22.036 -19.149  0.00  0.00    +0.014 C 
ATOM     30  C   UNL     1      35.356 -21.017 -19.734  0.00  0.00    +0.059 C 
ATOM     31  C   UNL     1      34.855 -20.379 -20.987  0.00  0.00    +0.052 C 
ENDBRANCH  24  26
ENDBRANCH  10  24
TORSDOF 4
ENDMDL
MODEL 4
REMARK VINA RESULT:     -11.6      2.073      6.623
REMARK  Name = 46207733
REMARK  4 active torsions:
REMARK  status: ('A' for Active; 'I' for Inactive)
REMARK    1  A    between atoms: N_2  and  C_16
REMARK    2  A    between atoms: C_10  and  C_24
REMARK    3  A    between atoms: C_17  and  O_22
REMARK    4  A    between atoms: C_24  and  C_26
REMARK                            x       y       z     vdW  Elec       q    Type
REMARK                         _______ _______ _______ _____ _____    ______ ____
ROOT
ATOM      1  O   UNL     1      36.334 -24.215 -15.478  0.00  0.00    -0.274 OA
ATOM      2  N   UNL     1      35.337 -24.587 -13.407  0.00  0.00    -0.257 N 
ATOM      3  N   UNL     1      33.006 -24.252 -13.109  0.00  0.00    -0.252 NA
ATOM      4  C   UNL     1      35.341 -24.229 -14.756  0.00  0.00    +0.236 C 
ATOM      5  C   UNL     1      34.174 -24.577 -12.665  0.00  0.00    +0.222 C 
ATOM      6  C   UNL     1      34.017 -23.848 -15.304  0.00  0.00    +0.138 C 
ATOM      7  C   UNL     1      32.893 -23.871 -14.462  0.00  0.00    +0.068 C 
ATOM      8  C   UNL     1      31.624 -23.507 -14.984  0.00  0.00    +0.014 C 
ATOM      9  C   UNL     1      33.904 -23.471 -16.642  0.00  0.00    -0.015 C 
ATOM     10  C   UNL     1      32.662 -23.113 -17.156  0.00  0.00    -0.021 C 
ATOM     11  C   UNL     1      31.518 -23.125 -16.345  0.00  0.00    -0.003 C 
ATOM     12  C   UNL     1      30.447 -23.505 -14.203  0.00  0.00    +0.001 C 
ATOM     13  C   UNL     1      30.268 -22.761 -16.875  0.00  0.00    -0.000 C 
ATOM     14  C   UNL     1      29.213 -23.140 -14.745  0.00  0.00    +0.000 C 
ATOM     15  C   UNL     1      29.124 -22.769 -16.080  0.00  0.00    -0.000 C 
ENDROOT
BRANCH   2  16
ATOM     16  C   UNL     1      36.578 -24.975 -12.774  0.00  0.00    +0.104 C 
ATOM     17  C   UNL     1      37.443 -23.742 -12.484  0.00  0.00    +0.129 C 
ATOM     18  C   UNL     1      37.318 -25.990 -13.650  0.00  0.00    +0.022 C 
ATOM     19  C   UNL     1      38.811 -24.130 -11.919  0.00  0.00    +0.031 C 
ATOM     20  C   UNL     1      38.675 -26.368 -13.064  0.00  0.00    +0.002 C 
ATOM     21  C   UNL     1      39.533 -25.133 -12.808  0.00  0.00    +0.003 C 
BRANCH  17  22
ATOM     22  O   UNL     1      36.772 -22.921 -11.529  0.00  0.00    -0.383 OA
ATOM     23  H   UNL     1      37.388 -22.681 -10.818  0.00  0.00    +0.210 HD
ENDBRANCH  17  22
ENDBRANCH   2  16
BRANCH  10  24
ATOM     24  C   UNL     1      32.611 -22.719 -18.600  0.00  0.00    +0.054 C 
BRANCH  24  26
ATOM     25  N   UNL     1      34.736 -20.098 -20.332  0.00  0.00    -0.248 NA
ATOM     26  C   UNL     1      33.824 -21.942 -19.062  0.00  0.00    +0.001 C 
ATOM     27  C   UNL     1      35.106 -22.320 -18.675  0.00  0.00    -0.001 C 
ATOM     28  C   UNL     1      33.694 -20.835 -19.884  0.00  0.00    +0.094 C 
ATOM     29  C   UNL     1      36.203 -21.587 -19.115  0.00  0.00    +0.014 C 
ATOM     30  C   UNL     1      35.966 -20.494 -19.935  0.00  0.00    +0.059 C 
ATOM     31  C   UNL     1      37.120 -19.685 -20.427  0.00  0.00    +0.052 C 
ENDBRANCH  24  26
ENDBRANCH  10  24
TORSDOF 4
ENDMDL
MODEL 5
REMARK VINA RESULT:     -11.4     11.287     16.793
REMARK  Name = 46207733
REMARK  4 active torsions:
REMARK  status: ('A' for Active; 'I' for Inactive)
REMARK    1  A    between atoms: N_2  and  C_16
REMARK    2  A    between atoms: C_10  and  C_24
REMARK    3  A    between atoms: C_17  and  O_22
REMARK    4  A    between atoms: C_24  and  C_26
REMARK                            x       y       z     vdW  Elec       q    Type
REMARK                         _______ _______ _______ _____ _____    ______ ____
ROOT
ATOM      1  O   UNL     1      34.853 -11.598 -24.119  0.00  0.00    -0.274 OA
ATOM      2  N   UNL     1      32.962 -12.094 -22.854  0.00  0.00    -0.257 N 
ATOM      3  N   UNL     1      31.675 -10.360 -21.870  0.00  0.00    -0.252 NA
ATOM      4  C   UNL     1      33.895 -11.237 -23.441  0.00  0.00    +0.236 C 
ATOM      5  C   UNL     1      31.911 -11.607 -22.105  0.00  0.00    +0.222 C 
ATOM      6  C   UNL     1      33.658  -9.795 -23.193  0.00  0.00    +0.138 C 
ATOM      7  C   UNL     1      32.556  -9.404 -22.415  0.00  0.00    +0.068 C 
ATOM      8  C   UNL     1      32.328  -8.023 -22.176  0.00  0.00    +0.014 C 
ATOM      9  C   UNL     1      34.529  -8.848 -23.732  0.00  0.00    -0.015 C 
ATOM     10  C   UNL     1      34.308  -7.495 -23.499  0.00  0.00    -0.021 C 
ATOM     11  C   UNL     1      33.218  -7.067 -22.727  0.00  0.00    -0.003 C 
ATOM     12  C   UNL     1      31.243  -7.549 -21.405  0.00  0.00    +0.001 C 
ATOM     13  C   UNL     1      33.004  -5.697 -22.499  0.00  0.00    -0.000 C 
ATOM     14  C   UNL     1      31.046  -6.184 -21.188  0.00  0.00    +0.000 C 
ATOM     15  C   UNL     1      31.926  -5.259 -21.734  0.00  0.00    -0.000 C 
ENDROOT
BRANCH   2  16
ATOM     16  C   UNL     1      33.102 -13.522 -23.034  0.00  0.00    +0.104 C 
ATOM     17  C   UNL     1      34.296 -14.052 -22.230  0.00  0.00    +0.129 C 
ATOM     18  C   UNL     1      33.233 -13.853 -24.524  0.00  0.00    +0.022 C 
ATOM     19  C   UNL     1      34.539 -15.540 -22.490  0.00  0.00    +0.031 C 
ATOM     20  C   UNL     1      33.467 -15.342 -24.759  0.00  0.00    +0.002 C 
ATOM     21  C   UNL     1      34.674 -15.846 -23.976  0.00  0.00    +0.003 C 
BRANCH  17  22
ATOM     22  O   UNL     1      34.034 -13.870 -20.839  0.00  0.00    -0.383 OA
ATOM     23  H   UNL     1      34.404 -13.022 -20.548  0.00  0.00    +0.210 HD
ENDBRANCH  17  22
ENDBRANCH   2  16
BRANCH  10  24
ATOM     24  C   UNL     1      35.281  -6.532 -24.107  0.00  0.00    +0.054 C 
BRANCH  24  26
ATOM     25  N   UNL     1      34.081  -4.271 -26.906  0.00  0.00    -0.248 NA
ATOM     26  C   UNL     1      34.885  -6.056 -25.487  0.00  0.00    +0.001 C 
ATOM     27  C   UNL     1      34.945  -6.911 -26.583  0.00  0.00    -0.001 C 
ATOM     28  C   UNL     1      34.451  -4.758 -25.699  0.00  0.00    +0.094 C 
ATOM     29  C   UNL     1      34.574  -6.446 -27.840  0.00  0.00    +0.014 C 
ATOM     30  C   UNL     1      34.154  -5.130 -27.948  0.00  0.00    +0.059 C 
ATOM     31  C   UNL     1      33.747  -4.597 -29.282  0.00  0.00    +0.052 C 
ENDBRANCH  24  26
ENDBRANCH  10  24
TORSDOF 4
ENDMDL
MODEL 6
REMARK VINA RESULT:     -11.3      9.241     14.280
REMARK  Name = 46207733
REMARK  4 active torsions:
REMARK  status: ('A' for Active; 'I' for Inactive)
REMARK    1  A    between atoms: N_2  and  C_16
REMARK    2  A    between atoms: C_10  and  C_24
REMARK    3  A    between atoms: C_17  and  O_22
REMARK    4  A    between atoms: C_24  and  C_26
REMARK                            x       y       z     vdW  Elec       q    Type
REMARK                         _______ _______ _______ _____ _____    ______ ____
ROOT
ATOM      1  O   UNL     1      33.675 -13.299 -24.665  0.00  0.00    -0.274 OA
ATOM      2  N   UNL     1      33.884 -14.521 -22.695  0.00  0.00    -0.257 N 
ATOM      3  N   UNL     1      33.186 -13.602 -20.621  0.00  0.00    -0.252 NA
ATOM      4  C   UNL     1      33.533 -13.401 -23.450  0.00  0.00    +0.236 C 
ATOM      5  C   UNL     1      33.691 -14.556 -21.329  0.00  0.00    +0.222 C 
ATOM      6  C   UNL     1      32.949 -12.283 -22.672  0.00  0.00    +0.138 C 
ATOM      7  C   UNL     1      32.796 -12.420 -21.283  0.00  0.00    +0.068 C 
ATOM      8  C   UNL     1      32.236 -11.350 -20.535  0.00  0.00    +0.014 C 
ATOM      9  C   UNL     1      32.563 -11.112 -23.325  0.00  0.00    -0.015 C 
ATOM     10  C   UNL     1      32.015 -10.063 -22.595  0.00  0.00    -0.021 C 
ATOM     11  C   UNL     1      31.846 -10.164 -21.206  0.00  0.00    -0.003 C 
ATOM     12  C   UNL     1      32.049 -11.410 -19.136  0.00  0.00    +0.001 C 
ATOM     13  C   UNL     1      31.292  -9.097 -20.479  0.00  0.00    -0.000 C 
ATOM     14  C   UNL     1      31.497 -10.340 -18.429  0.00  0.00    +0.000 C 
ATOM     15  C   UNL     1      31.119  -9.184 -19.100  0.00  0.00    -0.000 C 
ENDROOT
BRANCH   2  16
ATOM     16  C   UNL     1      34.464 -15.668 -23.357  0.00  0.00    +0.104 C 
ATOM     17  C   UNL     1      33.399 -16.416 -24.170  0.00  0.00    +0.129 C 
ATOM     18  C   UNL     1      35.136 -16.584 -22.329  0.00  0.00    +0.022 C 
ATOM     19  C   UNL     1      33.957 -17.699 -24.790  0.00  0.00    +0.031 C 
ATOM     20  C   UNL     1      35.690 -17.852 -22.971  0.00  0.00    +0.002 C 
ATOM     21  C   UNL     1      34.613 -18.598 -23.751  0.00  0.00    +0.003 C 
BRANCH  17  22
ATOM     22  O   UNL     1      32.938 -15.566 -25.220  0.00  0.00    -0.383 OA
ATOM     23  H   UNL     1      33.496 -15.688 -26.004  0.00  0.00    +0.210 HD
ENDBRANCH  17  22
ENDBRANCH   2  16
BRANCH  10  24
ATOM     24  C   UNL     1      31.622  -8.836 -23.358  0.00  0.00    +0.054 C 
BRANCH  24  26
ATOM     25  N   UNL     1      33.753  -6.653 -25.611  0.00  0.00    -0.248 NA
ATOM     26  C   UNL     1      32.798  -8.036 -23.874  0.00  0.00    +0.001 C 
ATOM     27  C   UNL     1      33.974  -7.936 -23.137  0.00  0.00    -0.001 C 
ATOM     28  C   UNL     1      32.739  -7.382 -25.093  0.00  0.00    +0.094 C 
ATOM     29  C   UNL     1      35.039  -7.195 -23.636  0.00  0.00    +0.014 C 
ATOM     30  C   UNL     1      34.880  -6.577 -24.867  0.00  0.00    +0.059 C 
ATOM     31  C   UNL     1      36.003  -5.774 -25.434  0.00  0.00    +0.052 C 
ENDBRANCH  24  26
ENDBRANCH  10  24
TORSDOF 4
ENDMDL
MODEL 7
REMARK VINA RESULT:     -11.3      4.928      8.694
REMARK  Name = 46207733
REMARK  4 active torsions:
REMARK  status: ('A' for Active; 'I' for Inactive)
REMARK    1  A    between atoms: N_2  and  C_16
REMARK    2  A    between atoms: C_10  and  C_24
REMARK    3  A    between atoms: C_17  and  O_22
REMARK    4  A    between atoms: C_24  and  C_26
REMARK                            x       y       z     vdW  Elec       q    Type
REMARK                         _______ _______ _______ _____ _____    ______ ____
ROOT
ATOM      1  O   UNL     1      34.932 -14.550 -20.544  0.00  0.00    -0.274 OA
ATOM      2  N   UNL     1      33.795 -14.208 -22.547  0.00  0.00    -0.257 N 
ATOM      3  N   UNL     1      33.562 -15.967 -24.122  0.00  0.00    -0.252 NA
ATOM      4  C   UNL     1      34.516 -14.965 -21.622  0.00  0.00    +0.236 C 
ATOM      5  C   UNL     1      33.362 -14.751 -23.739  0.00  0.00    +0.222 C 
ATOM      6  C   UNL     1      34.766 -16.368 -22.027  0.00  0.00    +0.138 C 
ATOM      7  C   UNL     1      34.282 -16.823 -23.264  0.00  0.00    +0.068 C 
ATOM      8  C   UNL     1      34.521 -18.168 -23.654  0.00  0.00    +0.014 C 
ATOM      9  C   UNL     1      35.478 -17.217 -21.179  0.00  0.00    -0.015 C 
ATOM     10  C   UNL     1      35.714 -18.534 -21.559  0.00  0.00    -0.021 C 
ATOM     11  C   UNL     1      35.245 -19.023 -22.787  0.00  0.00    -0.003 C 
ATOM     12  C   UNL     1      34.067 -18.701 -24.881  0.00  0.00    +0.001 C 
ATOM     13  C   UNL     1      35.490 -20.356 -23.160  0.00  0.00    -0.000 C 
ATOM     14  C   UNL     1      34.318 -20.027 -25.237  0.00  0.00    +0.000 C 
ATOM     15  C   UNL     1      35.030 -20.854 -24.377  0.00  0.00    -0.000 C 
ENDROOT
BRANCH   2  16
ATOM     16  C   UNL     1      33.497 -12.824 -22.249  0.00  0.00    +0.104 C 
ATOM     17  C   UNL     1      32.071 -12.685 -21.701  0.00  0.00    +0.129 C 
ATOM     18  C   UNL     1      33.708 -11.962 -23.498  0.00  0.00    +0.022 C 
ATOM     19  C   UNL     1      31.687 -11.220 -21.485  0.00  0.00    +0.031 C 
ATOM     20  C   UNL     1      33.326 -10.505 -23.257  0.00  0.00    +0.002 C 
ATOM     21  C   UNL     1      31.896 -10.383 -22.739  0.00  0.00    +0.003 C 
BRANCH  17  22
ATOM     22  O   UNL     1      31.989 -13.367 -20.450  0.00  0.00    -0.383 OA
ATOM     23  H   UNL     1      31.384 -12.890 -19.860  0.00  0.00    +0.210 HD
ENDBRANCH  17  22
ENDBRANCH   2  16
BRANCH  10  24
ATOM     24  C   UNL     1      36.485 -19.391 -20.602  0.00  0.00    +0.054 C 
BRANCH  24  26
ATOM     25  N   UNL     1      35.532 -22.376 -18.466  0.00  0.00    -0.248 NA
ATOM     26  C   UNL     1      35.645 -20.448 -19.919  0.00  0.00    +0.001 C 
ATOM     27  C   UNL     1      34.266 -20.489 -20.094  0.00  0.00    -0.001 C 
ATOM     28  C   UNL     1      36.225 -21.405 -19.103  0.00  0.00    +0.094 C 
ATOM     29  C   UNL     1      33.519 -21.473 -19.454  0.00  0.00    +0.014 C 
ATOM     30  C   UNL     1      34.194 -22.384 -18.658  0.00  0.00    +0.059 C 
ATOM     31  C   UNL     1      33.425 -23.455 -17.957  0.00  0.00    +0.052 C 
ENDBRANCH  24  26
ENDBRANCH  10  24
TORSDOF 4
ENDMDL
MODEL 8
REMARK VINA RESULT:     -10.8     11.571     15.358
REMARK  Name = 46207733
REMARK  4 active torsions:
REMARK  status: ('A' for Active; 'I' for Inactive)
REMARK    1  A    between atoms: N_2  and  C_16
REMARK    2  A    between atoms: C_10  and  C_24
REMARK    3  A    between atoms: C_17  and  O_22
REMARK    4  A    between atoms: C_24  and  C_26
REMARK                            x       y       z     vdW  Elec       q    Type
REMARK                         _______ _______ _______ _____ _____    ______ ____
ROOT
ATOM      1  O   UNL     1      32.315  -8.297 -25.332  0.00  0.00    -0.274 OA
ATOM      2  N   UNL     1      32.950  -6.478 -24.025  0.00  0.00    -0.257 N 
ATOM      3  N   UNL     1      32.895  -6.612 -21.656  0.00  0.00    -0.252 NA
ATOM      4  C   UNL     1      32.492  -7.780 -24.232  0.00  0.00    +0.236 C 
ATOM      5  C   UNL     1      33.124  -5.972 -22.753  0.00  0.00    +0.222 C 
ATOM      6  C   UNL     1      32.217  -8.549 -22.995  0.00  0.00    +0.138 C 
ATOM      7  C   UNL     1      32.426  -7.939 -21.747  0.00  0.00    +0.068 C 
ATOM      8  C   UNL     1      32.163  -8.674 -20.561  0.00  0.00    +0.014 C 
ATOM      9  C   UNL     1      31.754  -9.862 -23.084  0.00  0.00    -0.015 C 
ATOM     10  C   UNL     1      31.494 -10.582 -21.923  0.00  0.00    -0.021 C 
ATOM     11  C   UNL     1      31.692 -10.007 -20.660  0.00  0.00    -0.003 C 
ATOM     12  C   UNL     1      32.349  -8.133 -19.269  0.00  0.00    +0.001 C 
ATOM     13  C   UNL     1      31.428 -10.745 -19.494  0.00  0.00    -0.000 C 
ATOM     14  C   UNL     1      32.080  -8.880 -18.121  0.00  0.00    +0.000 C 
ATOM     15  C   UNL     1      31.620 -10.185 -18.233  0.00  0.00    -0.000 C 
ENDROOT
BRANCH   2  16
ATOM     16  C   UNL     1      33.248  -5.642 -25.166  0.00  0.00    +0.104 C 
ATOM     17  C   UNL     1      34.751  -5.662 -25.472  0.00  0.00    +0.129 C 
ATOM     18  C   UNL     1      32.741  -4.218 -24.920  0.00  0.00    +0.022 C 
ATOM     19  C   UNL     1      35.112  -4.697 -26.603  0.00  0.00    +0.031 C 
ATOM     20  C   UNL     1      33.106  -3.276 -26.063  0.00  0.00    +0.002 C 
ATOM     21  C   UNL     1      34.607  -3.287 -26.335  0.00  0.00    +0.003 C 
BRANCH  17  22
ATOM     22  O   UNL     1      35.126  -6.983 -25.863  0.00  0.00    -0.383 OA
ATOM     23  H   UNL     1      35.699  -6.939 -26.644  0.00  0.00    +0.210 HD
ENDBRANCH  17  22
ENDBRANCH   2  16
BRANCH  10  24
ATOM     24  C   UNL     1      30.999 -11.986 -22.091  0.00  0.00    +0.054 C 
BRANCH  24  26
ATOM     25  N   UNL     1      33.593 -14.327 -23.568  0.00  0.00    -0.248 NA
ATOM     26  C   UNL     1      32.106 -13.014 -22.186  0.00  0.00    +0.001 C 
ATOM     27  C   UNL     1      32.650 -13.588 -21.041  0.00  0.00    -0.001 C 
ATOM     28  C   UNL     1      32.607 -13.414 -23.413  0.00  0.00    +0.094 C 
ATOM     29  C   UNL     1      33.665 -14.531 -21.159  0.00  0.00    +0.014 C 
ATOM     30  C   UNL     1      34.098 -14.863 -22.433  0.00  0.00    +0.059 C 
ATOM     31  C   UNL     1      35.186 -15.871 -22.598  0.00  0.00    +0.052 C 
ENDBRANCH  24  26
ENDBRANCH  10  24
TORSDOF 4
ENDMDL
MODEL 9
REMARK VINA RESULT:      -9.9     13.932     19.406
REMARK  Name = 46207733
REMARK  4 active torsions:
REMARK  status: ('A' for Active; 'I' for Inactive)
REMARK    1  A    between atoms: N_2  and  C_16
REMARK    2  A    between atoms: C_10  and  C_24
REMARK    3  A    between atoms: C_17  and  O_22
REMARK    4  A    between atoms: C_24  and  C_26
REMARK                            x       y       z     vdW  Elec       q    Type
REMARK                         _______ _______ _______ _____ _____    ______ ____
ROOT
ATOM      1  O   UNL     1      33.943  -9.081 -23.672  0.00  0.00    -0.274 OA
ATOM      2  N   UNL     1      32.507  -7.879 -22.289  0.00  0.00    -0.257 N 
ATOM      3  N   UNL     1      31.681  -5.756 -22.955  0.00  0.00    -0.252 NA
ATOM      4  C   UNL     1      33.260  -8.086 -23.446  0.00  0.00    +0.236 C 
ATOM      5  C   UNL     1      31.764  -6.729 -22.112  0.00  0.00    +0.222 C 
ATOM      6  C   UNL     1      33.191  -6.989 -24.439  0.00  0.00    +0.138 C 
ATOM      7  C   UNL     1      32.404  -5.859 -24.161  0.00  0.00    +0.068 C 
ATOM      8  C   UNL     1      32.336  -4.806 -25.112  0.00  0.00    +0.014 C 
ATOM      9  C   UNL     1      33.906  -7.090 -25.633  0.00  0.00    -0.015 C 
ATOM     10  C   UNL     1      33.841  -6.059 -26.566  0.00  0.00    -0.021 C 
ATOM     11  C   UNL     1      33.066  -4.917 -26.322  0.00  0.00    -0.003 C 
ATOM     12  C   UNL     1      31.568  -3.639 -24.907  0.00  0.00    +0.001 C 
ATOM     13  C   UNL     1      33.008  -3.883 -27.272  0.00  0.00    -0.000 C 
ATOM     14  C   UNL     1      31.522  -2.620 -25.861  0.00  0.00    +0.000 C 
ATOM     15  C   UNL     1      32.242  -2.742 -27.042  0.00  0.00    -0.000 C 
ENDROOT
BRANCH   2  16
ATOM     16  C   UNL     1      32.506  -8.889 -21.254  0.00  0.00    +0.104 C 
ATOM     17  C   UNL     1      31.379  -9.903 -21.491  0.00  0.00    +0.129 C 
ATOM     18  C   UNL     1      32.391  -8.229 -19.877  0.00  0.00    +0.022 C 
ATOM     19  C   UNL     1      31.281 -10.917 -20.351  0.00  0.00    +0.031 C 
ATOM     20  C   UNL     1      32.303  -9.259 -18.756  0.00  0.00    +0.002 C 
ATOM     21  C   UNL     1      31.160 -10.241 -18.992  0.00  0.00    +0.003 C 
BRANCH  17  22
ATOM     22  O   UNL     1      31.638 -10.606 -22.706  0.00  0.00    -0.383 OA
ATOM     23  H   UNL     1      32.064 -10.009 -23.340  0.00  0.00    +0.210 HD
ENDBRANCH  17  22
ENDBRANCH   2  16
BRANCH  10  24
ATOM     24  C   UNL     1      34.633  -6.232 -27.826  0.00  0.00    +0.054 C 
BRANCH  24  26
ATOM     25  N   UNL     1      38.308  -5.685 -28.585  0.00  0.00    -0.248 NA
ATOM     26  C   UNL     1      36.045  -5.696 -27.736  0.00  0.00    +0.001 C 
ATOM     27  C   UNL     1      36.394  -4.759 -26.769  0.00  0.00    -0.001 C 
ATOM     28  C   UNL     1      37.029  -6.123 -28.612  0.00  0.00    +0.094 C 
ATOM     29  C   UNL     1      37.700  -4.284 -26.710  0.00  0.00    +0.014 C 
ATOM     30  C   UNL     1      38.611  -4.774 -27.633  0.00  0.00    +0.059 C 
ATOM     31  C   UNL     1      40.022  -4.288 -27.599  0.00  0.00    +0.052 C 
ENDBRANCH  24  26
ENDBRANCH  10  24
TORSDOF 4
ENDMDL
