MODEL 1
REMARK VINA RESULT:     -11.2      0.000      0.000
REMARK  Name = 10275777
REMARK  5 active torsions:
REMARK  status: ('A' for Active; 'I' for Inactive)
REMARK    1  A    between atoms: C_1  and  N_19
REMARK    2  A    between atoms: C_2  and  C_11
REMARK    3  A    between atoms: C_5  and  O_34
REMARK    4  A    between atoms: C_20  and  C_22
REMARK    5  A    between atoms: C_23  and  C_30
REMARK                            x       y       z     vdW  Elec       q    Type
REMARK                         _______ _______ _______ _____ _____    ______ ____
ROOT
ATOM      1  C   UNL     1      36.534 -23.079 -16.234  0.00  0.00    +0.055 C 
ATOM      2  C   UNL     1      35.481 -23.634 -15.526  0.00  0.00    +0.070 C 
ATOM      3  C   UNL     1      37.842 -23.202 -15.795  0.00  0.00    +0.018 C 
ATOM      4  C   UNL     1      35.742 -24.331 -14.346  0.00  0.00    +0.043 C 
ATOM      5  C   UNL     1      37.054 -24.464 -13.891  0.00  0.00    +0.139 C 
ATOM      6  C   UNL     1      38.104 -23.899 -14.615  0.00  0.00    +0.038 C 
ENDROOT
BRANCH   2  11
ATOM      7 CL   UNL     1      27.355 -22.781 -15.521  0.00  0.00    -0.081 Cl
ATOM      8  O   UNL     1      33.849 -23.633 -17.185  0.00  0.00    -0.270 OA
ATOM      9  N   UNL     1      33.148 -23.303 -14.970  0.00  0.00    -0.266 N 
ATOM     10  N   UNL     1      31.024 -22.971 -13.984  0.00  0.00    -0.228 NA
ATOM     11  C   UNL     1      34.099 -23.517 -15.976  0.00  0.00    +0.252 C 
ATOM     12  C   UNL     1      31.743 -23.174 -15.101  0.00  0.00    +0.134 C 
ATOM     13  C   UNL     1      31.225 -23.272 -16.374  0.00  0.00    +0.035 C 
ATOM     14  C   UNL     1      29.847 -23.148 -16.514  0.00  0.00    +0.016 C 
ATOM     15  C   UNL     1      29.688 -22.856 -14.158  0.00  0.00    +0.112 C 
ATOM     16  C   UNL     1      29.057 -22.936 -15.389  0.00  0.00    +0.077 C 
ATOM     17  H   UNL     1      33.501 -23.233 -14.053  0.00  0.00    +0.157 HD
ENDBRANCH   2  11
BRANCH   1  19
ATOM     18  O   UNL     1      37.581 -20.426 -17.158  0.00  0.00    -0.270 OA
ATOM     19  N   UNL     1      36.293 -22.368 -17.434  0.00  0.00    -0.280 N 
ATOM     20  C   UNL     1      36.805 -21.124 -17.829  0.00  0.00    +0.249 C 
ATOM     21  H   UNL     1      35.685 -22.804 -18.075  0.00  0.00    +0.155 HD
BRANCH  20  22
ATOM     22  C   UNL     1      36.350 -20.631 -19.120  0.00  0.00    +0.054 C 
ATOM     23  C   UNL     1      35.485 -19.697 -21.564  0.00  0.00    +0.031 C 
ATOM     24  C   UNL     1      35.093 -20.996 -19.601  0.00  0.00    +0.005 C 
ATOM     25  C   UNL     1      37.170 -19.794 -19.876  0.00  0.00    +0.005 C 
ATOM     26  C   UNL     1      34.655 -20.522 -20.839  0.00  0.00    +0.003 C 
ATOM     27  C   UNL     1      36.732 -19.320 -21.113  0.00  0.00    +0.003 C 
BRANCH  23  30
ATOM     28  N   UNL     1      34.865 -17.818 -23.095  0.00  0.00    -0.290 N 
ATOM     29  N   UNL     1      34.789 -20.115 -23.773  0.00  0.00    -0.285 NA
ATOM     30  C   UNL     1      35.019 -19.192 -22.883  0.00  0.00    +0.123 C 
ATOM     31  C   UNL     1      34.333 -17.296 -24.351  0.00  0.00    +0.114 C 
ATOM     32  C   UNL     1      35.143 -16.811 -22.074  0.00  0.00    +0.114 C 
ATOM     33  H   UNL     1      34.478 -19.865 -24.673  0.00  0.00    +0.188 HD
ENDBRANCH  23  30
ENDBRANCH  20  22
ENDBRANCH   1  19
BRANCH   5  34
ATOM     34  O   UNL     1      37.309 -25.145 -12.740  0.00  0.00    -0.471 OA
ATOM     35  C   UNL     1      37.210 -26.567 -12.792  0.00  0.00    +0.252 C 
ENDBRANCH   5  34
TORSDOF 5
ENDMDL
MODEL 2
REMARK VINA RESULT:     -10.8      1.116      1.417
REMARK  Name = 10275777
REMARK  5 active torsions:
REMARK  status: ('A' for Active; 'I' for Inactive)
REMARK    1  A    between atoms: C_1  and  N_19
REMARK    2  A    between atoms: C_2  and  C_11
REMARK    3  A    between atoms: C_5  and  O_34
REMARK    4  A    between atoms: C_20  and  C_22
REMARK    5  A    between atoms: C_23  and  C_30
REMARK                            x       y       z     vdW  Elec       q    Type
REMARK                         _______ _______ _______ _____ _____    ______ ____
ROOT
ATOM      1  C   UNL     1      36.333 -22.703 -16.535  0.00  0.00    +0.055 C 
ATOM      2  C   UNL     1      35.297 -23.362 -15.892  0.00  0.00    +0.070 C 
ATOM      3  C   UNL     1      37.654 -22.903 -16.166  0.00  0.00    +0.018 C 
ATOM      4  C   UNL     1      35.590 -24.243 -14.851  0.00  0.00    +0.043 C 
ATOM      5  C   UNL     1      36.914 -24.456 -14.468  0.00  0.00    +0.139 C 
ATOM      6  C   UNL     1      37.946 -23.785 -15.125  0.00  0.00    +0.038 C 
ENDROOT
BRANCH   2  11
ATOM      7 CL   UNL     1      27.155 -22.791 -15.525  0.00  0.00    -0.081 Cl
ATOM      8  O   UNL     1      33.628 -22.947 -17.459  0.00  0.00    -0.270 OA
ATOM      9  N   UNL     1      32.971 -23.270 -15.230  0.00  0.00    -0.266 N 
ATOM     10  N   UNL     1      30.862 -23.291 -14.157  0.00  0.00    -0.228 NA
ATOM     11  C   UNL     1      33.904 -23.166 -16.270  0.00  0.00    +0.252 C 
ATOM     12  C   UNL     1      31.561 -23.152 -15.298  0.00  0.00    +0.134 C 
ATOM     13  C   UNL     1      31.016 -22.907 -16.540  0.00  0.00    +0.035 C 
ATOM     14  C   UNL     1      29.632 -22.791 -16.618  0.00  0.00    +0.016 C 
ATOM     15  C   UNL     1      29.521 -23.173 -14.272  0.00  0.00    +0.112 C 
ATOM     16  C   UNL     1      28.863 -22.925 -15.467  0.00  0.00    +0.077 C 
ATOM     17  H   UNL     1      33.344 -23.447 -14.336  0.00  0.00    +0.157 HD
ENDBRANCH   2  11
BRANCH   1  19
ATOM     18  O   UNL     1      35.784 -23.234 -19.434  0.00  0.00    -0.270 OA
ATOM     19  N   UNL     1      36.060 -21.804 -17.594  0.00  0.00    -0.280 N 
ATOM     20  C   UNL     1      35.808 -22.095 -18.942  0.00  0.00    +0.249 C 
ATOM     21  H   UNL     1      36.046 -20.850 -17.352  0.00  0.00    +0.155 HD
BRANCH  20  22
ATOM     22  C   UNL     1      35.587 -20.948 -19.808  0.00  0.00    +0.054 C 
ATOM     23  C   UNL     1      35.167 -18.773 -21.447  0.00  0.00    +0.031 C 
ATOM     24  C   UNL     1      34.296 -20.634 -20.234  0.00  0.00    +0.005 C 
ATOM     25  C   UNL     1      36.665 -20.160 -20.212  0.00  0.00    +0.005 C 
ATOM     26  C   UNL     1      34.084 -19.532 -21.063  0.00  0.00    +0.003 C 
ATOM     27  C   UNL     1      36.453 -19.059 -21.042  0.00  0.00    +0.003 C 
BRANCH  23  30
ATOM     28  N   UNL     1      34.516 -17.783 -23.651  0.00  0.00    -0.290 N 
ATOM     29  N   UNL     1      35.159 -16.441 -21.772  0.00  0.00    -0.285 NA
ATOM     30  C   UNL     1      34.940 -17.598 -22.331  0.00  0.00    +0.123 C 
ATOM     31  C   UNL     1      34.363 -16.655 -24.567  0.00  0.00    +0.114 C 
ATOM     32  C   UNL     1      34.270 -19.097 -24.239  0.00  0.00    +0.114 C 
ATOM     33  H   UNL     1      35.033 -15.613 -22.288  0.00  0.00    +0.188 HD
ENDBRANCH  23  30
ENDBRANCH  20  22
ENDBRANCH   1  19
BRANCH   5  34
ATOM     34  O   UNL     1      37.199 -25.316 -13.453  0.00  0.00    -0.471 OA
ATOM     35  C   UNL     1      38.576 -25.603 -13.213  0.00  0.00    +0.252 C 
ENDBRANCH   5  34
TORSDOF 5
ENDMDL
MODEL 3
REMARK VINA RESULT:     -10.5      3.425      8.843
REMARK  Name = 10275777
REMARK  5 active torsions:
REMARK  status: ('A' for Active; 'I' for Inactive)
REMARK    1  A    between atoms: C_1  and  N_19
REMARK    2  A    between atoms: C_2  and  C_11
REMARK    3  A    between atoms: C_5  and  O_34
REMARK    4  A    between atoms: C_20  and  C_22
REMARK    5  A    between atoms: C_23  and  C_30
REMARK                            x       y       z     vdW  Elec       q    Type
REMARK                         _______ _______ _______ _____ _____    ______ ____
ROOT
ATOM      1  C   UNL     1      31.226 -24.114 -15.193  0.00  0.00    +0.055 C 
ATOM      2  C   UNL     1      31.090 -23.356 -16.344  0.00  0.00    +0.070 C 
ATOM      3  C   UNL     1      30.119 -24.546 -14.479  0.00  0.00    +0.018 C 
ATOM      4  C   UNL     1      29.814 -23.020 -16.795  0.00  0.00    +0.043 C 
ATOM      5  C   UNL     1      28.689 -23.447 -16.088  0.00  0.00    +0.139 C 
ATOM      6  C   UNL     1      28.842 -24.210 -14.930  0.00  0.00    +0.038 C 
ENDROOT
BRANCH   2  11
ATOM      7 CL   UNL     1      35.700 -19.626 -21.965  0.00  0.00    -0.081 Cl
ATOM      8  O   UNL     1      33.371 -23.310 -16.800  0.00  0.00    -0.270 OA
ATOM      9  N   UNL     1      31.963 -22.025 -18.167  0.00  0.00    -0.266 N 
ATOM     10  N   UNL     1      32.364 -20.626 -20.032  0.00  0.00    -0.228 NA
ATOM     11  C   UNL     1      32.244 -22.897 -17.108  0.00  0.00    +0.252 C 
ATOM     12  C   UNL     1      32.867 -21.440 -19.089  0.00  0.00    +0.134 C 
ATOM     13  C   UNL     1      34.199 -21.761 -18.942  0.00  0.00    +0.035 C 
ATOM     14  C   UNL     1      35.095 -21.193 -19.841  0.00  0.00    +0.016 C 
ATOM     15  C   UNL     1      33.263 -20.093 -20.889  0.00  0.00    +0.112 C 
ATOM     16  C   UNL     1      34.626 -20.342 -20.837  0.00  0.00    +0.077 C 
ATOM     17  H   UNL     1      31.015 -21.787 -18.288  0.00  0.00    +0.157 HD
ENDBRANCH   2  11
BRANCH   1  19
ATOM     18  O   UNL     1      32.529 -23.573 -12.548  0.00  0.00    -0.270 OA
ATOM     19  N   UNL     1      32.511 -24.468 -14.717  0.00  0.00    -0.280 N 
ATOM     20  C   UNL     1      33.085 -24.195 -13.467  0.00  0.00    +0.249 C 
ATOM     21  H   UNL     1      33.077 -24.972 -15.346  0.00  0.00    +0.155 HD
BRANCH  20  22
ATOM     22  C   UNL     1      34.447 -24.668 -13.277  0.00  0.00    +0.054 C 
ATOM     23  C   UNL     1      37.027 -25.565 -12.914  0.00  0.00    +0.031 C 
ATOM     24  C   UNL     1      35.120 -24.395 -12.086  0.00  0.00    +0.005 C 
ATOM     25  C   UNL     1      35.081 -25.395 -14.284  0.00  0.00    +0.005 C 
ATOM     26  C   UNL     1      36.426 -24.850 -11.902  0.00  0.00    +0.003 C 
ATOM     27  C   UNL     1      36.387 -25.849 -14.101  0.00  0.00    +0.003 C 
BRANCH  23  30
ATOM     28  N   UNL     1      39.406 -25.756 -13.667  0.00  0.00    -0.290 N 
ATOM     29  N   UNL     1      38.614 -26.733 -11.626  0.00  0.00    -0.285 NA
ATOM     30  C   UNL     1      38.420 -26.050 -12.719  0.00  0.00    +0.123 C 
ATOM     31  C   UNL     1      40.762 -26.286 -13.544  0.00  0.00    +0.114 C 
ATOM     32  C   UNL     1      39.152 -24.977 -14.876  0.00  0.00    +0.114 C 
ATOM     33  H   UNL     1      39.507 -27.090 -11.421  0.00  0.00    +0.188 HD
ENDBRANCH  23  30
ENDBRANCH  20  22
ENDBRANCH   1  19
BRANCH   5  34
ATOM     34  O   UNL     1      27.444 -23.119 -16.528  0.00  0.00    -0.471 OA
ATOM     35  C   UNL     1      26.605 -22.402 -15.624  0.00  0.00    +0.252 C 
ENDBRANCH   5  34
TORSDOF 5
ENDMDL
MODEL 4
REMARK VINA RESULT:      -9.6     11.145     17.222
REMARK  Name = 10275777
REMARK  5 active torsions:
REMARK  status: ('A' for Active; 'I' for Inactive)
REMARK    1  A    between atoms: C_1  and  N_19
REMARK    2  A    between atoms: C_2  and  C_11
REMARK    3  A    between atoms: C_5  and  O_34
REMARK    4  A    between atoms: C_20  and  C_22
REMARK    5  A    between atoms: C_23  and  C_30
REMARK                            x       y       z     vdW  Elec       q    Type
REMARK                         _______ _______ _______ _____ _____    ______ ____
ROOT
ATOM      1  C   UNL     1      31.840  -7.037 -22.472  0.00  0.00    +0.055 C 
ATOM      2  C   UNL     1      32.264  -6.076 -23.375  0.00  0.00    +0.070 C 
ATOM      3  C   UNL     1      31.152  -6.690 -21.320  0.00  0.00    +0.018 C 
ATOM      4  C   UNL     1      31.995  -4.731 -23.119  0.00  0.00    +0.043 C 
ATOM      5  C   UNL     1      31.304  -4.366 -21.964  0.00  0.00    +0.139 C 
ATOM      6  C   UNL     1      30.883  -5.345 -21.064  0.00  0.00    +0.038 C 
ENDROOT
BRANCH   2  11
ATOM      7 CL   UNL     1      37.610  -5.920 -29.552  0.00  0.00    -0.081 Cl
ATOM      8  O   UNL     1      32.596  -7.390 -25.266  0.00  0.00    -0.270 OA
ATOM      9  N   UNL     1      34.068  -5.596 -24.917  0.00  0.00    -0.266 N 
ATOM     10  N   UNL     1      35.911  -4.761 -26.141  0.00  0.00    -0.228 NA
ATOM     11  C   UNL     1      32.984  -6.424 -24.593  0.00  0.00    +0.252 C 
ATOM     12  C   UNL     1      34.929  -5.673 -26.039  0.00  0.00    +0.134 C 
ATOM     13  C   UNL     1      34.685  -6.685 -26.942  0.00  0.00    +0.035 C 
ATOM     14  C   UNL     1      35.525  -6.769 -28.048  0.00  0.00    +0.016 C 
ATOM     15  C   UNL     1      36.706  -4.873 -27.229  0.00  0.00    +0.112 C 
ATOM     16  C   UNL     1      36.557  -5.849 -28.201  0.00  0.00    +0.077 C 
ATOM     17  H   UNL     1      34.255  -4.866 -24.282  0.00  0.00    +0.157 HD
ENDBRANCH   2  11
BRANCH   1  19
ATOM     18  O   UNL     1      31.587  -9.403 -20.650  0.00  0.00    -0.270 OA
ATOM     19  N   UNL     1      32.102  -8.407 -22.711  0.00  0.00    -0.280 N 
ATOM     20  C   UNL     1      31.970  -9.488 -21.828  0.00  0.00    +0.249 C 
ATOM     21  H   UNL     1      32.418  -8.631 -23.616  0.00  0.00    +0.155 HD
BRANCH  20  22
ATOM     22  C   UNL     1      32.343 -10.790 -22.357  0.00  0.00    +0.054 C 
ATOM     23  C   UNL     1      33.054 -13.256 -23.359  0.00  0.00    +0.031 C 
ATOM     24  C   UNL     1      33.344 -10.888 -23.323  0.00  0.00    +0.005 C 
ATOM     25  C   UNL     1      31.702 -11.940 -21.898  0.00  0.00    +0.005 C 
ATOM     26  C   UNL     1      33.704 -12.137 -23.830  0.00  0.00    +0.003 C 
ATOM     27  C   UNL     1      32.062 -13.189 -22.405  0.00  0.00    +0.003 C 
BRANCH  23  30
ATOM     28  N   UNL     1      34.236 -15.451 -23.141  0.00  0.00    -0.290 N 
ATOM     29  N   UNL     1      32.969 -14.854 -25.086  0.00  0.00    -0.285 NA
ATOM     30  C   UNL     1      33.438 -14.588 -23.900  0.00  0.00    +0.123 C 
ATOM     31  C   UNL     1      34.696 -16.730 -23.676  0.00  0.00    +0.114 C 
ATOM     32  C   UNL     1      34.734 -15.121 -21.808  0.00  0.00    +0.114 C 
ATOM     33  H   UNL     1      33.176 -15.715 -25.516  0.00  0.00    +0.188 HD
ENDBRANCH  23  30
ENDBRANCH  20  22
ENDBRANCH   1  19
BRANCH   5  34
ATOM     34  O   UNL     1      31.041  -3.054 -21.715  0.00  0.00    -0.471 OA
ATOM     35  C   UNL     1      31.992  -2.100 -22.186  0.00  0.00    +0.252 C 
ENDBRANCH   5  34
TORSDOF 5
ENDMDL
MODEL 5
REMARK VINA RESULT:      -9.5      3.168      7.521
REMARK  Name = 10275777
REMARK  5 active torsions:
REMARK  status: ('A' for Active; 'I' for Inactive)
REMARK    1  A    between atoms: C_1  and  N_19
REMARK    2  A    between atoms: C_2  and  C_11
REMARK    3  A    between atoms: C_5  and  O_34
REMARK    4  A    between atoms: C_20  and  C_22
REMARK    5  A    between atoms: C_23  and  C_30
REMARK                            x       y       z     vdW  Elec       q    Type
REMARK                         _______ _______ _______ _____ _____    ______ ____
ROOT
ATOM      1  C   UNL     1      34.574 -24.225 -13.814  0.00  0.00    +0.055 C 
ATOM      2  C   UNL     1      35.545 -24.048 -14.786  0.00  0.00    +0.070 C 
ATOM      3  C   UNL     1      34.898 -24.676 -12.544  0.00  0.00    +0.018 C 
ATOM      4  C   UNL     1      36.877 -24.330 -14.481  0.00  0.00    +0.043 C 
ATOM      5  C   UNL     1      37.219 -24.785 -13.207  0.00  0.00    +0.139 C 
ATOM      6  C   UNL     1      36.230 -24.958 -12.239  0.00  0.00    +0.038 C 
ENDROOT
BRANCH   2  11
ATOM      7 CL   UNL     1      35.714 -19.827 -21.779  0.00  0.00    -0.081 Cl
ATOM      8  O   UNL     1      34.238 -24.046 -16.711  0.00  0.00    -0.270 OA
ATOM      9  N   UNL     1      36.061 -22.571 -16.632  0.00  0.00    -0.266 N 
ATOM     10  N   UNL     1      36.907 -20.970 -18.155  0.00  0.00    -0.228 NA
ATOM     11  C   UNL     1      35.222 -23.570 -16.124  0.00  0.00    +0.252 C 
ATOM     12  C   UNL     1      35.981 -21.905 -17.880  0.00  0.00    +0.134 C 
ATOM     13  C   UNL     1      34.948 -22.272 -18.716  0.00  0.00    +0.035 C 
ATOM     14  C   UNL     1      34.860 -21.624 -19.943  0.00  0.00    +0.016 C 
ATOM     15  C   UNL     1      36.788 -20.360 -19.356  0.00  0.00    +0.112 C 
ATOM     16  C   UNL     1      35.793 -20.648 -20.277  0.00  0.00    +0.077 C 
ATOM     17  H   UNL     1      36.804 -22.295 -16.047  0.00  0.00    +0.157 HD
ENDBRANCH   2  11
BRANCH   1  19
ATOM     18  O   UNL     1      32.131 -25.930 -13.479  0.00  0.00    -0.270 OA
ATOM     19  N   UNL     1      33.216 -23.944 -14.100  0.00  0.00    -0.280 N 
ATOM     20  C   UNL     1      32.099 -24.774 -13.928  0.00  0.00    +0.249 C 
ATOM     21  H   UNL     1      33.032 -23.050 -14.469  0.00  0.00    +0.155 HD
BRANCH  20  22
ATOM     22  C   UNL     1      30.822 -24.213 -14.342  0.00  0.00    +0.054 C 
ATOM     23  C   UNL     1      28.403 -23.151 -15.125  0.00  0.00    +0.031 C 
ATOM     24  C   UNL     1      29.799 -25.054 -14.776  0.00  0.00    +0.005 C 
ATOM     25  C   UNL     1      30.621 -22.833 -14.305  0.00  0.00    +0.005 C 
ATOM     26  C   UNL     1      28.574 -24.517 -15.172  0.00  0.00    +0.003 C 
ATOM     27  C   UNL     1      29.396 -22.295 -14.701  0.00  0.00    +0.003 C 
BRANCH  23  30
ATOM     28  N   UNL     1      26.808 -22.411 -16.906  0.00  0.00    -0.290 N 
ATOM     29  N   UNL     1      26.292 -22.272 -14.570  0.00  0.00    -0.285 NA
ATOM     30  C   UNL     1      27.097 -22.577 -15.547  0.00  0.00    +0.123 C 
ATOM     31  C   UNL     1      25.569 -21.777 -17.349  0.00  0.00    +0.114 C 
ATOM     32  C   UNL     1      27.734 -22.777 -17.975  0.00  0.00    +0.114 C 
ATOM     33  H   UNL     1      25.407 -21.887 -14.763  0.00  0.00    +0.188 HD
ENDBRANCH  23  30
ENDBRANCH  20  22
ENDBRANCH   1  19
BRANCH   5  34
ATOM     34  O   UNL     1      38.519 -25.059 -12.910  0.00  0.00    -0.471 OA
ATOM     35  C   UNL     1      39.323 -25.603 -13.955  0.00  0.00    +0.252 C 
ENDBRANCH   5  34
TORSDOF 5
ENDMDL
MODEL 6
REMARK VINA RESULT:      -9.4      3.286      6.919
REMARK  Name = 10275777
REMARK  5 active torsions:
REMARK  status: ('A' for Active; 'I' for Inactive)
REMARK    1  A    between atoms: C_1  and  N_19
REMARK    2  A    between atoms: C_2  and  C_11
REMARK    3  A    between atoms: C_5  and  O_34
REMARK    4  A    between atoms: C_20  and  C_22
REMARK    5  A    between atoms: C_23  and  C_30
REMARK                            x       y       z     vdW  Elec       q    Type
REMARK                         _______ _______ _______ _____ _____    ______ ____
ROOT
ATOM      1  C   UNL     1      35.896 -25.076 -14.082  0.00  0.00    +0.055 C 
ATOM      2  C   UNL     1      36.964 -24.477 -14.729  0.00  0.00    +0.070 C 
ATOM      3  C   UNL     1      36.093 -25.990 -13.059  0.00  0.00    +0.018 C 
ATOM      4  C   UNL     1      38.265 -24.800 -14.343  0.00  0.00    +0.043 C 
ATOM      5  C   UNL     1      38.480 -25.718 -13.315  0.00  0.00    +0.139 C 
ATOM      6  C   UNL     1      37.394 -26.313 -12.674  0.00  0.00    +0.038 C 
ENDROOT
BRANCH   2  11
ATOM      7 CL   UNL     1      33.695 -20.352 -20.978  0.00  0.00    -0.081 Cl
ATOM      8  O   UNL     1      37.688 -22.716 -16.065  0.00  0.00    -0.270 OA
ATOM      9  N   UNL     1      35.549 -23.586 -16.479  0.00  0.00    -0.266 N 
ATOM     10  N   UNL     1      33.870 -23.056 -18.059  0.00  0.00    -0.228 NA
ATOM     11  C   UNL     1      36.774 -23.511 -15.803  0.00  0.00    +0.252 C 
ATOM     12  C   UNL     1      35.096 -22.802 -17.569  0.00  0.00    +0.134 C 
ATOM     13  C   UNL     1      35.958 -21.837 -18.042  0.00  0.00    +0.035 C 
ATOM     14  C   UNL     1      35.523 -21.063 -19.112  0.00  0.00    +0.016 C 
ATOM     15  C   UNL     1      33.482 -22.285 -19.099  0.00  0.00    +0.112 C 
ATOM     16  C   UNL     1      34.263 -21.285 -19.657  0.00  0.00    +0.077 C 
ATOM     17  H   UNL     1      34.921 -24.272 -16.154  0.00  0.00    +0.157 HD
ENDBRANCH   2  11
BRANCH   1  19
ATOM     18  O   UNL     1      33.435 -24.758 -12.400  0.00  0.00    -0.270 OA
ATOM     19  N   UNL     1      34.566 -24.763 -14.455  0.00  0.00    -0.280 N 
ATOM     20  C   UNL     1      33.439 -24.623 -13.634  0.00  0.00    +0.249 C 
ATOM     21  H   UNL     1      34.413 -24.627 -15.418  0.00  0.00    +0.155 HD
BRANCH  20  22
ATOM     22  C   UNL     1      32.190 -24.322 -14.315  0.00  0.00    +0.054 C 
ATOM     23  C   UNL     1      29.823 -23.750 -15.605  0.00  0.00    +0.031 C 
ATOM     24  C   UNL     1      31.032 -25.030 -13.994  0.00  0.00    +0.005 C 
ATOM     25  C   UNL     1      32.150 -23.324 -15.290  0.00  0.00    +0.005 C 
ATOM     26  C   UNL     1      29.834 -24.740 -14.647  0.00  0.00    +0.003 C 
ATOM     27  C   UNL     1      30.951 -23.034 -15.943  0.00  0.00    +0.003 C 
BRANCH  23  30
ATOM     28  N   UNL     1      27.618 -22.573 -15.714  0.00  0.00    -0.290 N 
ATOM     29  N   UNL     1      28.394 -24.026 -17.455  0.00  0.00    -0.285 NA
ATOM     30  C   UNL     1      28.545 -23.441 -16.301  0.00  0.00    +0.123 C 
ATOM     31  C   UNL     1      26.321 -22.314 -16.334  0.00  0.00    +0.114 C 
ATOM     32  C   UNL     1      27.827 -21.928 -14.421  0.00  0.00    +0.114 C 
ATOM     33  H   UNL     1      27.577 -23.874 -17.981  0.00  0.00    +0.188 HD
ENDBRANCH  23  30
ENDBRANCH  20  22
ENDBRANCH   1  19
BRANCH   5  34
ATOM     34  O   UNL     1      39.750 -26.033 -12.939  0.00  0.00    -0.471 OA
ATOM     35  C   UNL     1      40.663 -26.391 -13.975  0.00  0.00    +0.252 C 
ENDBRANCH   5  34
TORSDOF 5
ENDMDL
MODEL 7
REMARK VINA RESULT:      -9.1      2.465      7.692
REMARK  Name = 10275777
REMARK  5 active torsions:
REMARK  status: ('A' for Active; 'I' for Inactive)
REMARK    1  A    between atoms: C_1  and  N_19
REMARK    2  A    between atoms: C_2  and  C_11
REMARK    3  A    between atoms: C_5  and  O_34
REMARK    4  A    between atoms: C_20  and  C_22
REMARK    5  A    between atoms: C_23  and  C_30
REMARK                            x       y       z     vdW  Elec       q    Type
REMARK                         _______ _______ _______ _____ _____    ______ ____
ROOT
ATOM      1  C   UNL     1      35.492 -21.099 -19.570  0.00  0.00    +0.055 C 
ATOM      2  C   UNL     1      34.151 -20.933 -19.869  0.00  0.00    +0.070 C 
ATOM      3  C   UNL     1      36.484 -20.644 -20.425  0.00  0.00    +0.018 C 
ATOM      4  C   UNL     1      33.789 -20.296 -21.056  0.00  0.00    +0.043 C 
ATOM      5  C   UNL     1      34.774 -19.832 -21.927  0.00  0.00    +0.139 C 
ATOM      6  C   UNL     1      36.122 -20.007 -21.612  0.00  0.00    +0.038 C 
ENDROOT
BRANCH   2  11
ATOM      7 CL   UNL     1      30.154 -25.049 -14.052  0.00  0.00    -0.081 Cl
ATOM      8  O   UNL     1      31.950 -20.949 -19.115  0.00  0.00    -0.270 OA
ATOM      9  N   UNL     1      33.478 -22.368 -18.039  0.00  0.00    -0.266 N 
ATOM     10  N   UNL     1      33.266 -23.920 -16.266  0.00  0.00    -0.228 NA
ATOM     11  C   UNL     1      33.096 -21.402 -18.979  0.00  0.00    +0.252 C 
ATOM     12  C   UNL     1      32.675 -23.018 -17.070  0.00  0.00    +0.134 C 
ATOM     13  C   UNL     1      31.342 -22.672 -17.033  0.00  0.00    +0.035 C 
ATOM     14  C   UNL     1      30.544 -23.306 -16.086  0.00  0.00    +0.016 C 
ATOM     15  C   UNL     1      32.460 -24.516 -15.360  0.00  0.00    +0.112 C 
ATOM     16  C   UNL     1      31.106 -24.247 -15.230  0.00  0.00    +0.077 C 
ATOM     17  H   UNL     1      34.428 -22.628 -18.053  0.00  0.00    +0.157 HD
ENDBRANCH   2  11
BRANCH   1  19
ATOM     18  O   UNL     1      37.445 -20.245 -17.461  0.00  0.00    -0.270 OA
ATOM     19  N   UNL     1      35.883 -21.742 -18.371  0.00  0.00    -0.280 N 
ATOM     20  C   UNL     1      36.804 -21.307 -17.407  0.00  0.00    +0.249 C 
ATOM     21  H   UNL     1      35.453 -22.609 -18.190  0.00  0.00    +0.155 HD
BRANCH  20  22
ATOM     22  C   UNL     1      37.020 -22.206 -16.284  0.00  0.00    +0.054 C 
ATOM     23  C   UNL     1      37.431 -23.907 -14.156  0.00  0.00    +0.031 C 
ATOM     24  C   UNL     1      38.220 -22.907 -16.173  0.00  0.00    +0.005 C 
ATOM     25  C   UNL     1      36.027 -22.366 -15.317  0.00  0.00    +0.005 C 
ATOM     26  C   UNL     1      38.429 -23.768 -15.095  0.00  0.00    +0.003 C 
ATOM     27  C   UNL     1      36.236 -23.227 -14.239  0.00  0.00    +0.003 C 
BRANCH  23  30
ATOM     28  N   UNL     1      37.215 -26.152 -13.072  0.00  0.00    -0.290 N 
ATOM     29  N   UNL     1      38.273 -24.293 -11.992  0.00  0.00    -0.285 NA
ATOM     30  C   UNL     1      37.653 -24.825 -13.006  0.00  0.00    +0.123 C 
ATOM     31  C   UNL     1      37.346 -27.054 -11.930  0.00  0.00    +0.114 C 
ATOM     32  C   UNL     1      36.532 -26.716 -14.233  0.00  0.00    +0.114 C 
ATOM     33  H   UNL     1      38.460 -24.832 -11.190  0.00  0.00    +0.188 HD
ENDBRANCH  23  30
ENDBRANCH  20  22
ENDBRANCH   1  19
BRANCH   5  34
ATOM     34  O   UNL     1      34.422 -19.210 -23.085  0.00  0.00    -0.471 OA
ATOM     35  C   UNL     1      34.943 -17.899 -23.302  0.00  0.00    +0.252 C 
ENDBRANCH   5  34
TORSDOF 5
ENDMDL
MODEL 8
REMARK VINA RESULT:      -8.8      2.396      7.679
REMARK  Name = 10275777
REMARK  5 active torsions:
REMARK  status: ('A' for Active; 'I' for Inactive)
REMARK    1  A    between atoms: C_1  and  N_19
REMARK    2  A    between atoms: C_2  and  C_11
REMARK    3  A    between atoms: C_5  and  O_34
REMARK    4  A    between atoms: C_20  and  C_22
REMARK    5  A    between atoms: C_23  and  C_30
REMARK                            x       y       z     vdW  Elec       q    Type
REMARK                         _______ _______ _______ _____ _____    ______ ____
ROOT
ATOM      1  C   UNL     1      35.502 -21.198 -19.493  0.00  0.00    +0.055 C 
ATOM      2  C   UNL     1      34.189 -20.902 -19.820  0.00  0.00    +0.070 C 
ATOM      3  C   UNL     1      36.556 -20.776 -20.288  0.00  0.00    +0.018 C 
ATOM      4  C   UNL     1      33.922 -20.165 -20.974  0.00  0.00    +0.043 C 
ATOM      5  C   UNL     1      34.972 -19.733 -21.785  0.00  0.00    +0.139 C 
ATOM      6  C   UNL     1      36.288 -20.040 -21.442  0.00  0.00    +0.038 C 
ENDROOT
BRANCH   2  11
ATOM      7 CL   UNL     1      29.691 -24.972 -14.347  0.00  0.00    -0.081 Cl
ATOM      8  O   UNL     1      31.963 -20.799 -19.152  0.00  0.00    -0.270 OA
ATOM      9  N   UNL     1      33.348 -22.361 -18.082  0.00  0.00    -0.266 N 
ATOM     10  N   UNL     1      32.959 -23.967 -16.389  0.00  0.00    -0.228 NA
ATOM     11  C   UNL     1      33.070 -21.334 -18.993  0.00  0.00    +0.252 C 
ATOM     12  C   UNL     1      32.464 -22.995 -17.174  0.00  0.00    +0.134 C 
ATOM     13  C   UNL     1      31.156 -22.560 -17.173  0.00  0.00    +0.035 C 
ATOM     14  C   UNL     1      30.280 -23.177 -16.286  0.00  0.00    +0.016 C 
ATOM     15  C   UNL     1      32.079 -24.543 -15.541  0.00  0.00    +0.112 C 
ATOM     16  C   UNL     1      30.742 -24.188 -15.451  0.00  0.00    +0.077 C 
ATOM     17  H   UNL     1      34.278 -22.685 -18.071  0.00  0.00    +0.157 HD
ENDBRANCH   2  11
BRANCH   1  19
ATOM     18  O   UNL     1      37.321 -20.563 -17.196  0.00  0.00    -0.270 OA
ATOM     19  N   UNL     1      35.798 -21.944 -18.326  0.00  0.00    -0.280 N 
ATOM     20  C   UNL     1      36.658 -21.609 -17.271  0.00  0.00    +0.249 C 
ATOM     21  H   UNL     1      35.339 -22.811 -18.245  0.00  0.00    +0.155 HD
BRANCH  20  22
ATOM     22  C   UNL     1      36.780 -22.599 -16.213  0.00  0.00    +0.054 C 
ATOM     23  C   UNL     1      37.008 -24.476 -14.209  0.00  0.00    +0.031 C 
ATOM     24  C   UNL     1      35.665 -22.943 -15.449  0.00  0.00    +0.005 C 
ATOM     25  C   UNL     1      38.010 -23.206 -15.962  0.00  0.00    +0.005 C 
ATOM     26  C   UNL     1      35.780 -23.894 -14.434  0.00  0.00    +0.003 C 
ATOM     27  C   UNL     1      38.126 -24.157 -14.948  0.00  0.00    +0.003 C 
BRANCH  23  30
ATOM     28  N   UNL     1      37.505 -25.100 -11.837  0.00  0.00    -0.290 N 
ATOM     29  N   UNL     1      36.860 -26.713 -13.489  0.00  0.00    -0.285 NA
ATOM     30  C   UNL     1      37.131 -25.491 -13.127  0.00  0.00    +0.123 C 
ATOM     31  C   UNL     1      37.713 -26.082 -10.775  0.00  0.00    +0.114 C 
ATOM     32  C   UNL     1      37.791 -23.717 -11.467  0.00  0.00    +0.114 C 
ATOM     33  H   UNL     1      36.917 -27.445 -12.834  0.00  0.00    +0.188 HD
ENDBRANCH  23  30
ENDBRANCH  20  22
ENDBRANCH   1  19
BRANCH   5  34
ATOM     34  O   UNL     1      34.711 -19.014 -22.910  0.00  0.00    -0.471 OA
ATOM     35  C   UNL     1      35.075 -17.634 -22.898  0.00  0.00    +0.252 C 
ENDBRANCH   5  34
TORSDOF 5
ENDMDL
MODEL 9
REMARK VINA RESULT:      -8.5     10.675     15.220
REMARK  Name = 10275777
REMARK  5 active torsions:
REMARK  status: ('A' for Active; 'I' for Inactive)
REMARK    1  A    between atoms: C_1  and  N_19
REMARK    2  A    between atoms: C_2  and  C_11
REMARK    3  A    between atoms: C_5  and  O_34
REMARK    4  A    between atoms: C_20  and  C_22
REMARK    5  A    between atoms: C_23  and  C_30
REMARK                            x       y       z     vdW  Elec       q    Type
REMARK                         _______ _______ _______ _____ _____    ______ ____
ROOT
ATOM      1  C   UNL     1      32.852  -7.990 -21.847  0.00  0.00    +0.055 C 
ATOM      2  C   UNL     1      32.498  -9.309 -21.618  0.00  0.00    +0.070 C 
ATOM      3  C   UNL     1      32.693  -7.020 -20.869  0.00  0.00    +0.018 C 
ATOM      4  C   UNL     1      31.967  -9.670 -20.379  0.00  0.00    +0.043 C 
ATOM      5  C   UNL     1      31.800  -8.706 -19.385  0.00  0.00    +0.139 C 
ATOM      6  C   UNL     1      32.162  -7.381 -19.630  0.00  0.00    +0.038 C 
ENDROOT
BRANCH   2  11
ATOM      7 CL   UNL     1      34.093 -16.456 -25.241  0.00  0.00    -0.081 Cl
ATOM      8  O   UNL     1      32.489 -10.046 -23.825  0.00  0.00    -0.270 OA
ATOM      9  N   UNL     1      33.038 -11.605 -22.160  0.00  0.00    -0.266 N 
ATOM     10  N   UNL     1      33.643 -13.891 -22.228  0.00  0.00    -0.228 NA
ATOM     11  C   UNL     1      32.663 -10.341 -22.634  0.00  0.00    +0.252 C 
ATOM     12  C   UNL     1      33.293 -12.784 -22.905  0.00  0.00    +0.134 C 
ATOM     13  C   UNL     1      33.163 -12.695 -24.274  0.00  0.00    +0.035 C 
ATOM     14  C   UNL     1      33.411 -13.846 -25.014  0.00  0.00    +0.016 C 
ATOM     15  C   UNL     1      33.878 -14.989 -22.980  0.00  0.00    +0.112 C 
ATOM     16  C   UNL     1      33.776 -15.019 -24.362  0.00  0.00    +0.077 C 
ATOM     17  H   UNL     1      33.138 -11.685 -21.184  0.00  0.00    +0.157 HD
ENDBRANCH   2  11
BRANCH   1  19
ATOM     18  O   UNL     1      31.785  -6.101 -23.916  0.00  0.00    -0.270 OA
ATOM     19  N   UNL     1      33.393  -7.601 -23.096  0.00  0.00    -0.280 N 
ATOM     20  C   UNL     1      32.860  -6.710 -24.038  0.00  0.00    +0.249 C 
ATOM     21  H   UNL     1      34.257  -8.009 -23.335  0.00  0.00    +0.155 HD
BRANCH  20  22
ATOM     22  C   UNL     1      33.639  -6.530 -25.253  0.00  0.00    +0.054 C 
ATOM     23  C   UNL     1      35.115  -6.186 -27.554  0.00  0.00    +0.031 C 
ATOM     24  C   UNL     1      33.241  -5.590 -26.203  0.00  0.00    +0.005 C 
ATOM     25  C   UNL     1      34.784  -7.296 -25.468  0.00  0.00    +0.005 C 
ATOM     26  C   UNL     1      33.989  -5.415 -27.368  0.00  0.00    +0.003 C 
ATOM     27  C   UNL     1      35.532  -7.122 -26.633  0.00  0.00    +0.003 C 
BRANCH  23  30
ATOM     28  N   UNL     1      37.063  -5.202 -28.780  0.00  0.00    -0.290 N 
ATOM     29  N   UNL     1      35.457  -6.631 -29.840  0.00  0.00    -0.285 NA
ATOM     30  C   UNL     1      35.914  -6.000 -28.796  0.00  0.00    +0.123 C 
ATOM     31  C   UNL     1      37.821  -4.935 -29.999  0.00  0.00    +0.114 C 
ATOM     32  C   UNL     1      37.549  -4.517 -27.585  0.00  0.00    +0.114 C 
ATOM     33  H   UNL     1      35.927  -6.561 -30.702  0.00  0.00    +0.188 HD
ENDBRANCH  23  30
ENDBRANCH  20  22
ENDBRANCH   1  19
BRANCH   5  34
ATOM     34  O   UNL     1      31.283  -9.058 -18.176  0.00  0.00    -0.471 OA
ATOM     35  C   UNL     1      31.481 -10.406 -17.754  0.00  0.00    +0.252 C 
ENDBRANCH   5  34
TORSDOF 5
ENDMDL
