MODEL 1
REMARK VINA RESULT:     -12.2      0.000      0.000
REMARK  Name = 54726191
REMARK  4 active torsions:
REMARK  status: ('A' for Active; 'I' for Inactive)
REMARK    1  A    between atoms: C_15  and  O_31
REMARK    2  A    between atoms: C_16  and  C_20
REMARK    3  A    between atoms: N_19  and  C_22
REMARK    4  A    between atoms: C_22  and  C_25
REMARK                            x       y       z     vdW  Elec       q    Type
REMARK                         _______ _______ _______ _____ _____    ______ ____
ROOT
ATOM      1  O   UNL     1      37.272 -23.303 -14.852  0.00  0.00    -0.336 OA
ATOM      2  O   UNL     1      33.385 -24.116 -17.361  0.00  0.00    -0.268 OA
ATOM      3  O   UNL     1      33.675 -20.486 -20.918  0.00  0.00    -0.283 OA
ATOM      4  N   UNL     1      35.160 -23.564 -15.981  0.00  0.00    -0.253 N 
ATOM      5  N   UNL     1      36.134 -21.868 -18.008  0.00  0.00    -0.275 N 
ATOM      6  C   UNL     1      36.312 -22.694 -15.724  0.00  0.00    +0.215 C 
ATOM      7  C   UNL     1      34.608 -24.334 -14.851  0.00  0.00    +0.080 C 
ATOM      8  C   UNL     1      35.714 -24.858 -13.935  0.00  0.00    +0.052 C 
ATOM      9  C   UNL     1      37.056 -22.405 -17.017  0.00  0.00    +0.147 C 
ATOM     10  C   UNL     1      36.717 -23.764 -13.627  0.00  0.00    +0.146 C 
ATOM     11  C   UNL     1      34.386 -23.435 -17.143  0.00  0.00    +0.267 C 
ATOM     12  C   UNL     1      34.840 -22.381 -18.127  0.00  0.00    +0.143 C 
ATOM     13  C   UNL     1      33.584 -23.494 -14.078  0.00  0.00    +0.022 C 
ATOM     14  C   UNL     1      36.562 -20.908 -18.914  0.00  0.00    +0.074 C 
ATOM     15  C   UNL     1      33.974 -21.958 -19.074  0.00  0.00    +0.191 C 
ATOM     16  C   UNL     1      35.815 -20.400 -19.902  0.00  0.00    +0.110 C 
ATOM     17  C   UNL     1      34.425 -20.907 -20.043  0.00  0.00    +0.236 C 
ENDROOT
BRANCH  16  20
ATOM     18  O   UNL     1      37.600 -19.101 -20.704  0.00  0.00    -0.270 OA
ATOM     19  N   UNL     1      35.487 -18.829 -21.653  0.00  0.00    -0.297 N 
ATOM     20  C   UNL     1      36.404 -19.388 -20.778  0.00  0.00    +0.251 C 
ATOM     21  H   UNL     1      34.555 -19.144 -21.616  0.00  0.00    +0.150 HD
BRANCH  19  22
ATOM     22  C   UNL     1      35.826 -17.807 -22.617  0.00  0.00    +0.119 C 
BRANCH  22  25
ATOM     23  F   UNL     1      34.869 -16.119 -24.677  0.00  0.00    -0.204 F 
ATOM     24  F   UNL     1      33.120 -12.975 -21.604  0.00  0.00    -0.204 F 
ATOM     25  C   UNL     1      35.105 -16.518 -22.349  0.00  0.00    +0.025 C 
ATOM     26  C   UNL     1      34.658 -15.732 -23.412  0.00  0.00    +0.140 C 
ATOM     27  C   UNL     1      34.880 -16.107 -21.034  0.00  0.00    +0.002 C 
ATOM     28  C   UNL     1      33.988 -14.535 -23.160  0.00  0.00    +0.059 C 
ATOM     29  C   UNL     1      34.210 -14.910 -20.783  0.00  0.00    +0.030 C 
ATOM     30  C   UNL     1      33.764 -14.123 -21.845  0.00  0.00    +0.142 C 
ENDBRANCH  22  25
ENDBRANCH  19  22
ENDBRANCH  16  20
BRANCH  15  31
ATOM     31  O   UNL     1      32.684 -22.421 -19.205  0.00  0.00    -0.502 OA
ATOM     32  H   UNL     1      31.980 -21.974 -18.777  0.00  0.00    +0.292 HD
ENDBRANCH  15  31
TORSDOF 4
ENDMDL
MODEL 2
REMARK VINA RESULT:     -11.3      3.079      4.554
REMARK  Name = 54726191
REMARK  4 active torsions:
REMARK  status: ('A' for Active; 'I' for Inactive)
REMARK    1  A    between atoms: C_15  and  O_31
REMARK    2  A    between atoms: C_16  and  C_20
REMARK    3  A    between atoms: N_19  and  C_22
REMARK    4  A    between atoms: C_22  and  C_25
REMARK                            x       y       z     vdW  Elec       q    Type
REMARK                         _______ _______ _______ _____ _____    ______ ____
ROOT
ATOM      1  O   UNL     1      37.784 -25.115 -13.325  0.00  0.00    -0.336 OA
ATOM      2  O   UNL     1      33.169 -24.928 -12.469  0.00  0.00    -0.268 OA
ATOM      3  O   UNL     1      31.409 -22.818 -16.754  0.00  0.00    -0.283 OA
ATOM      4  N   UNL     1      35.458 -24.793 -12.785  0.00  0.00    -0.253 N 
ATOM      5  N   UNL     1      34.993 -24.243 -15.508  0.00  0.00    -0.275 N 
ATOM      6  C   UNL     1      36.573 -24.428 -13.665  0.00  0.00    +0.215 C 
ATOM      7  C   UNL     1      35.733 -24.942 -11.344  0.00  0.00    +0.080 C 
ATOM      8  C   UNL     1      37.090 -25.602 -11.097  0.00  0.00    +0.052 C 
ATOM      9  C   UNL     1      36.265 -24.821 -15.101  0.00  0.00    +0.147 C 
ATOM     10  C   UNL     1      38.160 -24.968 -11.963  0.00  0.00    +0.146 C 
ATOM     11  C   UNL     1      34.125 -24.678 -13.202  0.00  0.00    +0.267 C 
ATOM     12  C   UNL     1      33.914 -24.201 -14.621  0.00  0.00    +0.143 C 
ATOM     13  C   UNL     1      35.626 -23.587 -10.634  0.00  0.00    +0.022 C 
ATOM     14  C   UNL     1      34.804 -23.818 -16.816  0.00  0.00    +0.074 C 
ATOM     15  C   UNL     1      32.696 -23.735 -14.978  0.00  0.00    +0.191 C 
ATOM     16  C   UNL     1      33.656 -23.336 -17.306  0.00  0.00    +0.110 C 
ATOM     17  C   UNL     1      32.494 -23.256 -16.383  0.00  0.00    +0.236 C 
ENDROOT
BRANCH  16  20
ATOM     18  O   UNL     1      33.779 -23.735 -19.618  0.00  0.00    -0.270 OA
ATOM     19  N   UNL     1      33.364 -21.567 -18.866  0.00  0.00    -0.297 N 
ATOM     20  C   UNL     1      33.610 -22.922 -18.708  0.00  0.00    +0.251 C 
ATOM     21  H   UNL     1      33.246 -21.018 -18.058  0.00  0.00    +0.150 HD
BRANCH  19  22
ATOM     22  C   UNL     1      33.274 -20.919 -20.154  0.00  0.00    +0.119 C 
BRANCH  22  25
ATOM     23  F   UNL     1      33.591 -19.429 -22.539  0.00  0.00    -0.204 F 
ATOM     24  F   UNL     1      38.201 -18.709 -21.749  0.00  0.00    -0.204 F 
ATOM     25  C   UNL     1      34.586 -20.329 -20.581  0.00  0.00    +0.025 C 
ATOM     26  C   UNL     1      34.674 -19.604 -21.770  0.00  0.00    +0.140 C 
ATOM     27  C   UNL     1      35.719 -20.506 -19.786  0.00  0.00    +0.002 C 
ATOM     28  C   UNL     1      35.896 -19.057 -22.164  0.00  0.00    +0.059 C 
ATOM     29  C   UNL     1      36.940 -19.959 -20.181  0.00  0.00    +0.030 C 
ATOM     30  C   UNL     1      37.029 -19.235 -21.370  0.00  0.00    +0.142 C 
ENDBRANCH  22  25
ENDBRANCH  19  22
ENDBRANCH  16  20
BRANCH  15  31
ATOM     31  O   UNL     1      31.619 -23.654 -14.125  0.00  0.00    -0.502 OA
ATOM     32  H   UNL     1      30.808 -24.064 -14.353  0.00  0.00    +0.292 HD
ENDBRANCH  15  31
TORSDOF 4
ENDMDL
MODEL 3
REMARK VINA RESULT:     -11.1      3.944      9.561
REMARK  Name = 54726191
REMARK  4 active torsions:
REMARK  status: ('A' for Active; 'I' for Inactive)
REMARK    1  A    between atoms: C_15  and  O_31
REMARK    2  A    between atoms: C_16  and  C_20
REMARK    3  A    between atoms: N_19  and  C_22
REMARK    4  A    between atoms: C_22  and  C_25
REMARK                            x       y       z     vdW  Elec       q    Type
REMARK                         _______ _______ _______ _____ _____    ______ ____
ROOT
ATOM      1  O   UNL     1      34.166 -12.971 -22.581  0.00  0.00    -0.336 OA
ATOM      2  O   UNL     1      32.872 -16.623 -25.236  0.00  0.00    -0.268 OA
ATOM      3  O   UNL     1      35.529 -20.421 -23.131  0.00  0.00    -0.283 OA
ATOM      4  N   UNL     1      33.694 -14.785 -24.094  0.00  0.00    -0.253 N 
ATOM      5  N   UNL     1      34.826 -16.539 -22.202  0.00  0.00    -0.275 N 
ATOM      6  C   UNL     1      34.571 -14.267 -23.038  0.00  0.00    +0.215 C 
ATOM      7  C   UNL     1      33.234 -13.848 -25.134  0.00  0.00    +0.080 C 
ATOM      8  C   UNL     1      32.919 -12.471 -24.550  0.00  0.00    +0.052 C 
ATOM      9  C   UNL     1      34.521 -15.169 -21.816  0.00  0.00    +0.147 C 
ATOM     10  C   UNL     1      34.029 -12.015 -23.623  0.00  0.00    +0.146 C 
ATOM     11  C   UNL     1      33.560 -16.161 -24.326  0.00  0.00    +0.267 C 
ATOM     12  C   UNL     1      34.333 -17.069 -23.398  0.00  0.00    +0.143 C 
ATOM     13  C   UNL     1      34.261 -13.759 -26.269  0.00  0.00    +0.022 C 
ATOM     14  C   UNL     1      35.528 -17.369 -21.339  0.00  0.00    +0.074 C 
ATOM     15  C   UNL     1      34.537 -18.354 -23.763  0.00  0.00    +0.191 C 
ATOM     16  C   UNL     1      35.802 -18.659 -21.570  0.00  0.00    +0.110 C 
ATOM     17  C   UNL     1      35.312 -19.248 -22.842  0.00  0.00    +0.236 C 
ENDROOT
BRANCH  16  20
ATOM     18  O   UNL     1      37.666 -19.024 -20.188  0.00  0.00    -0.270 OA
ATOM     19  N   UNL     1      35.895 -20.540 -20.120  0.00  0.00    -0.297 N 
ATOM     20  C   UNL     1      36.558 -19.407 -20.565  0.00  0.00    +0.251 C 
ATOM     21  H   UNL     1      35.009 -20.740 -20.500  0.00  0.00    +0.150 HD
BRANCH  19  22
ATOM     22  C   UNL     1      36.437 -21.442 -19.130  0.00  0.00    +0.119 C 
BRANCH  22  25
ATOM     23  F   UNL     1      36.876 -22.479 -16.534  0.00  0.00    -0.204 F 
ATOM     24  F   UNL     1      32.390 -23.921 -16.100  0.00  0.00    -0.204 F 
ATOM     25  C   UNL     1      35.359 -22.103 -18.321  0.00  0.00    +0.025 C 
ATOM     26  C   UNL     1      35.643 -22.593 -17.046  0.00  0.00    +0.140 C 
ATOM     27  C   UNL     1      34.072 -22.226 -18.846  0.00  0.00    +0.002 C 
ATOM     28  C   UNL     1      34.640 -23.208 -16.296  0.00  0.00    +0.059 C 
ATOM     29  C   UNL     1      33.069 -22.841 -18.095  0.00  0.00    +0.030 C 
ATOM     30  C   UNL     1      33.353 -23.332 -16.821  0.00  0.00    +0.142 C 
ENDBRANCH  22  25
ENDBRANCH  19  22
ENDBRANCH  16  20
BRANCH  15  31
ATOM     31  O   UNL     1      34.090 -18.903 -24.943  0.00  0.00    -0.502 OA
ATOM     32  H   UNL     1      34.542 -18.724 -25.744  0.00  0.00    +0.292 HD
ENDBRANCH  15  31
TORSDOF 4
ENDMDL
MODEL 4
REMARK VINA RESULT:     -11.1      6.551     12.151
REMARK  Name = 54726191
REMARK  4 active torsions:
REMARK  status: ('A' for Active; 'I' for Inactive)
REMARK    1  A    between atoms: C_15  and  O_31
REMARK    2  A    between atoms: C_16  and  C_20
REMARK    3  A    between atoms: N_19  and  C_22
REMARK    4  A    between atoms: C_22  and  C_25
REMARK                            x       y       z     vdW  Elec       q    Type
REMARK                         _______ _______ _______ _____ _____    ______ ____
ROOT
ATOM      1  O   UNL     1      33.502  -6.654 -23.587  0.00  0.00    -0.336 OA
ATOM      2  O   UNL     1      31.938  -9.089 -19.886  0.00  0.00    -0.268 OA
ATOM      3  O   UNL     1      31.885 -13.836 -21.723  0.00  0.00    -0.283 OA
ATOM      4  N   UNL     1      32.468  -7.860 -21.776  0.00  0.00    -0.253 N 
ATOM      5  N   UNL     1      33.242 -10.253 -23.045  0.00  0.00    -0.275 N 
ATOM      6  C   UNL     1      32.830  -7.858 -23.197  0.00  0.00    +0.215 C 
ATOM      7  C   UNL     1      31.945  -6.612 -21.192  0.00  0.00    +0.080 C 
ATOM      8  C   UNL     1      32.671  -5.386 -21.748  0.00  0.00    +0.052 C 
ATOM      9  C   UNL     1      33.801  -8.988 -23.498  0.00  0.00    +0.147 C 
ATOM     10  C   UNL     1      32.789  -5.470 -23.257  0.00  0.00    +0.146 C 
ATOM     11  C   UNL     1      32.291  -9.056 -21.065  0.00  0.00    +0.267 C 
ATOM     12  C   UNL     1      32.540 -10.330 -21.839  0.00  0.00    +0.143 C 
ATOM     13  C   UNL     1      30.429  -6.514 -21.402  0.00  0.00    +0.022 C 
ATOM     14  C   UNL     1      33.485 -11.420 -23.756  0.00  0.00    +0.074 C 
ATOM     15  C   UNL     1      32.062 -11.495 -21.348  0.00  0.00    +0.191 C 
ATOM     16  C   UNL     1      33.073 -12.640 -23.390  0.00  0.00    +0.110 C 
ATOM     17  C   UNL     1      32.304 -12.755 -22.123  0.00  0.00    +0.236 C 
ENDROOT
BRANCH  16  20
ATOM     18  O   UNL     1      33.039 -13.815 -25.423  0.00  0.00    -0.270 OA
ATOM     19  N   UNL     1      34.135 -14.756 -23.592  0.00  0.00    -0.297 N 
ATOM     20  C   UNL     1      33.402 -13.779 -24.246  0.00  0.00    +0.251 C 
ATOM     21  H   UNL     1      34.365 -14.611 -22.646  0.00  0.00    +0.150 HD
BRANCH  19  22
ATOM     22  C   UNL     1      34.579 -15.977 -24.226  0.00  0.00    +0.119 C 
BRANCH  22  25
ATOM     23  F   UNL     1      34.041 -18.687 -24.833  0.00  0.00    -0.204 F 
ATOM     24  F   UNL     1      35.286 -20.144 -20.507  0.00  0.00    -0.204 F 
ATOM     25  C   UNL     1      34.767 -17.089 -23.235  0.00  0.00    +0.025 C 
ATOM     26  C   UNL     1      34.483 -18.405 -23.600  0.00  0.00    +0.140 C 
ATOM     27  C   UNL     1      35.228 -16.804 -21.950  0.00  0.00    +0.002 C 
ATOM     28  C   UNL     1      34.658 -19.437 -22.678  0.00  0.00    +0.059 C 
ATOM     29  C   UNL     1      35.403 -17.837 -21.028  0.00  0.00    +0.030 C 
ATOM     30  C   UNL     1      35.118 -19.153 -21.391  0.00  0.00    +0.142 C 
ENDBRANCH  22  25
ENDBRANCH  19  22
ENDBRANCH  16  20
BRANCH  15  31
ATOM     31  O   UNL     1      31.344 -11.605 -20.178  0.00  0.00    -0.502 OA
ATOM     32  H   UNL     1      31.591 -12.239 -19.534  0.00  0.00    +0.292 HD
ENDBRANCH  15  31
TORSDOF 4
ENDMDL
MODEL 5
REMARK VINA RESULT:     -10.8      5.336      8.952
REMARK  Name = 54726191
REMARK  4 active torsions:
REMARK  status: ('A' for Active; 'I' for Inactive)
REMARK    1  A    between atoms: C_15  and  O_31
REMARK    2  A    between atoms: C_16  and  C_20
REMARK    3  A    between atoms: N_19  and  C_22
REMARK    4  A    between atoms: C_22  and  C_25
REMARK                            x       y       z     vdW  Elec       q    Type
REMARK                         _______ _______ _______ _____ _____    ______ ____
ROOT
ATOM      1  O   UNL     1      35.495 -17.922 -20.559  0.00  0.00    -0.336 OA
ATOM      2  O   UNL     1      35.118 -16.995 -25.149  0.00  0.00    -0.268 OA
ATOM      3  O   UNL     1      32.461 -12.653 -25.109  0.00  0.00    -0.283 OA
ATOM      4  N   UNL     1      35.090 -17.583 -22.910  0.00  0.00    -0.253 N 
ATOM      5  N   UNL     1      34.227 -14.973 -22.294  0.00  0.00    -0.275 N 
ATOM      6  C   UNL     1      34.703 -17.238 -21.538  0.00  0.00    +0.215 C 
ATOM      7  C   UNL     1      35.408 -18.991 -23.207  0.00  0.00    +0.080 C 
ATOM      8  C   UNL     1      36.172 -19.649 -22.057  0.00  0.00    +0.052 C 
ATOM      9  C   UNL     1      34.921 -15.756 -21.282  0.00  0.00    +0.147 C 
ATOM     10  C   UNL     1      35.516 -19.333 -20.728  0.00  0.00    +0.146 C 
ATOM     11  C   UNL     1      34.850 -16.712 -23.982  0.00  0.00    +0.267 C 
ATOM     12  C   UNL     1      34.213 -15.387 -23.629  0.00  0.00    +0.143 C 
ATOM     13  C   UNL     1      34.133 -19.768 -23.555  0.00  0.00    +0.022 C 
ATOM     14  C   UNL     1      33.654 -13.753 -21.963  0.00  0.00    +0.074 C 
ATOM     15  C   UNL     1      33.639 -14.658 -24.611  0.00  0.00    +0.191 C 
ATOM     16  C   UNL     1      33.053 -12.929 -22.831  0.00  0.00    +0.110 C 
ATOM     17  C   UNL     1      33.001 -13.349 -24.255  0.00  0.00    +0.236 C 
ENDROOT
BRANCH  16  20
ATOM     18  O   UNL     1      31.858 -11.636 -21.276  0.00  0.00    -0.270 OA
ATOM     19  N   UNL     1      32.751 -10.595 -23.162  0.00  0.00    -0.297 N 
ATOM     20  C   UNL     1      32.491 -11.674 -22.332  0.00  0.00    +0.251 C 
ATOM     21  H   UNL     1      33.271 -10.754 -23.983  0.00  0.00    +0.150 HD
BRANCH  19  22
ATOM     22  C   UNL     1      32.299  -9.251 -22.885  0.00  0.00    +0.119 C 
BRANCH  22  25
ATOM     23  F   UNL     1      31.521  -7.631 -25.071  0.00  0.00    -0.204 F 
ATOM     24  F   UNL     1      35.679  -5.376 -25.180  0.00  0.00    -0.204 F 
ATOM     25  C   UNL     1      33.199  -8.217 -23.498  0.00  0.00    +0.025 C 
ATOM     26  C   UNL     1      32.752  -7.452 -24.575  0.00  0.00    +0.140 C 
ATOM     27  C   UNL     1      34.483  -8.023 -22.988  0.00  0.00    +0.002 C 
ATOM     28  C   UNL     1      33.591  -6.492 -25.143  0.00  0.00    +0.059 C 
ATOM     29  C   UNL     1      35.321  -7.063 -23.557  0.00  0.00    +0.030 C 
ATOM     30  C   UNL     1      34.875  -6.297 -24.634  0.00  0.00    +0.142 C 
ENDBRANCH  22  25
ENDBRANCH  19  22
ENDBRANCH  16  20
BRANCH  15  31
ATOM     31  O   UNL     1      33.583 -15.046 -25.931  0.00  0.00    -0.502 OA
ATOM     32  H   UNL     1      34.325 -15.453 -26.332  0.00  0.00    +0.292 HD
ENDBRANCH  15  31
TORSDOF 4
ENDMDL
MODEL 6
REMARK VINA RESULT:     -10.6      5.460      9.183
REMARK  Name = 54726191
REMARK  4 active torsions:
REMARK  status: ('A' for Active; 'I' for Inactive)
REMARK    1  A    between atoms: C_15  and  O_31
REMARK    2  A    between atoms: C_16  and  C_20
REMARK    3  A    between atoms: N_19  and  C_22
REMARK    4  A    between atoms: C_22  and  C_25
REMARK                            x       y       z     vdW  Elec       q    Type
REMARK                         _______ _______ _______ _____ _____    ______ ____
ROOT
ATOM      1  O   UNL     1      35.413 -18.137 -20.613  0.00  0.00    -0.336 OA
ATOM      2  O   UNL     1      35.040 -16.120 -24.839  0.00  0.00    -0.268 OA
ATOM      3  O   UNL     1      32.285 -11.976 -23.765  0.00  0.00    -0.283 OA
ATOM      4  N   UNL     1      35.014 -17.240 -22.813  0.00  0.00    -0.253 N 
ATOM      5  N   UNL     1      34.088 -14.879 -21.585  0.00  0.00    -0.275 N 
ATOM      6  C   UNL     1      34.611 -17.250 -21.402  0.00  0.00    +0.215 C 
ATOM      7  C   UNL     1      35.365 -18.525 -23.442  0.00  0.00    +0.080 C 
ATOM      8  C   UNL     1      36.138 -19.429 -22.481  0.00  0.00    +0.052 C 
ATOM      9  C   UNL     1      34.795 -15.872 -20.789  0.00  0.00    +0.147 C 
ATOM     10  C   UNL     1      35.467 -19.463 -21.121  0.00  0.00    +0.146 C 
ATOM     11  C   UNL     1      34.760 -16.137 -23.641  0.00  0.00    +0.267 C 
ATOM     12  C   UNL     1      34.091 -14.953 -22.981  0.00  0.00    +0.143 C 
ATOM     13  C   UNL     1      34.110 -19.219 -23.984  0.00  0.00    +0.022 C 
ATOM     14  C   UNL     1      33.486 -13.789 -20.972  0.00  0.00    +0.074 C 
ATOM     15  C   UNL     1      33.505 -14.017 -23.760  0.00  0.00    +0.191 C 
ATOM     16  C   UNL     1      32.872 -12.790 -21.617  0.00  0.00    +0.110 C 
ATOM     17  C   UNL     1      32.837 -12.849 -23.101  0.00  0.00    +0.236 C 
ENDROOT
BRANCH  16  20
ATOM     18  O   UNL     1      31.937 -11.885 -19.661  0.00  0.00    -0.270 OA
ATOM     19  N   UNL     1      32.159 -10.525 -21.543  0.00  0.00    -0.297 N 
ATOM     20  C   UNL     1      32.278 -11.708 -20.832  0.00  0.00    +0.251 C 
ATOM     21  H   UNL     1      32.469 -10.509 -22.477  0.00  0.00    +0.150 HD
BRANCH  19  22
ATOM     22  C   UNL     1      31.601  -9.314 -20.986  0.00  0.00    +0.119 C 
BRANCH  22  25
ATOM     23  F   UNL     1      32.253  -6.646 -20.303  0.00  0.00    -0.204 F 
ATOM     24  F   UNL     1      31.559  -5.101 -24.721  0.00  0.00    -0.204 F 
ATOM     25  C   UNL     1      31.590  -8.190 -21.980  0.00  0.00    +0.025 C 
ATOM     26  C   UNL     1      31.923  -6.896 -21.577  0.00  0.00    +0.140 C 
ATOM     27  C   UNL     1      31.248  -8.440 -23.309  0.00  0.00    +0.002 C 
ATOM     28  C   UNL     1      31.912  -5.853 -22.503  0.00  0.00    +0.059 C 
ATOM     29  C   UNL     1      31.238  -7.396 -24.235  0.00  0.00    +0.030 C 
ATOM     30  C   UNL     1      31.569  -6.102 -23.833  0.00  0.00    +0.142 C 
ENDBRANCH  22  25
ENDBRANCH  19  22
ENDBRANCH  16  20
BRANCH  15  31
ATOM     31  O   UNL     1      33.465 -14.071 -25.135  0.00  0.00    -0.502 OA
ATOM     32  H   UNL     1      34.235 -14.299 -25.618  0.00  0.00    +0.292 HD
ENDBRANCH  15  31
TORSDOF 4
ENDMDL
MODEL 7
REMARK VINA RESULT:     -10.5      4.461      9.915
REMARK  Name = 54726191
REMARK  4 active torsions:
REMARK  status: ('A' for Active; 'I' for Inactive)
REMARK    1  A    between atoms: C_15  and  O_31
REMARK    2  A    between atoms: C_16  and  C_20
REMARK    3  A    between atoms: N_19  and  C_22
REMARK    4  A    between atoms: C_22  and  C_25
REMARK                            x       y       z     vdW  Elec       q    Type
REMARK                         _______ _______ _______ _____ _____    ______ ____
ROOT
ATOM      1  O   UNL     1      31.943 -11.512 -19.565  0.00  0.00    -0.336 OA
ATOM      2  O   UNL     1      32.342 -12.467 -24.147  0.00  0.00    -0.268 OA
ATOM      3  O   UNL     1      35.291 -16.616 -24.082  0.00  0.00    -0.283 OA
ATOM      4  N   UNL     1      32.349 -11.851 -21.915  0.00  0.00    -0.253 N 
ATOM      5  N   UNL     1      33.395 -14.388 -21.277  0.00  0.00    -0.275 N 
ATOM      6  C   UNL     1      32.771 -12.152 -20.543  0.00  0.00    +0.215 C 
ATOM      7  C   UNL     1      31.932 -10.472 -22.225  0.00  0.00    +0.080 C 
ATOM      8  C   UNL     1      31.135  -9.854 -21.076  0.00  0.00    +0.052 C 
ATOM      9  C   UNL     1      32.657 -13.642 -20.268  0.00  0.00    +0.147 C 
ATOM     10  C   UNL     1      31.823 -10.107 -19.749  0.00  0.00    +0.146 C 
ATOM     11  C   UNL     1      32.639 -12.717 -22.979  0.00  0.00    +0.267 C 
ATOM     12  C   UNL     1      33.368 -13.991 -22.617  0.00  0.00    +0.143 C 
ATOM     13  C   UNL     1      33.148  -9.614 -22.595  0.00  0.00    +0.022 C 
ATOM     14  C   UNL     1      34.053 -15.562 -20.938  0.00  0.00    +0.074 C 
ATOM     15  C   UNL     1      33.983 -14.691 -23.596  0.00  0.00    +0.191 C 
ATOM     16  C   UNL     1      34.701 -16.353 -21.801  0.00  0.00    +0.110 C 
ATOM     17  C   UNL     1      34.712 -15.948 -23.231  0.00  0.00    +0.236 C 
ENDROOT
BRANCH  16  20
ATOM     18  O   UNL     1      36.081 -17.520 -20.299  0.00  0.00    -0.270 OA
ATOM     19  N   UNL     1      35.059 -18.690 -22.039  0.00  0.00    -0.297 N 
ATOM     20  C   UNL     1      35.353 -17.560 -21.293  0.00  0.00    +0.251 C 
ATOM     21  H   UNL     1      34.461 -18.594 -22.815  0.00  0.00    +0.150 HD
BRANCH  19  22
ATOM     22  C   UNL     1      35.584 -20.003 -21.737  0.00  0.00    +0.119 C 
BRANCH  22  25
ATOM     23  F   UNL     1      36.763 -21.759 -19.858  0.00  0.00    -0.204 F 
ATOM     24  F   UNL     1      32.642 -22.565 -17.677  0.00  0.00    -0.204 F 
ATOM     25  C   UNL     1      34.801 -20.686 -20.654  0.00  0.00    +0.025 C 
ATOM     26  C   UNL     1      35.445 -21.542 -19.759  0.00  0.00    +0.140 C 
ATOM     27  C   UNL     1      33.428 -20.465 -20.543  0.00  0.00    +0.002 C 
ATOM     28  C   UNL     1      34.715 -22.176 -18.754  0.00  0.00    +0.059 C 
ATOM     29  C   UNL     1      32.699 -21.100 -19.537  0.00  0.00    +0.030 C 
ATOM     30  C   UNL     1      33.342 -21.956 -18.643  0.00  0.00    +0.142 C 
ENDBRANCH  22  25
ENDBRANCH  19  22
ENDBRANCH  16  20
BRANCH  15  31
ATOM     31  O   UNL     1      34.000 -14.316 -24.920  0.00  0.00    -0.502 OA
ATOM     32  H   UNL     1      34.120 -14.962 -25.589  0.00  0.00    +0.292 HD
ENDBRANCH  15  31
TORSDOF 4
ENDMDL
MODEL 8
REMARK VINA RESULT:     -10.1      1.760      2.453
REMARK  Name = 54726191
REMARK  4 active torsions:
REMARK  status: ('A' for Active; 'I' for Inactive)
REMARK    1  A    between atoms: C_15  and  O_31
REMARK    2  A    between atoms: C_16  and  C_20
REMARK    3  A    between atoms: N_19  and  C_22
REMARK    4  A    between atoms: C_22  and  C_25
REMARK                            x       y       z     vdW  Elec       q    Type
REMARK                         _______ _______ _______ _____ _____    ______ ____
ROOT
ATOM      1  O   UNL     1      35.645 -24.168 -13.480  0.00  0.00    -0.336 OA
ATOM      2  O   UNL     1      31.819 -24.068 -16.204  0.00  0.00    -0.268 OA
ATOM      3  O   UNL     1      33.388 -21.164 -20.079  0.00  0.00    -0.283 OA
ATOM      4  N   UNL     1      33.611 -23.914 -14.746  0.00  0.00    -0.253 N 
ATOM      5  N   UNL     1      35.158 -22.857 -16.850  0.00  0.00    -0.275 N 
ATOM      6  C   UNL     1      34.964 -23.410 -14.486  0.00  0.00    +0.215 C 
ATOM      7  C   UNL     1      32.796 -24.336 -13.593  0.00  0.00    +0.080 C 
ATOM      8  C   UNL     1      33.641 -25.053 -12.539  0.00  0.00    +0.052 C 
ATOM      9  C   UNL     1      35.820 -23.521 -15.737  0.00  0.00    +0.147 C 
ATOM     10  C   UNL     1      34.919 -24.285 -12.264  0.00  0.00    +0.146 C 
ATOM     11  C   UNL     1      32.972 -23.701 -15.975  0.00  0.00    +0.267 C 
ATOM     12  C   UNL     1      33.775 -22.963 -17.021  0.00  0.00    +0.143 C 
ATOM     13  C   UNL     1      32.048 -23.136 -12.997  0.00  0.00    +0.022 C 
ATOM     14  C   UNL     1      35.905 -22.191 -17.812  0.00  0.00    +0.074 C 
ATOM     15  C   UNL     1      33.129 -22.419 -18.076  0.00  0.00    +0.191 C 
ATOM     16  C   UNL     1      35.399 -21.606 -18.904  0.00  0.00    +0.110 C 
ATOM     17  C   UNL     1      33.929 -21.681 -19.106  0.00  0.00    +0.236 C 
ENDROOT
BRANCH  16  20
ATOM     18  O   UNL     1      37.364 -21.472 -20.185  0.00  0.00    -0.270 OA
ATOM     19  N   UNL     1      35.862 -19.688 -20.228  0.00  0.00    -0.297 N 
ATOM     20  C   UNL     1      36.313 -20.936 -19.829  0.00  0.00    +0.251 C 
ATOM     21  H   UNL     1      35.002 -19.367 -19.872  0.00  0.00    +0.150 HD
BRANCH  19  22
ATOM     22  C   UNL     1      36.590 -18.831 -21.137  0.00  0.00    +0.119 C 
BRANCH  22  25
ATOM     23  F   UNL     1      35.274 -20.374 -23.110  0.00  0.00    -0.204 F 
ATOM     24  F   UNL     1      33.234 -16.572 -25.053  0.00  0.00    -0.204 F 
ATOM     25  C   UNL     1      35.695 -18.231 -22.181  0.00  0.00    +0.025 C 
ATOM     26  C   UNL     1      35.076 -19.049 -23.126  0.00  0.00    +0.140 C 
ATOM     27  C   UNL     1      35.483 -16.852 -22.206  0.00  0.00    +0.002 C 
ATOM     28  C   UNL     1      34.245 -18.489 -24.096  0.00  0.00    +0.059 C 
ATOM     29  C   UNL     1      34.651 -16.292 -23.176  0.00  0.00    +0.030 C 
ATOM     30  C   UNL     1      34.032 -17.110 -24.122  0.00  0.00    +0.142 C 
ENDBRANCH  22  25
ENDBRANCH  19  22
ENDBRANCH  16  20
BRANCH  15  31
ATOM     31  O   UNL     1      31.766 -22.481 -18.264  0.00  0.00    -0.502 OA
ATOM     32  H   UNL     1      31.267 -21.691 -18.339  0.00  0.00    +0.292 HD
ENDBRANCH  15  31
TORSDOF 4
ENDMDL
MODEL 9
REMARK VINA RESULT:     -10.0      4.018      9.382
REMARK  Name = 54726191
REMARK  4 active torsions:
REMARK  status: ('A' for Active; 'I' for Inactive)
REMARK    1  A    between atoms: C_15  and  O_31
REMARK    2  A    between atoms: C_16  and  C_20
REMARK    3  A    between atoms: N_19  and  C_22
REMARK    4  A    between atoms: C_22  and  C_25
REMARK                            x       y       z     vdW  Elec       q    Type
REMARK                         _______ _______ _______ _____ _____    ______ ____
ROOT
ATOM      1  O   UNL     1      32.854 -12.927 -20.213  0.00  0.00    -0.336 OA
ATOM      2  O   UNL     1      33.104 -14.950 -24.445  0.00  0.00    -0.268 OA
ATOM      3  O   UNL     1      36.248 -18.849 -23.539  0.00  0.00    -0.283 OA
ATOM      4  N   UNL     1      33.176 -13.811 -22.430  0.00  0.00    -0.253 N 
ATOM      5  N   UNL     1      34.368 -16.078 -21.257  0.00  0.00    -0.275 N 
ATOM      6  C   UNL     1      33.670 -13.754 -21.050  0.00  0.00    +0.215 C 
ATOM      7  C   UNL     1      32.681 -12.564 -23.041  0.00  0.00    +0.080 C 
ATOM      8  C   UNL     1      31.905 -11.716 -22.034  0.00  0.00    +0.052 C 
ATOM      9  C   UNL     1      33.639 -15.137 -20.419  0.00  0.00    +0.147 C 
ATOM     10  C   UNL     1      32.659 -11.614 -20.723  0.00  0.00    +0.146 C 
ATOM     11  C   UNL     1      33.462 -14.898 -23.268  0.00  0.00    +0.267 C 
ATOM     12  C   UNL     1      34.266 -16.018 -22.649  0.00  0.00    +0.143 C 
ATOM     13  C   UNL     1      33.838 -11.778 -23.669  0.00  0.00    +0.022 C 
ATOM     14  C   UNL     1      35.095 -17.110 -20.680  0.00  0.00    +0.074 C 
ATOM     15  C   UNL     1      34.872 -16.912 -23.462  0.00  0.00    +0.191 C 
ATOM     16  C   UNL     1      35.743 -18.063 -21.360  0.00  0.00    +0.110 C 
ATOM     17  C   UNL     1      35.674 -18.017 -22.844  0.00  0.00    +0.236 C 
ENDROOT
BRANCH  16  20
ATOM     18  O   UNL     1      37.656 -18.929 -20.306  0.00  0.00    -0.270 OA
ATOM     19  N   UNL     1      35.697 -20.195 -20.311  0.00  0.00    -0.297 N 
ATOM     20  C   UNL     1      36.473 -19.087 -20.613  0.00  0.00    +0.251 C 
ATOM     21  H   UNL     1      34.760 -20.203 -20.612  0.00  0.00    +0.150 HD
BRANCH  19  22
ATOM     22  C   UNL     1      36.193 -21.339 -19.580  0.00  0.00    +0.119 C 
BRANCH  22  25
ATOM     23  F   UNL     1      36.766 -22.577 -17.102  0.00  0.00    -0.204 F 
ATOM     24  F   UNL     1      32.221 -23.634 -16.316  0.00  0.00    -0.204 F 
ATOM     25  C   UNL     1      35.135 -21.951 -18.709  0.00  0.00    +0.025 C 
ATOM     26  C   UNL     1      35.486 -22.547 -17.497  0.00  0.00    +0.140 C 
ATOM     27  C   UNL     1      33.800 -21.924 -19.112  0.00  0.00    +0.002 C 
ATOM     28  C   UNL     1      34.501 -23.115 -16.689  0.00  0.00    +0.059 C 
ATOM     29  C   UNL     1      32.816 -22.493 -18.303  0.00  0.00    +0.030 C 
ATOM     30  C   UNL     1      33.166 -23.089 -17.092  0.00  0.00    +0.142 C 
ENDBRANCH  22  25
ENDBRANCH  19  22
ENDBRANCH  16  20
BRANCH  15  31
ATOM     31  O   UNL     1      34.815 -16.870 -24.837  0.00  0.00    -0.502 OA
ATOM     32  H   UNL     1      34.333 -16.191 -25.266  0.00  0.00    +0.292 HD
ENDBRANCH  15  31
TORSDOF 4
ENDMDL
