MODEL 1
REMARK VINA RESULT:     -11.5      0.000      0.000
REMARK  Name = 2448
REMARK  7 active torsions:
REMARK  status: ('A' for Active; 'I' for Inactive)
REMARK    1  A    between atoms: N_1  and  C_17
REMARK    2  A    between atoms: C_2  and  C_9
REMARK    3  A    between atoms: C_2  and  O_15
REMARK    4  A    between atoms: C_17  and  C_18
REMARK    5  A    between atoms: C_18  and  C_19
REMARK    6  A    between atoms: C_19  and  C_21
REMARK    7  A    between atoms: C_21  and  C_23
REMARK                            x       y       z     vdW  Elec       q    Type
REMARK                         _______ _______ _______ _____ _____    ______ ____
ROOT
ATOM      1  N   UNL     1      35.216 -20.481 -19.887  0.00  0.00    +0.387 N 
ATOM      2  C   UNL     1      33.844 -22.635 -18.372  0.00  0.00    +0.103 C 
ATOM      3  C   UNL     1      33.106 -21.480 -19.083  0.00  0.00    +0.008 C 
ATOM      4  C   UNL     1      35.300 -22.194 -18.095  0.00  0.00    +0.008 C 
ATOM      5  C   UNL     1      33.876 -20.926 -20.287  0.00  0.00    -0.075 C 
ATOM      6  C   UNL     1      35.993 -21.588 -19.321  0.00  0.00    -0.075 C 
ATOM      7  H   UNL     1      35.110 -19.769 -19.165  0.00  0.00    -0.080 HD
ENDROOT
BRANCH   2   9
ATOM      8 BR   UNL     1      31.148 -24.641 -13.152  0.00  0.00    -0.049 Br
ATOM      9  C   UNL     1      33.179 -23.131 -17.086  0.00  0.00    +0.002 C 
ATOM     10  C   UNL     1      31.799 -23.022 -16.929  0.00  0.00    -0.002 C 
ATOM     11  C   UNL     1      33.957 -23.691 -16.073  0.00  0.00    -0.002 C 
ATOM     12  C   UNL     1      31.193 -23.472 -15.757  0.00  0.00    +0.006 C 
ATOM     13  C   UNL     1      33.351 -24.141 -14.899  0.00  0.00    +0.006 C 
ATOM     14  C   UNL     1      31.969 -24.032 -14.742  0.00  0.00    +0.035 C 
ENDBRANCH   2   9
BRANCH   2  15
ATOM     15  O   UNL     1      33.848 -23.764 -19.259  0.00  0.00    -0.383 OA
ATOM     16  H   UNL     1      33.075 -23.718 -19.845  0.00  0.00    +0.211 HD
ENDBRANCH   2  15
BRANCH   1  17
ATOM     17  C   UNL     1      35.920 -19.889 -21.025  0.00  0.00    -0.077 C 
BRANCH  17  18
ATOM     18  C   UNL     1      34.919 -19.281 -22.009  0.00  0.00    -0.015 C 
BRANCH  18  19
ATOM     19  C   UNL     1      35.524 -18.130 -22.817  0.00  0.00    +0.067 C 
BRANCH  19  21
ATOM     20  O   UNL     1      34.072 -18.309 -24.737  0.00  0.00    -0.291 OA
ATOM     21  C   UNL     1      34.589 -17.586 -23.888  0.00  0.00    +0.173 C 
BRANCH  21  23
ATOM     22  F   UNL     1      33.415 -12.128 -23.892  0.00  0.00    -0.204 F 
ATOM     23  C   UNL     1      34.276 -16.129 -23.889  0.00  0.00    +0.035 C 
ATOM     24  C   UNL     1      34.661 -15.369 -22.808  0.00  0.00    +0.005 C 
ATOM     25  C   UNL     1      33.611 -15.596 -24.972  0.00  0.00    +0.005 C 
ATOM     26  C   UNL     1      34.368 -14.006 -22.809  0.00  0.00    +0.030 C 
ATOM     27  C   UNL     1      33.318 -14.233 -24.973  0.00  0.00    +0.030 C 
ATOM     28  C   UNL     1      33.697 -13.437 -23.892  0.00  0.00    +0.140 C 
ENDBRANCH  21  23
ENDBRANCH  19  21
ENDBRANCH  18  19
ENDBRANCH  17  18
ENDBRANCH   1  17
TORSDOF 7
ENDMDL
MODEL 2
REMARK VINA RESULT:     -11.1      5.376     10.469
REMARK  Name = 2448
REMARK  7 active torsions:
REMARK  status: ('A' for Active; 'I' for Inactive)
REMARK    1  A    between atoms: N_1  and  C_17
REMARK    2  A    between atoms: C_2  and  C_9
REMARK    3  A    between atoms: C_2  and  O_15
REMARK    4  A    between atoms: C_17  and  C_18
REMARK    5  A    between atoms: C_18  and  C_19
REMARK    6  A    between atoms: C_19  and  C_21
REMARK    7  A    between atoms: C_21  and  C_23
REMARK                            x       y       z     vdW  Elec       q    Type
REMARK                         _______ _______ _______ _____ _____    ______ ____
ROOT
ATOM      1  N   UNL     1      34.634 -15.202 -23.317  0.00  0.00    +0.387 N 
ATOM      2  C   UNL     1      32.756 -13.046 -22.514  0.00  0.00    +0.103 C 
ATOM      3  C   UNL     1      33.069 -13.412 -23.981  0.00  0.00    +0.008 C 
ATOM      4  C   UNL     1      33.923 -13.533 -21.624  0.00  0.00    +0.008 C 
ATOM      5  C   UNL     1      33.479 -14.878 -24.161  0.00  0.00    -0.075 C 
ATOM      6  C   UNL     1      34.329 -14.986 -21.899  0.00  0.00    -0.075 C 
ATOM      7  H   UNL     1      35.398 -14.577 -23.573  0.00  0.00    -0.080 HD
ENDROOT
BRANCH   2   9
ATOM      8 BR   UNL     1      31.613  -7.029 -21.498  0.00  0.00    -0.049 Br
ATOM      9  C   UNL     1      32.472 -11.564 -22.265  0.00  0.00    +0.002 C 
ATOM     10  C   UNL     1      32.904 -10.608 -23.182  0.00  0.00    -0.002 C 
ATOM     11  C   UNL     1      31.784 -11.171 -21.117  0.00  0.00    -0.002 C 
ATOM     12  C   UNL     1      32.648  -9.257 -22.955  0.00  0.00    +0.006 C 
ATOM     13  C   UNL     1      31.527  -9.818 -20.889  0.00  0.00    +0.006 C 
ATOM     14  C   UNL     1      31.959  -8.862 -21.809  0.00  0.00    +0.035 C 
ENDBRANCH   2   9
BRANCH   2  15
ATOM     15  O   UNL     1      31.552 -13.732 -22.139  0.00  0.00    -0.383 OA
ATOM     16  H   UNL     1      31.779 -14.580 -21.724  0.00  0.00    +0.211 HD
ENDBRANCH   2  15
BRANCH   1  17
ATOM     17  C   UNL     1      35.064 -16.581 -23.544  0.00  0.00    -0.077 C 
BRANCH  17  18
ATOM     18  C   UNL     1      35.312 -17.287 -22.209  0.00  0.00    -0.015 C 
BRANCH  18  19
ATOM     19  C   UNL     1      35.855 -18.706 -22.394  0.00  0.00    +0.067 C 
BRANCH  19  21
ATOM     20  O   UNL     1      37.464 -19.065 -20.631  0.00  0.00    -0.291 OA
ATOM     21  C   UNL     1      36.361 -19.332 -21.101  0.00  0.00    +0.173 C 
BRANCH  21  23
ATOM     22  F   UNL     1      33.038 -22.899 -18.380  0.00  0.00    -0.204 F 
ATOM     23  C   UNL     1      35.474 -20.285 -20.375  0.00  0.00    +0.035 C 
ATOM     24  C   UNL     1      34.111 -20.170 -20.533  0.00  0.00    +0.005 C 
ATOM     25  C   UNL     1      36.050 -21.243 -19.572  0.00  0.00    +0.005 C 
ATOM     26  C   UNL     1      33.281 -21.061 -19.854  0.00  0.00    +0.030 C 
ATOM     27  C   UNL     1      35.220 -22.135 -18.893  0.00  0.00    +0.030 C 
ATOM     28  C   UNL     1      33.835 -22.044 -19.033  0.00  0.00    +0.140 C 
ENDBRANCH  21  23
ENDBRANCH  19  21
ENDBRANCH  18  19
ENDBRANCH  17  18
ENDBRANCH   1  17
TORSDOF 7
ENDMDL
MODEL 3
REMARK VINA RESULT:     -11.0      3.512      5.842
REMARK  Name = 2448
REMARK  7 active torsions:
REMARK  status: ('A' for Active; 'I' for Inactive)
REMARK    1  A    between atoms: N_1  and  C_17
REMARK    2  A    between atoms: C_2  and  C_9
REMARK    3  A    between atoms: C_2  and  O_15
REMARK    4  A    between atoms: C_17  and  C_18
REMARK    5  A    between atoms: C_18  and  C_19
REMARK    6  A    between atoms: C_19  and  C_21
REMARK    7  A    between atoms: C_21  and  C_23
REMARK                            x       y       z     vdW  Elec       q    Type
REMARK                         _______ _______ _______ _____ _____    ______ ____
ROOT
ATOM      1  N   UNL     1      34.333 -16.093 -23.145  0.00  0.00    +0.387 N 
ATOM      2  C   UNL     1      35.230 -18.548 -21.734  0.00  0.00    +0.103 C 
ATOM      3  C   UNL     1      34.511 -18.556 -23.100  0.00  0.00    +0.008 C 
ATOM      4  C   UNL     1      34.899 -17.223 -21.009  0.00  0.00    +0.008 C 
ATOM      5  C   UNL     1      34.745 -17.275 -23.910  0.00  0.00    -0.075 C 
ATOM      6  C   UNL     1      35.090 -15.985 -21.893  0.00  0.00    -0.075 C 
ATOM      7  H   UNL     1      33.347 -16.198 -22.907  0.00  0.00    -0.080 HD
ENDROOT
BRANCH   2   9
ATOM      8 BR   UNL     1      33.965 -23.410 -18.087  0.00  0.00    -0.049 Br
ATOM      9  C   UNL     1      34.919 -19.745 -20.834  0.00  0.00    +0.002 C 
ATOM     10  C   UNL     1      35.958 -20.467 -20.251  0.00  0.00    -0.002 C 
ATOM     11  C   UNL     1      33.594 -20.112 -20.599  0.00  0.00    -0.002 C 
ATOM     12  C   UNL     1      35.675 -21.559 -19.432  0.00  0.00    +0.006 C 
ATOM     13  C   UNL     1      33.309 -21.205 -19.780  0.00  0.00    +0.006 C 
ATOM     14  C   UNL     1      34.351 -21.928 -19.196  0.00  0.00    +0.035 C 
ENDBRANCH   2   9
BRANCH   2  15
ATOM     15  O   UNL     1      36.643 -18.616 -21.982  0.00  0.00    -0.383 OA
ATOM     16  H   UNL     1      37.088 -17.892 -21.513  0.00  0.00    +0.211 HD
ENDBRANCH   2  15
BRANCH   1  17
ATOM     17  C   UNL     1      34.493 -14.881 -23.948  0.00  0.00    -0.077 C 
BRANCH  17  18
ATOM     18  C   UNL     1      34.168 -13.643 -23.110  0.00  0.00    -0.015 C 
BRANCH  18  19
ATOM     19  C   UNL     1      32.660 -13.419 -22.963  0.00  0.00    +0.067 C 
BRANCH  19  21
ATOM     20  O   UNL     1      32.005 -14.168 -20.765  0.00  0.00    -0.291 OA
ATOM     21  C   UNL     1      32.216 -13.223 -21.521  0.00  0.00    +0.173 C 
BRANCH  21  23
ATOM     22  F   UNL     1      31.607  -8.017 -19.597  0.00  0.00    -0.204 F 
ATOM     23  C   UNL     1      32.053 -11.833 -21.007  0.00  0.00    +0.035 C 
ATOM     24  C   UNL     1      31.953 -10.801 -21.913  0.00  0.00    +0.005 C 
ATOM     25  C   UNL     1      32.009 -11.632 -19.645  0.00  0.00    +0.005 C 
ATOM     26  C   UNL     1      31.801  -9.501 -21.433  0.00  0.00    +0.030 C 
ATOM     27  C   UNL     1      31.857 -10.332 -19.165  0.00  0.00    +0.030 C 
ATOM     28  C   UNL     1      31.752  -9.266 -20.058  0.00  0.00    +0.140 C 
ENDBRANCH  21  23
ENDBRANCH  19  21
ENDBRANCH  18  19
ENDBRANCH  17  18
ENDBRANCH   1  17
TORSDOF 7
ENDMDL
MODEL 4
REMARK VINA RESULT:     -10.9      5.626     10.702
REMARK  Name = 2448
REMARK  7 active torsions:
REMARK  status: ('A' for Active; 'I' for Inactive)
REMARK    1  A    between atoms: N_1  and  C_17
REMARK    2  A    between atoms: C_2  and  C_9
REMARK    3  A    between atoms: C_2  and  O_15
REMARK    4  A    between atoms: C_17  and  C_18
REMARK    5  A    between atoms: C_18  and  C_19
REMARK    6  A    between atoms: C_19  and  C_21
REMARK    7  A    between atoms: C_21  and  C_23
REMARK                            x       y       z     vdW  Elec       q    Type
REMARK                         _______ _______ _______ _____ _____    ______ ____
ROOT
ATOM      1  N   UNL     1      32.954 -23.572 -15.018  0.00  0.00    +0.387 N 
ATOM      2  C   UNL     1      33.748 -22.987 -17.819  0.00  0.00    +0.103 C 
ATOM      3  C   UNL     1      34.747 -23.098 -16.648  0.00  0.00    +0.008 C 
ATOM      4  C   UNL     1      32.349 -22.662 -17.245  0.00  0.00    +0.008 C 
ATOM      5  C   UNL     1      34.256 -24.019 -15.524  0.00  0.00    -0.075 C 
ATOM      6  C   UNL     1      31.945 -23.575 -16.082  0.00  0.00    -0.075 C 
ATOM      7  H   UNL     1      33.056 -22.614 -14.684  0.00  0.00    -0.080 HD
ENDROOT
BRANCH   2   9
ATOM      8 BR   UNL     1      35.307 -18.880 -22.205  0.00  0.00    -0.049 Br
ATOM      9  C   UNL     1      34.132 -21.976 -18.902  0.00  0.00    +0.002 C 
ATOM     10  C   UNL     1      35.474 -21.760 -19.207  0.00  0.00    -0.002 C 
ATOM     11  C   UNL     1      33.137 -21.272 -19.579  0.00  0.00    -0.002 C 
ATOM     12  C   UNL     1      35.825 -20.838 -20.192  0.00  0.00    +0.006 C 
ATOM     13  C   UNL     1      33.488 -20.348 -20.565  0.00  0.00    +0.006 C 
ATOM     14  C   UNL     1      34.832 -20.132 -20.871  0.00  0.00    +0.035 C 
ENDBRANCH   2   9
BRANCH   2  15
ATOM     15  O   UNL     1      33.706 -24.259 -18.483  0.00  0.00    -0.383 OA
ATOM     16  H   UNL     1      32.812 -24.629 -18.418  0.00  0.00    +0.211 HD
ENDBRANCH   2  15
BRANCH   1  17
ATOM     17  C   UNL     1      32.523 -24.411 -13.900  0.00  0.00    -0.077 C 
BRANCH  17  18
ATOM     18  C   UNL     1      33.718 -25.168 -13.315  0.00  0.00    -0.015 C 
BRANCH  18  19
ATOM     19  C   UNL     1      34.495 -24.330 -12.296  0.00  0.00    +0.067 C 
BRANCH  19  21
ATOM     20  O   UNL     1      35.800 -25.506 -10.642  0.00  0.00    -0.291 OA
ATOM     21  C   UNL     1      35.744 -25.023 -11.770  0.00  0.00    +0.173 C 
BRANCH  21  23
ATOM     22  F   UNL     1      40.182 -25.443 -15.131  0.00  0.00    -0.204 F 
ATOM     23  C   UNL     1      36.929 -25.135 -12.668  0.00  0.00    +0.035 C 
ATOM     24  C   UNL     1      37.850 -26.129 -12.425  0.00  0.00    +0.005 C 
ATOM     25  C   UNL     1      37.059 -24.240 -13.706  0.00  0.00    +0.005 C 
ATOM     26  C   UNL     1      38.958 -26.234 -13.265  0.00  0.00    +0.030 C 
ATOM     27  C   UNL     1      38.167 -24.345 -14.546  0.00  0.00    +0.030 C 
ATOM     28  C   UNL     1      39.117 -25.342 -14.326  0.00  0.00    +0.140 C 
ENDBRANCH  21  23
ENDBRANCH  19  21
ENDBRANCH  18  19
ENDBRANCH  17  18
ENDBRANCH   1  17
TORSDOF 7
ENDMDL
MODEL 5
REMARK VINA RESULT:     -10.8      5.140      9.624
REMARK  Name = 2448
REMARK  7 active torsions:
REMARK  status: ('A' for Active; 'I' for Inactive)
REMARK    1  A    between atoms: N_1  and  C_17
REMARK    2  A    between atoms: C_2  and  C_9
REMARK    3  A    between atoms: C_2  and  O_15
REMARK    4  A    between atoms: C_17  and  C_18
REMARK    5  A    between atoms: C_18  and  C_19
REMARK    6  A    between atoms: C_19  and  C_21
REMARK    7  A    between atoms: C_21  and  C_23
REMARK                            x       y       z     vdW  Elec       q    Type
REMARK                         _______ _______ _______ _____ _____    ______ ____
ROOT
ATOM      1  N   UNL     1      33.207 -23.537 -15.161  0.00  0.00    +0.387 N 
ATOM      2  C   UNL     1      33.915 -22.884 -17.970  0.00  0.00    +0.103 C 
ATOM      3  C   UNL     1      34.947 -22.995 -16.827  0.00  0.00    +0.008 C 
ATOM      4  C   UNL     1      32.525 -22.599 -17.355  0.00  0.00    +0.008 C 
ATOM      5  C   UNL     1      34.505 -23.946 -15.709  0.00  0.00    -0.075 C 
ATOM      6  C   UNL     1      32.171 -23.541 -16.198  0.00  0.00    -0.075 C 
ATOM      7  H   UNL     1      33.298 -22.583 -14.812  0.00  0.00    -0.080 HD
ENDROOT
BRANCH   2   9
ATOM      8 BR   UNL     1      35.274 -18.666 -22.318  0.00  0.00    -0.049 Br
ATOM      9  C   UNL     1      34.250 -21.846 -19.043  0.00  0.00    +0.002 C 
ATOM     10  C   UNL     1      35.580 -21.568 -19.352  0.00  0.00    -0.002 C 
ATOM     11  C   UNL     1      33.222 -21.178 -19.709  0.00  0.00    -0.002 C 
ATOM     12  C   UNL     1      35.886 -20.621 -20.328  0.00  0.00    +0.006 C 
ATOM     13  C   UNL     1      33.528 -20.229 -20.686  0.00  0.00    +0.006 C 
ATOM     14  C   UNL     1      34.860 -19.951 -20.995  0.00  0.00    +0.035 C 
ENDBRANCH   2   9
BRANCH   2  15
ATOM     15  O   UNL     1      33.883 -24.144 -18.657  0.00  0.00    -0.383 OA
ATOM     16  H   UNL     1      34.400 -24.797 -18.159  0.00  0.00    +0.211 HD
ENDBRANCH   2  15
BRANCH   1  17
ATOM     17  C   UNL     1      32.823 -24.405 -14.048  0.00  0.00    -0.077 C 
BRANCH  17  18
ATOM     18  C   UNL     1      31.748 -23.730 -13.195  0.00  0.00    -0.015 C 
BRANCH  18  19
ATOM     19  C   UNL     1      30.548 -24.646 -12.939  0.00  0.00    +0.067 C 
BRANCH  19  21
ATOM     20  O   UNL     1      30.147 -26.401 -14.546  0.00  0.00    -0.291 OA
ATOM     21  C   UNL     1      29.955 -25.234 -14.212  0.00  0.00    +0.173 C 
BRANCH  21  23
ATOM     22  F   UNL     1      26.736 -21.984 -17.411  0.00  0.00    -0.204 F 
ATOM     23  C   UNL     1      29.096 -24.366 -15.066  0.00  0.00    +0.035 C 
ATOM     24  C   UNL     1      28.871 -23.066 -14.673  0.00  0.00    +0.005 C 
ATOM     25  C   UNL     1      28.557 -24.897 -16.217  0.00  0.00    +0.005 C 
ATOM     26  C   UNL     1      28.067 -22.254 -15.472  0.00  0.00    +0.030 C 
ATOM     27  C   UNL     1      27.754 -24.086 -17.016  0.00  0.00    +0.030 C 
ATOM     28  C   UNL     1      27.508 -22.764 -16.645  0.00  0.00    +0.140 C 
ENDBRANCH  21  23
ENDBRANCH  19  21
ENDBRANCH  18  19
ENDBRANCH  17  18
ENDBRANCH   1  17
TORSDOF 7
ENDMDL
MODEL 6
REMARK VINA RESULT:     -10.8      1.547      2.201
REMARK  Name = 2448
REMARK  7 active torsions:
REMARK  status: ('A' for Active; 'I' for Inactive)
REMARK    1  A    between atoms: N_1  and  C_17
REMARK    2  A    between atoms: C_2  and  C_9
REMARK    3  A    between atoms: C_2  and  O_15
REMARK    4  A    between atoms: C_17  and  C_18
REMARK    5  A    between atoms: C_18  and  C_19
REMARK    6  A    between atoms: C_19  and  C_21
REMARK    7  A    between atoms: C_21  and  C_23
REMARK                            x       y       z     vdW  Elec       q    Type
REMARK                         _______ _______ _______ _____ _____    ______ ____
ROOT
ATOM      1  N   UNL     1      35.119 -20.313 -19.995  0.00  0.00    +0.387 N 
ATOM      2  C   UNL     1      33.869 -22.536 -18.472  0.00  0.00    +0.103 C 
ATOM      3  C   UNL     1      33.070 -21.395 -19.141  0.00  0.00    +0.008 C 
ATOM      4  C   UNL     1      35.317 -22.050 -18.235  0.00  0.00    +0.008 C 
ATOM      5  C   UNL     1      33.782 -20.797 -20.359  0.00  0.00    -0.075 C 
ATOM      6  C   UNL     1      35.950 -21.403 -19.472  0.00  0.00    -0.075 C 
ATOM      7  H   UNL     1      35.013 -19.617 -19.259  0.00  0.00    -0.080 HD
ENDROOT
BRANCH   2   9
ATOM      8 BR   UNL     1      31.410 -24.723 -13.209  0.00  0.00    -0.049 Br
ATOM      9  C   UNL     1      33.263 -23.073 -17.174  0.00  0.00    +0.002 C 
ATOM     10  C   UNL     1      34.090 -23.614 -16.192  0.00  0.00    -0.002 C 
ATOM     11  C   UNL     1      31.883 -23.022 -16.977  0.00  0.00    -0.002 C 
ATOM     12  C   UNL     1      33.538 -24.106 -15.009  0.00  0.00    +0.006 C 
ATOM     13  C   UNL     1      31.330 -23.514 -15.794  0.00  0.00    +0.006 C 
ATOM     14  C   UNL     1      32.159 -24.055 -14.811  0.00  0.00    +0.035 C 
ENDBRANCH   2   9
BRANCH   2  15
ATOM     15  O   UNL     1      33.882 -23.650 -19.377  0.00  0.00    -0.383 OA
ATOM     16  H   UNL     1      33.437 -24.407 -18.963  0.00  0.00    +0.211 HD
ENDBRANCH   2  15
BRANCH   1  17
ATOM     17  C   UNL     1      35.765 -19.681 -21.145  0.00  0.00    -0.077 C 
BRANCH  17  18
ATOM     18  C   UNL     1      34.880 -18.565 -21.703  0.00  0.00    -0.015 C 
BRANCH  18  19
ATOM     19  C   UNL     1      35.272 -17.187 -21.163  0.00  0.00    +0.067 C 
BRANCH  19  21
ATOM     20  O   UNL     1      35.581 -15.970 -23.224  0.00  0.00    -0.291 OA
ATOM     21  C   UNL     1      35.002 -16.054 -22.144  0.00  0.00    +0.173 C 
BRANCH  21  23
ATOM     22  F   UNL     1      31.183 -12.210 -20.801  0.00  0.00    -0.204 F 
ATOM     23  C   UNL     1      33.982 -15.028 -21.786  0.00  0.00    +0.035 C 
ATOM     24  C   UNL     1      33.452 -14.245 -22.786  0.00  0.00    +0.005 C 
ATOM     25  C   UNL     1      33.608 -14.900 -20.466  0.00  0.00    +0.005 C 
ATOM     26  C   UNL     1      32.498 -13.285 -22.451  0.00  0.00    +0.030 C 
ATOM     27  C   UNL     1      32.654 -13.941 -20.131  0.00  0.00    +0.030 C 
ATOM     28  C   UNL     1      32.098 -13.133 -21.123  0.00  0.00    +0.140 C 
ENDBRANCH  21  23
ENDBRANCH  19  21
ENDBRANCH  18  19
ENDBRANCH  17  18
ENDBRANCH   1  17
TORSDOF 7
ENDMDL
MODEL 7
REMARK VINA RESULT:     -10.8      1.140      1.901
REMARK  Name = 2448
REMARK  7 active torsions:
REMARK  status: ('A' for Active; 'I' for Inactive)
REMARK    1  A    between atoms: N_1  and  C_17
REMARK    2  A    between atoms: C_2  and  C_9
REMARK    3  A    between atoms: C_2  and  O_15
REMARK    4  A    between atoms: C_17  and  C_18
REMARK    5  A    between atoms: C_18  and  C_19
REMARK    6  A    between atoms: C_19  and  C_21
REMARK    7  A    between atoms: C_21  and  C_23
REMARK                            x       y       z     vdW  Elec       q    Type
REMARK                         _______ _______ _______ _____ _____    ______ ____
ROOT
ATOM      1  N   UNL     1      34.054 -20.348 -20.412  0.00  0.00    +0.387 N 
ATOM      2  C   UNL     1      34.162 -22.553 -18.426  0.00  0.00    +0.103 C 
ATOM      3  C   UNL     1      32.911 -21.684 -18.678  0.00  0.00    +0.008 C 
ATOM      4  C   UNL     1      35.410 -21.772 -18.898  0.00  0.00    +0.008 C 
ATOM      5  C   UNL     1      32.847 -21.122 -20.103  0.00  0.00    -0.075 C 
ATOM      6  C   UNL     1      35.256 -21.180 -20.305  0.00  0.00    -0.075 C 
ATOM      7  H   UNL     1      34.130 -19.595 -19.728  0.00  0.00    -0.080 HD
ENDROOT
BRANCH   2   9
ATOM      8 BR   UNL     1      34.885 -24.474 -12.567  0.00  0.00    -0.049 Br
ATOM      9  C   UNL     1      34.339 -23.025 -16.981  0.00  0.00    +0.002 C 
ATOM     10  C   UNL     1      35.578 -22.901 -16.356  0.00  0.00    -0.002 C 
ATOM     11  C   UNL     1      33.261 -23.580 -16.293  0.00  0.00    -0.002 C 
ATOM     12  C   UNL     1      35.742 -23.332 -15.040  0.00  0.00    +0.006 C 
ATOM     13  C   UNL     1      33.423 -24.012 -14.976  0.00  0.00    +0.006 C 
ATOM     14  C   UNL     1      34.664 -23.888 -14.350  0.00  0.00    +0.035 C 
ENDBRANCH   2   9
BRANCH   2  15
ATOM     15  O   UNL     1      34.027 -23.752 -19.203  0.00  0.00    -0.383 OA
ATOM     16  H   UNL     1      34.110 -23.537 -20.146  0.00  0.00    +0.211 HD
ENDBRANCH   2  15
BRANCH   1  17
ATOM     17  C   UNL     1      33.956 -19.757 -21.746  0.00  0.00    -0.077 C 
BRANCH  17  18
ATOM     18  C   UNL     1      35.345 -19.371 -22.258  0.00  0.00    -0.015 C 
BRANCH  18  19
ATOM     19  C   UNL     1      35.481 -17.863 -22.490  0.00  0.00    +0.067 C 
BRANCH  19  21
ATOM     20  O   UNL     1      34.498 -18.120 -24.679  0.00  0.00    -0.291 OA
ATOM     21  C   UNL     1      34.755 -17.376 -23.736  0.00  0.00    +0.173 C 
BRANCH  21  23
ATOM     22  F   UNL     1      33.145 -12.035 -23.973  0.00  0.00    -0.204 F 
ATOM     23  C   UNL     1      34.325 -15.950 -23.799  0.00  0.00    +0.035 C 
ATOM     24  C   UNL     1      33.617 -15.521 -24.900  0.00  0.00    +0.005 C 
ATOM     25  C   UNL     1      34.652 -15.114 -22.755  0.00  0.00    +0.005 C 
ATOM     26  C   UNL     1      33.215 -14.188 -24.959  0.00  0.00    +0.030 C 
ATOM     27  C   UNL     1      34.249 -13.781 -22.814  0.00  0.00    +0.030 C 
ATOM     28  C   UNL     1      33.531 -13.316 -23.916  0.00  0.00    +0.140 C 
ENDBRANCH  21  23
ENDBRANCH  19  21
ENDBRANCH  18  19
ENDBRANCH  17  18
ENDBRANCH   1  17
TORSDOF 7
ENDMDL
MODEL 8
REMARK VINA RESULT:     -10.7      5.624     10.713
REMARK  Name = 2448
REMARK  7 active torsions:
REMARK  status: ('A' for Active; 'I' for Inactive)
REMARK    1  A    between atoms: N_1  and  C_17
REMARK    2  A    between atoms: C_2  and  C_9
REMARK    3  A    between atoms: C_2  and  O_15
REMARK    4  A    between atoms: C_17  and  C_18
REMARK    5  A    between atoms: C_18  and  C_19
REMARK    6  A    between atoms: C_19  and  C_21
REMARK    7  A    between atoms: C_21  and  C_23
REMARK                            x       y       z     vdW  Elec       q    Type
REMARK                         _______ _______ _______ _____ _____    ______ ____
ROOT
ATOM      1  N   UNL     1      34.245 -14.714 -20.824  0.00  0.00    +0.387 N 
ATOM      2  C   UNL     1      32.543 -12.555 -21.948  0.00  0.00    +0.103 C 
ATOM      3  C   UNL     1      33.892 -12.993 -22.560  0.00  0.00    +0.008 C 
ATOM      4  C   UNL     1      32.519 -12.970 -20.459  0.00  0.00    +0.008 C 
ATOM      5  C   UNL     1      34.235 -14.458 -22.269  0.00  0.00    -0.075 C 
ATOM      6  C   UNL     1      32.936 -14.427 -20.229  0.00  0.00    -0.075 C 
ATOM      7  H   UNL     1      34.928 -14.088 -20.398  0.00  0.00    -0.080 HD
ENDROOT
BRANCH   2   9
ATOM      8 BR   UNL     1      31.225  -6.519 -22.551  0.00  0.00    -0.049 Br
ATOM      9  C   UNL     1      32.220 -11.067 -22.097  0.00  0.00    +0.002 C 
ATOM     10  C   UNL     1      31.825 -10.326 -20.985  0.00  0.00    -0.002 C 
ATOM     11  C   UNL     1      32.320 -10.455 -23.346  0.00  0.00    -0.002 C 
ATOM     12  C   UNL     1      31.529  -8.970 -21.119  0.00  0.00    +0.006 C 
ATOM     13  C   UNL     1      32.023  -9.098 -23.481  0.00  0.00    +0.006 C 
ATOM     14  C   UNL     1      31.628  -8.356 -22.367  0.00  0.00    +0.035 C 
ENDBRANCH   2   9
BRANCH   2  15
ATOM     15  O   UNL     1      31.498 -13.243 -22.652  0.00  0.00    -0.383 OA
ATOM     16  H   UNL     1      30.636 -12.949 -22.318  0.00  0.00    +0.211 HD
ENDBRANCH   2  15
BRANCH   1  17
ATOM     17  C   UNL     1      34.642 -16.094 -20.551  0.00  0.00    -0.077 C 
BRANCH  17  18
ATOM     18  C   UNL     1      35.238 -16.733 -21.807  0.00  0.00    -0.015 C 
BRANCH  18  19
ATOM     19  C   UNL     1      35.844 -18.111 -21.527  0.00  0.00    +0.067 C 
BRANCH  19  21
ATOM     20  O   UNL     1      34.251 -19.387 -22.815  0.00  0.00    -0.291 OA
ATOM     21  C   UNL     1      34.871 -19.258 -21.762  0.00  0.00    +0.173 C 
BRANCH  21  23
ATOM     22  F   UNL     1      34.175 -23.044 -17.718  0.00  0.00    -0.204 F 
ATOM     23  C   UNL     1      34.685 -20.269 -20.682  0.00  0.00    +0.035 C 
ATOM     24  C   UNL     1      35.800 -20.859 -20.130  0.00  0.00    +0.005 C 
ATOM     25  C   UNL     1      33.405 -20.576 -20.277  0.00  0.00    +0.005 C 
ATOM     26  C   UNL     1      35.626 -21.804 -19.120  0.00  0.00    +0.030 C 
ATOM     27  C   UNL     1      33.231 -21.521 -19.267  0.00  0.00    +0.030 C 
ATOM     28  C   UNL     1      34.341 -22.136 -18.687  0.00  0.00    +0.140 C 
ENDBRANCH  21  23
ENDBRANCH  19  21
ENDBRANCH  18  19
ENDBRANCH  17  18
ENDBRANCH   1  17
TORSDOF 7
ENDMDL
MODEL 9
REMARK VINA RESULT:     -10.7      4.730      9.939
REMARK  Name = 2448
REMARK  7 active torsions:
REMARK  status: ('A' for Active; 'I' for Inactive)
REMARK    1  A    between atoms: N_1  and  C_17
REMARK    2  A    between atoms: C_2  and  C_9
REMARK    3  A    between atoms: C_2  and  O_15
REMARK    4  A    between atoms: C_17  and  C_18
REMARK    5  A    between atoms: C_18  and  C_19
REMARK    6  A    between atoms: C_19  and  C_21
REMARK    7  A    between atoms: C_21  and  C_23
REMARK                            x       y       z     vdW  Elec       q    Type
REMARK                         _______ _______ _______ _____ _____    ______ ____
ROOT
ATOM      1  N   UNL     1      35.927 -20.391 -19.668  0.00  0.00    +0.387 N 
ATOM      2  C   UNL     1      35.381 -18.700 -22.049  0.00  0.00    +0.103 C 
ATOM      3  C   UNL     1      36.695 -18.647 -21.240  0.00  0.00    +0.008 C 
ATOM      4  C   UNL     1      34.269 -19.285 -21.147  0.00  0.00    +0.008 C 
ATOM      5  C   UNL     1      37.027 -19.973 -20.545  0.00  0.00    -0.075 C 
ATOM      6  C   UNL     1      34.687 -20.574 -20.429  0.00  0.00    -0.075 C 
ATOM      7  H   UNL     1      35.770 -19.651 -18.984  0.00  0.00    -0.080 HD
ENDROOT
BRANCH   2   9
ATOM      8 BR   UNL     1      33.591 -13.279 -24.487  0.00  0.00    -0.049 Br
ATOM      9  C   UNL     1      34.938 -17.365 -22.649  0.00  0.00    +0.002 C 
ATOM     10  C   UNL     1      34.625 -17.280 -24.004  0.00  0.00    -0.002 C 
ATOM     11  C   UNL     1      34.850 -16.233 -21.839  0.00  0.00    -0.002 C 
ATOM     12  C   UNL     1      34.223 -16.063 -24.553  0.00  0.00    +0.006 C 
ATOM     13  C   UNL     1      34.448 -15.015 -22.387  0.00  0.00    +0.006 C 
ATOM     14  C   UNL     1      34.134 -14.930 -23.744  0.00  0.00    +0.035 C 
ENDBRANCH   2   9
BRANCH   2  15
ATOM     15  O   UNL     1      35.591 -19.571 -23.170  0.00  0.00    -0.383 OA
ATOM     16  H   UNL     1      36.470 -19.976 -23.105  0.00  0.00    +0.211 HD
ENDBRANCH   2  15
BRANCH   1  17
ATOM     17  C   UNL     1      36.278 -21.618 -18.955  0.00  0.00    -0.077 C 
BRANCH  17  18
ATOM     18  C   UNL     1      35.097 -22.591 -18.962  0.00  0.00    -0.015 C 
BRANCH  18  19
ATOM     19  C   UNL     1      34.581 -22.889 -17.551  0.00  0.00    +0.067 C 
BRANCH  19  21
ATOM     20  O   UNL     1      32.350 -22.477 -18.375  0.00  0.00    -0.291 OA
ATOM     21  C   UNL     1      33.064 -22.826 -17.437  0.00  0.00    +0.173 C 
BRANCH  21  23
ATOM     22  F   UNL     1      30.683 -24.312 -12.611  0.00  0.00    -0.204 F 
ATOM     23  C   UNL     1      32.429 -23.222 -16.149  0.00  0.00    +0.035 C 
ATOM     24  C   UNL     1      33.239 -23.531 -15.079  0.00  0.00    +0.005 C 
ATOM     25  C   UNL     1      31.054 -23.265 -16.076  0.00  0.00    +0.005 C 
ATOM     26  C   UNL     1      32.644 -23.902 -13.874  0.00  0.00    +0.030 C 
ATOM     27  C   UNL     1      30.459 -23.636 -14.870  0.00  0.00    +0.030 C 
ATOM     28  C   UNL     1      31.254 -23.955 -13.769  0.00  0.00    +0.140 C 
ENDBRANCH  21  23
ENDBRANCH  19  21
ENDBRANCH  18  19
ENDBRANCH  17  18
ENDBRANCH   1  17
TORSDOF 7
ENDMDL
