MODEL 1
REMARK VINA RESULT:     -12.3      0.000      0.000
REMARK  Name = 44123754
REMARK  11 active torsions:
REMARK  status: ('A' for Active; 'I' for Inactive)
REMARK    1  A    between atoms: C_3  and  C_22
REMARK    2  A    between atoms: C_4  and  C_7
REMARK    3  A    between atoms: N_6  and  C_15
REMARK    4  A    between atoms: C_8  and  N_12
REMARK    5  A    between atoms: C_15  and  O_16
REMARK    6  A    between atoms: O_16  and  P_17
REMARK    7  A    between atoms: P_17  and  O_20
REMARK    8  A    between atoms: C_22  and  C_23
REMARK    9  A    between atoms: C_26  and  C_29
REMARK   10  A    between atoms: C_29  and  O_30
REMARK   11  A    between atoms: O_30  and  C_32
REMARK                            x       y       z     vdW  Elec       q    Type
REMARK                         _______ _______ _______ _____ _____    ______ ____
ROOT
ATOM      1  O   UNL     1      34.776 -15.785 -20.615  0.00  0.00    -0.354 OA
ATOM      2  N   UNL     1      35.302 -17.056 -20.417  0.00  0.00    -0.081 NA
ATOM      3  C   UNL     1      35.315 -17.619 -21.628  0.00  0.00    +0.105 C 
ATOM      4  C   UNL     1      34.489 -15.620 -21.932  0.00  0.00    +0.175 C 
ATOM      5  C   UNL     1      34.813 -16.758 -22.621  0.00  0.00    +0.058 C 
ENDROOT
BRANCH   4   7
ATOM      6  N   UNL     1      32.437 -12.545 -21.923  0.00  0.00    -0.266 N 
ATOM      7  C   UNL     1      33.931 -14.338 -22.294  0.00  0.00    +0.048 C 
ATOM      8  C   UNL     1      32.925 -13.737 -21.551  0.00  0.00    +0.156 C 
ATOM      9  C   UNL     1      34.414 -13.682 -23.422  0.00  0.00    +0.003 C 
ATOM     10  C   UNL     1      32.884 -11.892 -23.004  0.00  0.00    +0.064 C 
ATOM     11  C   UNL     1      33.888 -12.445 -23.785  0.00  0.00    +0.016 C 
BRANCH   8  12
ATOM     12  N   UNL     1      32.407 -14.369 -20.400  0.00  0.00    -0.303 NA
ATOM     13  H   UNL     1      32.097 -15.302 -20.448  0.00  0.00    +0.121 HD
ATOM     14  H   UNL     1      32.357 -13.876 -19.550  0.00  0.00    +0.121 HD
ENDBRANCH   8  12
BRANCH   6  15
ATOM     15  C   UNL     1      31.375 -11.911 -21.137  0.00  0.00    +0.251 C 
BRANCH  15  16
ATOM     16  O   UNL     1      31.929 -11.456 -19.910  0.00  0.00    -0.250 OA
BRANCH  16  17
ATOM     17  P   UNL     1      31.654  -9.918 -19.431  0.00  0.00    +0.504 P 
ATOM     18  O   UNL     1      30.446  -9.873 -18.521  0.00  0.00    -0.225 OA
ATOM     19  O   UNL     1      31.734  -9.017 -20.644  0.00  0.00    -0.116 OA
BRANCH  17  20
ATOM     20  O   UNL     1      32.994  -9.674 -18.530  0.00  0.00    -0.301 OA
ATOM     21  H   UNL     1      32.896 -10.125 -17.677  0.00  0.00    +0.222 HD
ENDBRANCH  17  20
ENDBRANCH  16  17
ENDBRANCH  15  16
ENDBRANCH   6  15
ENDBRANCH   4   7
BRANCH   3  22
ATOM     22  C   UNL     1      35.818 -18.992 -21.796  0.00  0.00    +0.075 C 
BRANCH  22  23
ATOM     23  C   UNL     1      35.231 -20.005 -20.822  0.00  0.00    -0.016 C 
ATOM     24  C   UNL     1      36.077 -20.782 -20.030  0.00  0.00    -0.004 C 
ATOM     25  C   UNL     1      33.848 -20.157 -20.721  0.00  0.00    -0.004 C 
ATOM     26  C   UNL     1      34.157 -21.861 -19.037  0.00  0.00    +0.021 C 
ATOM     27  C   UNL     1      35.540 -21.710 -19.138  0.00  0.00    -0.001 C 
ATOM     28  C   UNL     1      33.311 -21.085 -19.829  0.00  0.00    -0.001 C 
BRANCH  26  29
ATOM     29  C   UNL     1      33.583 -22.852 -18.082  0.00  0.00    +0.234 C 
BRANCH  29  30
ATOM     30  O   UNL     1      32.184 -22.630 -17.954  0.00  0.00    -0.455 OA
BRANCH  30  32
ATOM     31  N   UNL     1      30.284 -22.747 -16.627  0.00  0.00    -0.210 NA
ATOM     32  C   UNL     1      31.617 -22.943 -16.747  0.00  0.00    +0.225 C 
ATOM     33  C   UNL     1      32.423 -23.436 -15.734  0.00  0.00    +0.058 C 
ATOM     34  C   UNL     1      31.823 -23.748 -14.519  0.00  0.00    +0.006 C 
ATOM     35  C   UNL     1      29.736 -23.063 -15.432  0.00  0.00    +0.102 C 
ATOM     36  C   UNL     1      30.455 -23.561 -14.357  0.00  0.00    +0.021 C 
ENDBRANCH  30  32
ENDBRANCH  29  30
ENDBRANCH  26  29
ENDBRANCH  22  23
ENDBRANCH   3  22
TORSDOF 11
ENDMDL
MODEL 2
REMARK VINA RESULT:     -12.1      1.306      1.988
REMARK  Name = 44123754
REMARK  11 active torsions:
REMARK  status: ('A' for Active; 'I' for Inactive)
REMARK    1  A    between atoms: C_3  and  C_22
REMARK    2  A    between atoms: C_4  and  C_7
REMARK    3  A    between atoms: N_6  and  C_15
REMARK    4  A    between atoms: C_8  and  N_12
REMARK    5  A    between atoms: C_15  and  O_16
REMARK    6  A    between atoms: O_16  and  P_17
REMARK    7  A    between atoms: P_17  and  O_20
REMARK    8  A    between atoms: C_22  and  C_23
REMARK    9  A    between atoms: C_26  and  C_29
REMARK   10  A    between atoms: C_29  and  O_30
REMARK   11  A    between atoms: O_30  and  C_32
REMARK                            x       y       z     vdW  Elec       q    Type
REMARK                         _______ _______ _______ _____ _____    ______ ____
ROOT
ATOM      1  O   UNL     1      34.807 -16.375 -21.247  0.00  0.00    -0.354 OA
ATOM      2  N   UNL     1      35.371 -17.464 -20.592  0.00  0.00    -0.081 NA
ATOM      3  C   UNL     1      35.769 -18.285 -21.568  0.00  0.00    +0.105 C 
ATOM      4  C   UNL     1      34.881 -16.571 -22.588  0.00  0.00    +0.175 C 
ATOM      5  C   UNL     1      35.485 -17.772 -22.846  0.00  0.00    +0.058 C 
ENDROOT
BRANCH   4   7
ATOM      6  N   UNL     1      33.575 -13.294 -23.695  0.00  0.00    -0.266 N 
ATOM      7  C   UNL     1      34.331 -15.514 -23.406  0.00  0.00    +0.048 C 
ATOM      8  C   UNL     1      34.086 -14.245 -22.901  0.00  0.00    +0.156 C 
ATOM      9  C   UNL     1      34.036 -15.773 -24.740  0.00  0.00    +0.003 C 
ATOM     10  C   UNL     1      33.282 -13.516 -24.983  0.00  0.00    +0.064 C 
ATOM     11  C   UNL     1      33.505 -14.766 -25.541  0.00  0.00    +0.016 C 
BRANCH   8  12
ATOM     12  N   UNL     1      34.371 -13.942 -21.552  0.00  0.00    -0.303 NA
ATOM     13  H   UNL     1      34.167 -14.597 -20.846  0.00  0.00    +0.121 HD
ATOM     14  H   UNL     1      34.775 -13.075 -21.318  0.00  0.00    +0.121 HD
ENDBRANCH   8  12
BRANCH   6  15
ATOM     15  C   UNL     1      33.317 -11.954 -23.161  0.00  0.00    +0.251 C 
BRANCH  15  16
ATOM     16  O   UNL     1      31.987 -11.912 -22.663  0.00  0.00    -0.250 OA
BRANCH  16  17
ATOM     17  P   UNL     1      31.712 -11.317 -21.167  0.00  0.00    +0.504 P 
ATOM     18  O   UNL     1      32.048  -9.841 -21.133  0.00  0.00    -0.225 OA
ATOM     19  O   UNL     1      32.317 -12.265 -20.155  0.00  0.00    -0.116 OA
BRANCH  17  20
ATOM     20  O   UNL     1      30.088 -11.481 -21.108  0.00  0.00    -0.301 OA
ATOM     21  H   UNL     1      29.851 -12.410 -21.258  0.00  0.00    +0.222 HD
ENDBRANCH  17  20
ENDBRANCH  16  17
ENDBRANCH  15  16
ENDBRANCH   6  15
ENDBRANCH   4   7
BRANCH   3  22
ATOM     22  C   UNL     1      36.422 -19.561 -21.233  0.00  0.00    +0.075 C 
BRANCH  22  23
ATOM     23  C   UNL     1      35.594 -20.484 -20.348  0.00  0.00    -0.016 C 
ATOM     24  C   UNL     1      34.203 -20.491 -20.456  0.00  0.00    -0.004 C 
ATOM     25  C   UNL     1      36.227 -21.323 -19.430  0.00  0.00    -0.004 C 
ATOM     26  C   UNL     1      34.078 -22.174 -18.728  0.00  0.00    +0.021 C 
ATOM     27  C   UNL     1      33.445 -21.336 -19.646  0.00  0.00    -0.001 C 
ATOM     28  C   UNL     1      35.468 -22.167 -18.620  0.00  0.00    -0.001 C 
BRANCH  26  29
ATOM     29  C   UNL     1      33.267 -23.079 -17.864  0.00  0.00    +0.234 C 
BRANCH  29  30
ATOM     30  O   UNL     1      31.975 -22.517 -17.671  0.00  0.00    -0.455 OA
BRANCH  30  32
ATOM     31  N   UNL     1      29.937 -22.823 -16.605  0.00  0.00    -0.210 NA
ATOM     32  C   UNL     1      31.285 -22.922 -16.559  0.00  0.00    +0.225 C 
ATOM     33  C   UNL     1      31.991 -23.404 -15.469  0.00  0.00    +0.058 C 
ATOM     34  C   UNL     1      31.267 -23.810 -14.353  0.00  0.00    +0.006 C 
ATOM     35  C   UNL     1      29.267 -23.228 -15.502  0.00  0.00    +0.102 C 
ATOM     36  C   UNL     1      29.879 -23.724 -14.362  0.00  0.00    +0.021 C 
ENDBRANCH  30  32
ENDBRANCH  29  30
ENDBRANCH  26  29
ENDBRANCH  22  23
ENDBRANCH   3  22
TORSDOF 11
ENDMDL
MODEL 3
REMARK VINA RESULT:     -12.1      5.708     12.357
REMARK  Name = 44123754
REMARK  11 active torsions:
REMARK  status: ('A' for Active; 'I' for Inactive)
REMARK    1  A    between atoms: C_3  and  C_22
REMARK    2  A    between atoms: C_4  and  C_7
REMARK    3  A    between atoms: N_6  and  C_15
REMARK    4  A    between atoms: C_8  and  N_12
REMARK    5  A    between atoms: C_15  and  O_16
REMARK    6  A    between atoms: O_16  and  P_17
REMARK    7  A    between atoms: P_17  and  O_20
REMARK    8  A    between atoms: C_22  and  C_23
REMARK    9  A    between atoms: C_26  and  C_29
REMARK   10  A    between atoms: C_29  and  O_30
REMARK   11  A    between atoms: O_30  and  C_32
REMARK                            x       y       z     vdW  Elec       q    Type
REMARK                         _______ _______ _______ _____ _____    ______ ____
ROOT
ATOM      1  O   UNL     1      34.537 -25.082 -16.087  0.00  0.00    -0.354 OA
ATOM      2  N   UNL     1      33.850 -24.662 -17.220  0.00  0.00    -0.081 NA
ATOM      3  C   UNL     1      33.437 -23.425 -16.935  0.00  0.00    +0.105 C 
ATOM      4  C   UNL     1      34.517 -24.092 -15.158  0.00  0.00    +0.175 C 
ATOM      5  C   UNL     1      33.828 -23.014 -15.648  0.00  0.00    +0.058 C 
ENDROOT
BRANCH   4   7
ATOM      6  N   UNL     1      37.165 -24.793 -12.676  0.00  0.00    -0.266 N 
ATOM      7  C   UNL     1      35.196 -24.385 -13.917  0.00  0.00    +0.048 C 
ATOM      8  C   UNL     1      36.575 -24.522 -13.848  0.00  0.00    +0.156 C 
ATOM      9  C   UNL     1      34.449 -24.535 -12.754  0.00  0.00    +0.003 C 
ATOM     10  C   UNL     1      36.469 -24.942 -11.541  0.00  0.00    +0.064 C 
ATOM     11  C   UNL     1      35.088 -24.817 -11.550  0.00  0.00    +0.016 C 
BRANCH   8  12
ATOM     12  N   UNL     1      37.370 -24.377 -15.006  0.00  0.00    -0.303 NA
ATOM     13  H   UNL     1      37.816 -23.519 -15.193  0.00  0.00    +0.121 HD
ATOM     14  H   UNL     1      37.478 -25.133 -15.626  0.00  0.00    +0.121 HD
ENDBRANCH   8  12
BRANCH   6  15
ATOM     15  C   UNL     1      38.621 -24.937 -12.604  0.00  0.00    +0.251 C 
BRANCH  15  16
ATOM     16  O   UNL     1      39.013 -26.013 -13.444  0.00  0.00    -0.250 OA
BRANCH  16  17
ATOM     17  P   UNL     1      40.487 -25.982 -14.148  0.00  0.00    +0.504 P 
ATOM     18  O   UNL     1      41.268 -27.218 -13.755  0.00  0.00    -0.225 OA
ATOM     19  O   UNL     1      41.082 -24.605 -13.953  0.00  0.00    -0.116 OA
BRANCH  17  20
ATOM     20  O   UNL     1      40.040 -26.125 -15.712  0.00  0.00    -0.301 OA
ATOM     21  H   UNL     1      40.001 -25.245 -16.119  0.00  0.00    +0.222 HD
ENDBRANCH  17  20
ENDBRANCH  16  17
ENDBRANCH  15  16
ENDBRANCH   6  15
ENDBRANCH   4   7
BRANCH   3  22
ATOM     22  C   UNL     1      32.662 -22.662 -17.927  0.00  0.00    +0.075 C 
BRANCH  22  23
ATOM     23  C   UNL     1      33.504 -21.811 -18.870  0.00  0.00    -0.016 C 
ATOM     24  C   UNL     1      34.894 -21.928 -18.862  0.00  0.00    -0.004 C 
ATOM     25  C   UNL     1      32.884 -20.915 -19.743  0.00  0.00    -0.004 C 
ATOM     26  C   UNL     1      35.045 -20.254 -20.597  0.00  0.00    +0.021 C 
ATOM     27  C   UNL     1      35.664 -21.149 -19.725  0.00  0.00    -0.001 C 
ATOM     28  C   UNL     1      33.655 -20.137 -20.606  0.00  0.00    -0.001 C 
BRANCH  26  29
ATOM     29  C   UNL     1      35.869 -19.424 -21.522  0.00  0.00    +0.234 C 
BRANCH  29  30
ATOM     30  O   UNL     1      35.719 -18.050 -21.184  0.00  0.00    -0.455 OA
BRANCH  30  32
ATOM     31  N   UNL     1      34.945 -15.950 -21.797  0.00  0.00    -0.210 NA
ATOM     32  C   UNL     1      35.207 -17.228 -22.154  0.00  0.00    +0.225 C 
ATOM     33  C   UNL     1      34.992 -17.740 -23.423  0.00  0.00    +0.058 C 
ATOM     34  C   UNL     1      34.473 -16.885 -24.390  0.00  0.00    +0.006 C 
ATOM     35  C   UNL     1      34.442 -15.149 -22.764  0.00  0.00    +0.102 C 
ATOM     36  C   UNL     1      34.191 -15.564 -24.062  0.00  0.00    +0.021 C 
ENDBRANCH  30  32
ENDBRANCH  29  30
ENDBRANCH  26  29
ENDBRANCH  22  23
ENDBRANCH   3  22
TORSDOF 11
ENDMDL
MODEL 4
REMARK VINA RESULT:     -12.0      4.094     10.609
REMARK  Name = 44123754
REMARK  11 active torsions:
REMARK  status: ('A' for Active; 'I' for Inactive)
REMARK    1  A    between atoms: C_3  and  C_22
REMARK    2  A    between atoms: C_4  and  C_7
REMARK    3  A    between atoms: N_6  and  C_15
REMARK    4  A    between atoms: C_8  and  N_12
REMARK    5  A    between atoms: C_15  and  O_16
REMARK    6  A    between atoms: O_16  and  P_17
REMARK    7  A    between atoms: P_17  and  O_20
REMARK    8  A    between atoms: C_22  and  C_23
REMARK    9  A    between atoms: C_26  and  C_29
REMARK   10  A    between atoms: C_29  and  O_30
REMARK   11  A    between atoms: O_30  and  C_32
REMARK                            x       y       z     vdW  Elec       q    Type
REMARK                         _______ _______ _______ _____ _____    ______ ____
ROOT
ATOM      1  O   UNL     1      33.823 -23.537 -18.030  0.00  0.00    -0.354 OA
ATOM      2  N   UNL     1      34.668 -23.022 -19.006  0.00  0.00    -0.081 NA
ATOM      3  C   UNL     1      35.604 -22.349 -18.332  0.00  0.00    +0.105 C 
ATOM      4  C   UNL     1      34.272 -23.162 -16.804  0.00  0.00    +0.175 C 
ATOM      5  C   UNL     1      35.404 -22.403 -16.941  0.00  0.00    +0.058 C 
ENDROOT
BRANCH   4   7
ATOM      6  N   UNL     1      31.435 -23.859 -14.540  0.00  0.00    -0.266 N 
ATOM      7  C   UNL     1      33.491 -23.626 -15.682  0.00  0.00    +0.048 C 
ATOM      8  C   UNL     1      32.123 -23.410 -15.599  0.00  0.00    +0.156 C 
ATOM      9  C   UNL     1      34.124 -24.312 -14.651  0.00  0.00    +0.003 C 
ATOM     10  C   UNL     1      32.020 -24.522 -13.534  0.00  0.00    +0.064 C 
ATOM     11  C   UNL     1      33.385 -24.767 -13.563  0.00  0.00    +0.016 C 
BRANCH   8  12
ATOM     12  N   UNL     1      31.441 -22.719 -16.624  0.00  0.00    -0.303 NA
ATOM     13  H   UNL     1      31.836 -21.906 -17.017  0.00  0.00    +0.121 HD
ATOM     14  H   UNL     1      30.571 -23.049 -16.946  0.00  0.00    +0.121 HD
ENDBRANCH   8  12
BRANCH   6  15
ATOM     15  C   UNL     1      29.991 -23.631 -14.453  0.00  0.00    +0.251 C 
BRANCH  15  16
ATOM     16  O   UNL     1      29.359 -24.305 -15.533  0.00  0.00    -0.250 OA
BRANCH  16  17
ATOM     17  P   UNL     1      28.017 -23.656 -16.204  0.00  0.00    +0.504 P 
ATOM     18  O   UNL     1      27.070 -23.199 -15.116  0.00  0.00    -0.225 OA
ATOM     19  O   UNL     1      27.536 -24.580 -17.301  0.00  0.00    -0.116 OA
BRANCH  17  20
ATOM     20  O   UNL     1      28.679 -22.338 -16.905  0.00  0.00    -0.301 OA
ATOM     21  H   UNL     1      27.979 -21.799 -17.307  0.00  0.00    +0.222 HD
ENDBRANCH  17  20
ENDBRANCH  16  17
ENDBRANCH  15  16
ENDBRANCH   6  15
ENDBRANCH   4   7
BRANCH   3  22
ATOM     22  C   UNL     1      36.682 -21.661 -19.061  0.00  0.00    +0.075 C 
BRANCH  22  23
ATOM     23  C   UNL     1      36.205 -20.609 -20.054  0.00  0.00    -0.016 C 
ATOM     24  C   UNL     1      34.890 -20.633 -20.517  0.00  0.00    -0.004 C 
ATOM     25  C   UNL     1      37.084 -19.621 -20.501  0.00  0.00    -0.004 C 
ATOM     26  C   UNL     1      35.331 -18.682 -21.872  0.00  0.00    +0.021 C 
ATOM     27  C   UNL     1      34.453 -19.670 -21.426  0.00  0.00    -0.001 C 
ATOM     28  C   UNL     1      36.647 -18.659 -21.410  0.00  0.00    -0.001 C 
BRANCH  26  29
ATOM     29  C   UNL     1      34.863 -17.651 -22.842  0.00  0.00    +0.234 C 
BRANCH  29  30
ATOM     30  O   UNL     1      35.410 -16.387 -22.489  0.00  0.00    -0.455 OA
BRANCH  30  32
ATOM     31  N   UNL     1      33.899 -14.789 -23.229  0.00  0.00    -0.210 NA
ATOM     32  C   UNL     1      34.518 -15.391 -22.188  0.00  0.00    +0.225 C 
ATOM     33  C   UNL     1      34.301 -15.061 -20.860  0.00  0.00    +0.058 C 
ATOM     34  C   UNL     1      33.390 -14.048 -20.581  0.00  0.00    +0.006 C 
ATOM     35  C   UNL     1      33.019 -13.810 -22.919  0.00  0.00    +0.102 C 
ATOM     36  C   UNL     1      32.732 -13.406 -21.625  0.00  0.00    +0.021 C 
ENDBRANCH  30  32
ENDBRANCH  29  30
ENDBRANCH  26  29
ENDBRANCH  22  23
ENDBRANCH   3  22
TORSDOF 11
ENDMDL
MODEL 5
REMARK VINA RESULT:     -11.4      2.152      2.797
REMARK  Name = 44123754
REMARK  11 active torsions:
REMARK  status: ('A' for Active; 'I' for Inactive)
REMARK    1  A    between atoms: C_3  and  C_22
REMARK    2  A    between atoms: C_4  and  C_7
REMARK    3  A    between atoms: N_6  and  C_15
REMARK    4  A    between atoms: C_8  and  N_12
REMARK    5  A    between atoms: C_15  and  O_16
REMARK    6  A    between atoms: O_16  and  P_17
REMARK    7  A    between atoms: P_17  and  O_20
REMARK    8  A    between atoms: C_22  and  C_23
REMARK    9  A    between atoms: C_26  and  C_29
REMARK   10  A    between atoms: C_29  and  O_30
REMARK   11  A    between atoms: O_30  and  C_32
REMARK                            x       y       z     vdW  Elec       q    Type
REMARK                         _______ _______ _______ _____ _____    ______ ____
ROOT
ATOM      1  O   UNL     1      34.162 -15.810 -23.245  0.00  0.00    -0.354 OA
ATOM      2  N   UNL     1      34.928 -16.968 -23.313  0.00  0.00    -0.081 NA
ATOM      3  C   UNL     1      35.367 -17.165 -22.067  0.00  0.00    +0.105 C 
ATOM      4  C   UNL     1      34.163 -15.346 -21.969  0.00  0.00    +0.175 C 
ATOM      5  C   UNL     1      34.916 -16.172 -21.179  0.00  0.00    +0.058 C 
ENDROOT
BRANCH   4   7
ATOM      6  N   UNL     1      32.684 -11.985 -22.399  0.00  0.00    -0.266 N 
ATOM      7  C   UNL     1      33.403 -14.138 -21.743  0.00  0.00    +0.048 C 
ATOM      8  C   UNL     1      33.405 -13.087 -22.648  0.00  0.00    +0.156 C 
ATOM      9  C   UNL     1      32.644 -14.022 -20.582  0.00  0.00    +0.003 C 
ATOM     10  C   UNL     1      31.945 -11.847 -21.290  0.00  0.00    +0.064 C 
ATOM     11  C   UNL     1      31.906 -12.865 -20.349  0.00  0.00    +0.016 C 
BRANCH   8  12
ATOM     12  N   UNL     1      34.161 -13.165 -23.838  0.00  0.00    -0.303 NA
ATOM     13  H   UNL     1      34.854 -12.491 -24.026  0.00  0.00    +0.121 HD
ATOM     14  H   UNL     1      33.995 -13.893 -24.479  0.00  0.00    +0.121 HD
ENDBRANCH   8  12
BRANCH   6  15
ATOM     15  C   UNL     1      32.686 -10.876 -23.356  0.00  0.00    +0.251 C 
BRANCH  15  16
ATOM     16  O   UNL     1      33.888 -10.136 -23.190  0.00  0.00    -0.250 OA
BRANCH  16  17
ATOM     17  P   UNL     1      33.833  -8.503 -23.231  0.00  0.00    +0.504 P 
ATOM     18  O   UNL     1      32.764  -8.051 -24.202  0.00  0.00    -0.225 OA
ATOM     19  O   UNL     1      35.248  -7.979 -23.349  0.00  0.00    -0.116 OA
BRANCH  17  20
ATOM     20  O   UNL     1      33.310  -8.214 -21.711  0.00  0.00    -0.301 OA
ATOM     21  H   UNL     1      32.371  -7.973 -21.732  0.00  0.00    +0.222 HD
ENDBRANCH  17  20
ENDBRANCH  16  17
ENDBRANCH  15  16
ENDBRANCH   6  15
ENDBRANCH   4   7
BRANCH   3  22
ATOM     22  C   UNL     1      36.224 -18.322 -21.764  0.00  0.00    +0.075 C 
BRANCH  22  23
ATOM     23  C   UNL     1      35.533 -19.438 -20.991  0.00  0.00    -0.016 C 
ATOM     24  C   UNL     1      36.288 -20.335 -20.235  0.00  0.00    -0.004 C 
ATOM     25  C   UNL     1      34.144 -19.563 -21.039  0.00  0.00    -0.004 C 
ATOM     26  C   UNL     1      34.267 -21.481 -19.575  0.00  0.00    +0.021 C 
ATOM     27  C   UNL     1      35.656 -21.356 -19.528  0.00  0.00    -0.001 C 
ATOM     28  C   UNL     1      33.511 -20.585 -20.331  0.00  0.00    -0.001 C 
BRANCH  26  29
ATOM     29  C   UNL     1      33.591 -22.572 -18.816  0.00  0.00    +0.234 C 
BRANCH  29  30
ATOM     30  O   UNL     1      34.498 -23.120 -17.867  0.00  0.00    -0.455 OA
BRANCH  30  32
ATOM     31  N   UNL     1      34.835 -24.003 -15.748  0.00  0.00    -0.210 NA
ATOM     32  C   UNL     1      33.972 -23.504 -16.661  0.00  0.00    +0.225 C 
ATOM     33  C   UNL     1      32.612 -23.359 -16.445  0.00  0.00    +0.058 C 
ATOM     34  C   UNL     1      32.103 -23.753 -15.212  0.00  0.00    +0.006 C 
ATOM     35  C   UNL     1      34.305 -24.375 -14.561  0.00  0.00    +0.102 C 
ATOM     36  C   UNL     1      32.959 -24.272 -14.247  0.00  0.00    +0.021 C 
ENDBRANCH  30  32
ENDBRANCH  29  30
ENDBRANCH  26  29
ENDBRANCH  22  23
ENDBRANCH   3  22
TORSDOF 11
ENDMDL
MODEL 6
REMARK VINA RESULT:     -11.4      3.861     10.668
REMARK  Name = 44123754
REMARK  11 active torsions:
REMARK  status: ('A' for Active; 'I' for Inactive)
REMARK    1  A    between atoms: C_3  and  C_22
REMARK    2  A    between atoms: C_4  and  C_7
REMARK    3  A    between atoms: N_6  and  C_15
REMARK    4  A    between atoms: C_8  and  N_12
REMARK    5  A    between atoms: C_15  and  O_16
REMARK    6  A    between atoms: O_16  and  P_17
REMARK    7  A    between atoms: P_17  and  O_20
REMARK    8  A    between atoms: C_22  and  C_23
REMARK    9  A    between atoms: C_26  and  C_29
REMARK   10  A    between atoms: C_29  and  O_30
REMARK   11  A    between atoms: O_30  and  C_32
REMARK                            x       y       z     vdW  Elec       q    Type
REMARK                         _______ _______ _______ _____ _____    ______ ____
ROOT
ATOM      1  O   UNL     1      35.977 -18.924 -20.937  0.00  0.00    -0.354 OA
ATOM      2  N   UNL     1      36.100 -18.034 -21.998  0.00  0.00    -0.081 NA
ATOM      3  C   UNL     1      35.060 -18.301 -22.794  0.00  0.00    +0.105 C 
ATOM      4  C   UNL     1      34.876 -19.695 -21.124  0.00  0.00    +0.175 C 
ATOM      5  C   UNL     1      34.256 -19.339 -22.292  0.00  0.00    +0.058 C 
ENDROOT
BRANCH   4   7
ATOM      6  N   UNL     1      35.339 -22.074 -18.332  0.00  0.00    -0.266 N 
ATOM      7  C   UNL     1      34.616 -20.674 -20.094  0.00  0.00    +0.048 C 
ATOM      8  C   UNL     1      35.624 -21.166 -19.276  0.00  0.00    +0.156 C 
ATOM      9  C   UNL     1      33.319 -21.141 -19.912  0.00  0.00    +0.003 C 
ATOM     10  C   UNL     1      34.099 -22.540 -18.136  0.00  0.00    +0.064 C 
ATOM     11  C   UNL     1      33.052 -22.085 -18.924  0.00  0.00    +0.016 C 
BRANCH   8  12
ATOM     12  N   UNL     1      36.954 -20.718 -19.427  0.00  0.00    -0.303 NA
ATOM     13  H   UNL     1      37.135 -19.774 -19.639  0.00  0.00    +0.121 HD
ATOM     14  H   UNL     1      37.701 -21.351 -19.320  0.00  0.00    +0.121 HD
ENDBRANCH   8  12
BRANCH   6  15
ATOM     15  C   UNL     1      36.403 -22.592 -17.469  0.00  0.00    +0.251 C 
BRANCH  15  16
ATOM     16  O   UNL     1      35.808 -23.221 -16.342  0.00  0.00    -0.250 OA
BRANCH  16  17
ATOM     17  P   UNL     1      36.748 -23.646 -15.075  0.00  0.00    +0.504 P 
ATOM     18  O   UNL     1      36.073 -23.247 -13.780  0.00  0.00    -0.225 OA
ATOM     19  O   UNL     1      38.168 -23.211 -15.364  0.00  0.00    -0.116 OA
BRANCH  17  20
ATOM     20  O   UNL     1      36.676 -25.271 -15.220  0.00  0.00    -0.301 OA
ATOM     21  H   UNL     1      36.349 -25.656 -14.392  0.00  0.00    +0.222 HD
ENDBRANCH  17  20
ENDBRANCH  16  17
ENDBRANCH  15  16
ENDBRANCH   6  15
ENDBRANCH   4   7
BRANCH   3  22
ATOM     22  C   UNL     1      34.871 -17.535 -24.036  0.00  0.00    +0.075 C 
BRANCH  22  23
ATOM     23  C   UNL     1      34.391 -16.103 -23.831  0.00  0.00    -0.016 C 
ATOM     24  C   UNL     1      34.662 -15.442 -22.634  0.00  0.00    -0.004 C 
ATOM     25  C   UNL     1      33.682 -15.454 -24.842  0.00  0.00    -0.004 C 
ATOM     26  C   UNL     1      33.513 -13.482 -23.456  0.00  0.00    +0.021 C 
ATOM     27  C   UNL     1      34.223 -14.132 -22.446  0.00  0.00    -0.001 C 
ATOM     28  C   UNL     1      33.243 -14.143 -24.654  0.00  0.00    -0.001 C 
BRANCH  26  29
ATOM     29  C   UNL     1      33.047 -12.080 -23.256  0.00  0.00    +0.234 C 
BRANCH  29  30
ATOM     30  O   UNL     1      31.913 -12.078 -22.397  0.00  0.00    -0.455 OA
BRANCH  30  32
ATOM     31  N   UNL     1      32.012  -9.868 -21.695  0.00  0.00    -0.210 NA
ATOM     32  C   UNL     1      31.923 -11.176 -21.365  0.00  0.00    +0.225 C 
ATOM     33  C   UNL     1      31.840 -11.644 -20.064  0.00  0.00    +0.058 C 
ATOM     34  C   UNL     1      31.850 -10.709 -19.034  0.00  0.00    +0.006 C 
ATOM     35  C   UNL     1      32.018  -8.989 -20.668  0.00  0.00    +0.102 C 
ATOM     36  C   UNL     1      31.941  -9.354 -19.334  0.00  0.00    +0.021 C 
ENDBRANCH  30  32
ENDBRANCH  29  30
ENDBRANCH  26  29
ENDBRANCH  22  23
ENDBRANCH   3  22
TORSDOF 11
ENDMDL
MODEL 7
REMARK VINA RESULT:     -11.3      3.557     10.431
REMARK  Name = 44123754
REMARK  11 active torsions:
REMARK  status: ('A' for Active; 'I' for Inactive)
REMARK    1  A    between atoms: C_3  and  C_22
REMARK    2  A    between atoms: C_4  and  C_7
REMARK    3  A    between atoms: N_6  and  C_15
REMARK    4  A    between atoms: C_8  and  N_12
REMARK    5  A    between atoms: C_15  and  O_16
REMARK    6  A    between atoms: O_16  and  P_17
REMARK    7  A    between atoms: P_17  and  O_20
REMARK    8  A    between atoms: C_22  and  C_23
REMARK    9  A    between atoms: C_26  and  C_29
REMARK   10  A    between atoms: C_29  and  O_30
REMARK   11  A    between atoms: O_30  and  C_32
REMARK                            x       y       z     vdW  Elec       q    Type
REMARK                         _______ _______ _______ _____ _____    ______ ____
ROOT
ATOM      1  O   UNL     1      33.720 -20.813 -19.876  0.00  0.00    -0.354 OA
ATOM      2  N   UNL     1      33.745 -20.118 -21.079  0.00  0.00    -0.081 NA
ATOM      3  C   UNL     1      35.031 -20.095 -21.438  0.00  0.00    +0.105 C 
ATOM      4  C   UNL     1      34.984 -21.186 -19.547  0.00  0.00    +0.175 C 
ATOM      5  C   UNL     1      35.857 -20.753 -20.510  0.00  0.00    +0.058 C 
ENDROOT
BRANCH   4   7
ATOM      6  N   UNL     1      34.238 -23.331 -16.631  0.00  0.00    -0.266 N 
ATOM      7  C   UNL     1      35.117 -21.923 -18.312  0.00  0.00    +0.048 C 
ATOM      8  C   UNL     1      34.071 -22.661 -17.779  0.00  0.00    +0.156 C 
ATOM      9  C   UNL     1      36.331 -21.894 -17.632  0.00  0.00    +0.003 C 
ATOM     10  C   UNL     1      35.395 -23.320 -15.956  0.00  0.00    +0.064 C 
ATOM     11  C   UNL     1      36.476 -22.598 -16.441  0.00  0.00    +0.016 C 
BRANCH   8  12
ATOM     12  N   UNL     1      32.823 -22.717 -18.438  0.00  0.00    -0.303 NA
ATOM     13  H   UNL     1      32.098 -22.107 -18.171  0.00  0.00    +0.121 HD
ATOM     14  H   UNL     1      32.679 -23.366 -19.163  0.00  0.00    +0.121 HD
ENDBRANCH   8  12
BRANCH   6  15
ATOM     15  C   UNL     1      33.132 -24.111 -16.070  0.00  0.00    +0.251 C 
BRANCH  15  16
ATOM     16  O   UNL     1      32.209 -23.218 -15.463  0.00  0.00    -0.250 OA
BRANCH  16  17
ATOM     17  P   UNL     1      30.606 -23.482 -15.642  0.00  0.00    +0.504 P 
ATOM     18  O   UNL     1      30.317 -24.964 -15.537  0.00  0.00    -0.225 OA
ATOM     19  O   UNL     1      30.120 -22.688 -16.834  0.00  0.00    -0.116 OA
BRANCH  17  20
ATOM     20  O   UNL     1      30.061 -22.749 -14.287  0.00  0.00    -0.301 OA
ATOM     21  H   UNL     1      30.799 -22.305 -13.841  0.00  0.00    +0.222 HD
ENDBRANCH  17  20
ENDBRANCH  16  17
ENDBRANCH  15  16
ENDBRANCH   6  15
ENDBRANCH   4   7
BRANCH   3  22
ATOM     22  C   UNL     1      35.433 -19.427 -22.687  0.00  0.00    +0.075 C 
BRANCH  22  23
ATOM     23  C   UNL     1      35.091 -17.944 -22.752  0.00  0.00    -0.016 C 
ATOM     24  C   UNL     1      34.680 -17.376 -23.957  0.00  0.00    -0.004 C 
ATOM     25  C   UNL     1      35.189 -17.155 -21.606  0.00  0.00    -0.004 C 
ATOM     26  C   UNL     1      34.465 -15.228 -22.871  0.00  0.00    +0.021 C 
ATOM     27  C   UNL     1      34.367 -16.018 -24.017  0.00  0.00    -0.001 C 
ATOM     28  C   UNL     1      34.876 -15.797 -21.666  0.00  0.00    -0.001 C 
BRANCH  26  29
ATOM     29  C   UNL     1      34.127 -13.777 -22.935  0.00  0.00    +0.234 C 
BRANCH  29  30
ATOM     30  O   UNL     1      32.737 -13.604 -22.687  0.00  0.00    -0.455 OA
BRANCH  30  32
ATOM     31  N   UNL     1      32.331 -11.320 -22.639  0.00  0.00    -0.210 NA
ATOM     32  C   UNL     1      32.371 -12.495 -21.971  0.00  0.00    +0.225 C 
ATOM     33  C   UNL     1      32.066 -12.634 -20.627  0.00  0.00    +0.058 C 
ATOM     34  C   UNL     1      31.695 -11.493 -19.922  0.00  0.00    +0.006 C 
ATOM     35  C   UNL     1      31.967 -10.233 -21.922  0.00  0.00    +0.102 C 
ATOM     36  C   UNL     1      31.642 -10.266 -20.575  0.00  0.00    +0.021 C 
ENDBRANCH  30  32
ENDBRANCH  29  30
ENDBRANCH  26  29
ENDBRANCH  22  23
ENDBRANCH   3  22
TORSDOF 11
ENDMDL
MODEL 8
REMARK VINA RESULT:     -11.2      4.721     11.617
REMARK  Name = 44123754
REMARK  11 active torsions:
REMARK  status: ('A' for Active; 'I' for Inactive)
REMARK    1  A    between atoms: C_3  and  C_22
REMARK    2  A    between atoms: C_4  and  C_7
REMARK    3  A    between atoms: N_6  and  C_15
REMARK    4  A    between atoms: C_8  and  N_12
REMARK    5  A    between atoms: C_15  and  O_16
REMARK    6  A    between atoms: O_16  and  P_17
REMARK    7  A    between atoms: P_17  and  O_20
REMARK    8  A    between atoms: C_22  and  C_23
REMARK    9  A    between atoms: C_26  and  C_29
REMARK   10  A    between atoms: C_29  and  O_30
REMARK   11  A    between atoms: O_30  and  C_32
REMARK                            x       y       z     vdW  Elec       q    Type
REMARK                         _______ _______ _______ _____ _____    ______ ____
ROOT
ATOM      1  O   UNL     1      33.148 -23.679 -17.974  0.00  0.00    -0.354 OA
ATOM      2  N   UNL     1      33.832 -23.412 -19.154  0.00  0.00    -0.081 NA
ATOM      3  C   UNL     1      34.941 -22.771 -18.773  0.00  0.00    +0.105 C 
ATOM      4  C   UNL     1      33.859 -23.194 -16.924  0.00  0.00    +0.175 C 
ATOM      5  C   UNL     1      35.010 -22.606 -17.378  0.00  0.00    +0.058 C 
ENDROOT
BRANCH   4   7
ATOM      6  N   UNL     1      33.382 -24.171 -13.391  0.00  0.00    -0.266 N 
ATOM      7  C   UNL     1      33.269 -23.399 -15.621  0.00  0.00    +0.048 C 
ATOM      8  C   UNL     1      33.967 -24.001 -14.584  0.00  0.00    +0.156 C 
ATOM      9  C   UNL     1      31.962 -22.982 -15.395  0.00  0.00    +0.003 C 
ATOM     10  C   UNL     1      32.125 -23.778 -13.146  0.00  0.00    +0.064 C 
ATOM     11  C   UNL     1      31.379 -23.172 -14.146  0.00  0.00    +0.016 C 
BRANCH   8  12
ATOM     12  N   UNL     1      35.297 -24.439 -14.772  0.00  0.00    -0.303 NA
ATOM     13  H   UNL     1      35.535 -24.958 -15.573  0.00  0.00    +0.121 HD
ATOM     14  H   UNL     1      35.984 -24.224 -14.100  0.00  0.00    +0.121 HD
ENDBRANCH   8  12
BRANCH   6  15
ATOM     15  C   UNL     1      34.120 -24.806 -12.296  0.00  0.00    +0.251 C 
BRANCH  15  16
ATOM     16  O   UNL     1      35.035 -23.862 -11.758  0.00  0.00    -0.250 OA
BRANCH  16  17
ATOM     17  P   UNL     1      36.088 -24.339 -10.603  0.00  0.00    +0.504 P 
ATOM     18  O   UNL     1      35.329 -24.835  -9.391  0.00  0.00    -0.225 OA
ATOM     19  O   UNL     1      37.154 -23.275 -10.457  0.00  0.00    -0.116 OA
BRANCH  17  20
ATOM     20  O   UNL     1      36.754 -25.623 -11.361  0.00  0.00    -0.301 OA
ATOM     21  H   UNL     1      36.438 -25.657 -12.278  0.00  0.00    +0.222 HD
ENDBRANCH  17  20
ENDBRANCH  16  17
ENDBRANCH  15  16
ENDBRANCH   6  15
ENDBRANCH   4   7
BRANCH   3  22
ATOM     22  C   UNL     1      35.917 -22.329 -19.782  0.00  0.00    +0.075 C 
BRANCH  22  23
ATOM     23  C   UNL     1      35.722 -20.898 -20.269  0.00  0.00    -0.016 C 
ATOM     24  C   UNL     1      36.816 -20.040 -20.366  0.00  0.00    -0.004 C 
ATOM     25  C   UNL     1      34.448 -20.448 -20.618  0.00  0.00    -0.004 C 
ATOM     26  C   UNL     1      35.365 -18.279 -21.161  0.00  0.00    +0.021 C 
ATOM     27  C   UNL     1      36.638 -18.730 -20.812  0.00  0.00    -0.001 C 
ATOM     28  C   UNL     1      34.270 -19.138 -21.064  0.00  0.00    -0.001 C 
BRANCH  26  29
ATOM     29  C   UNL     1      35.175 -16.880 -21.640  0.00  0.00    +0.234 C 
BRANCH  29  30
ATOM     30  O   UNL     1      34.790 -16.898 -23.009  0.00  0.00    -0.455 OA
BRANCH  30  32
ATOM     31  N   UNL     1      34.518 -14.604 -22.788  0.00  0.00    -0.210 NA
ATOM     32  C   UNL     1      34.352 -15.714 -23.543  0.00  0.00    +0.225 C 
ATOM     33  C   UNL     1      33.776 -15.717 -24.802  0.00  0.00    +0.058 C 
ATOM     34  C   UNL     1      33.341 -14.503 -25.322  0.00  0.00    +0.006 C 
ATOM     35  C   UNL     1      34.084 -13.442 -23.327  0.00  0.00    +0.102 C 
ATOM     36  C   UNL     1      33.495 -13.339 -24.577  0.00  0.00    +0.021 C 
ENDBRANCH  30  32
ENDBRANCH  29  30
ENDBRANCH  26  29
ENDBRANCH  22  23
ENDBRANCH   3  22
TORSDOF 11
ENDMDL
MODEL 9
REMARK VINA RESULT:     -11.1      4.372     11.276
REMARK  Name = 44123754
REMARK  11 active torsions:
REMARK  status: ('A' for Active; 'I' for Inactive)
REMARK    1  A    between atoms: C_3  and  C_22
REMARK    2  A    between atoms: C_4  and  C_7
REMARK    3  A    between atoms: N_6  and  C_15
REMARK    4  A    between atoms: C_8  and  N_12
REMARK    5  A    between atoms: C_15  and  O_16
REMARK    6  A    between atoms: O_16  and  P_17
REMARK    7  A    between atoms: P_17  and  O_20
REMARK    8  A    between atoms: C_22  and  C_23
REMARK    9  A    between atoms: C_26  and  C_29
REMARK   10  A    between atoms: C_29  and  O_30
REMARK   11  A    between atoms: O_30  and  C_32
REMARK                            x       y       z     vdW  Elec       q    Type
REMARK                         _______ _______ _______ _____ _____    ______ ____
ROOT
ATOM      1  O   UNL     1      36.397 -20.678 -19.117  0.00  0.00    -0.354 OA
ATOM      2  N   UNL     1      36.692 -19.918 -20.242  0.00  0.00    -0.081 NA
ATOM      3  C   UNL     1      35.659 -20.109 -21.068  0.00  0.00    +0.105 C 
ATOM      4  C   UNL     1      35.204 -21.302 -19.297  0.00  0.00    +0.175 C 
ATOM      5  C   UNL     1      34.693 -20.972 -20.523  0.00  0.00    +0.058 C 
ENDROOT
BRANCH   4   7
ATOM      6  N   UNL     1      35.123 -23.179 -16.113  0.00  0.00    -0.266 N 
ATOM      7  C   UNL     1      34.763 -22.135 -18.202  0.00  0.00    +0.048 C 
ATOM      8  C   UNL     1      35.573 -22.402 -17.108  0.00  0.00    +0.156 C 
ATOM      9  C   UNL     1      33.487 -22.688 -18.242  0.00  0.00    +0.003 C 
ATOM     10  C   UNL     1      33.900 -23.724 -16.127  0.00  0.00    +0.064 C 
ATOM     11  C   UNL     1      33.047 -23.492 -17.195  0.00  0.00    +0.016 C 
BRANCH   8  12
ATOM     12  N   UNL     1      36.875 -21.860 -17.028  0.00  0.00    -0.303 NA
ATOM     13  H   UNL     1      37.525 -22.035 -17.747  0.00  0.00    +0.121 HD
ATOM     14  H   UNL     1      37.131 -21.308 -16.255  0.00  0.00    +0.121 HD
ENDBRANCH   8  12
BRANCH   6  15
ATOM     15  C   UNL     1      35.979 -23.460 -14.958  0.00  0.00    +0.251 C 
BRANCH  15  16
ATOM     16  O   UNL     1      36.842 -24.541 -15.285  0.00  0.00    -0.250 OA
BRANCH  16  17
ATOM     17  P   UNL     1      36.669 -25.966 -14.503  0.00  0.00    +0.504 P 
ATOM     18  O   UNL     1      37.921 -26.270 -13.709  0.00  0.00    -0.225 OA
ATOM     19  O   UNL     1      36.112 -26.982 -15.476  0.00  0.00    -0.116 OA
BRANCH  17  20
ATOM     20  O   UNL     1      35.479 -25.557 -13.461  0.00  0.00    -0.301 OA
ATOM     21  H   UNL     1      35.768 -24.805 -12.920  0.00  0.00    +0.222 HD
ENDBRANCH  17  20
ENDBRANCH  16  17
ENDBRANCH  15  16
ENDBRANCH   6  15
ENDBRANCH   4   7
BRANCH   3  22
ATOM     22  C   UNL     1      35.635 -19.443 -22.381  0.00  0.00    +0.075 C 
BRANCH  22  23
ATOM     23  C   UNL     1      35.254 -17.968 -22.336  0.00  0.00    -0.016 C 
ATOM     24  C   UNL     1      35.174 -17.305 -21.112  0.00  0.00    -0.004 C 
ATOM     25  C   UNL     1      34.985 -17.281 -23.521  0.00  0.00    -0.004 C 
ATOM     26  C   UNL     1      34.556 -15.269 -22.255  0.00  0.00    +0.021 C 
ATOM     27  C   UNL     1      34.825 -15.956 -21.071  0.00  0.00    -0.001 C 
ATOM     28  C   UNL     1      34.636 -15.932 -23.480  0.00  0.00    -0.001 C 
BRANCH  26  29
ATOM     29  C   UNL     1      34.186 -13.825 -22.212  0.00  0.00    +0.234 C 
BRANCH  29  30
ATOM     30  O   UNL     1      32.796 -13.702 -21.935  0.00  0.00    -0.455 OA
BRANCH  30  32
ATOM     31  N   UNL     1      32.614 -11.538 -22.751  0.00  0.00    -0.210 NA
ATOM     32  C   UNL     1      32.306 -12.431 -21.784  0.00  0.00    +0.225 C 
ATOM     33  C   UNL     1      31.535 -12.136 -20.672  0.00  0.00    +0.058 C 
ATOM     34  C   UNL     1      31.049 -10.839 -20.543  0.00  0.00    +0.006 C 
ATOM     35  C   UNL     1      32.123 -10.288 -22.592  0.00  0.00    +0.102 C 
ATOM     36  C   UNL     1      31.344  -9.892 -21.518  0.00  0.00    +0.021 C 
ENDBRANCH  30  32
ENDBRANCH  29  30
ENDBRANCH  26  29
ENDBRANCH  22  23
ENDBRANCH   3  22
TORSDOF 11
ENDMDL
