MODEL 1
REMARK VINA RESULT:      -7.9      0.000      0.000
REMARK  Name = 629281
REMARK  7 active torsions:
REMARK  status: ('A' for Active; 'I' for Inactive)
REMARK    1  A    between atoms: C_6  and  C_16
REMARK    2  A    between atoms: C_8  and  O_22
REMARK    3  A    between atoms: O_22  and  C_24
REMARK    4  A    between atoms: C_24  and  C_25
REMARK    5  A    between atoms: C_25  and  C_26
REMARK    6  A    between atoms: C_26  and  C_28
REMARK    7  A    between atoms: C_28  and  O_29
REMARK                            x       y       z     vdW  Elec       q    Type
REMARK                         _______ _______ _______ _____ _____    ______ ____
ROOT
ATOM      1 BR   UNL     1      30.132  -2.317 -25.041  0.00  0.00    -0.049 Br
ATOM      2  O   UNL     1      33.392  -7.451 -19.471  0.00  0.00    -0.269 OA
ATOM      3  N   UNL     1      32.652  -5.572 -20.538  0.00  0.00    -0.279 N 
ATOM      4  N   UNL     1      32.942  -7.644 -22.706  0.00  0.00    -0.224 NA
ATOM      5  C   UNL     1      32.153  -5.320 -22.962  0.00  0.00    +0.031 C 
ATOM      6  C   UNL     1      32.923  -6.535 -23.363  0.00  0.00    +0.082 C 
ATOM      7  C   UNL     1      32.130  -4.860 -21.636  0.00  0.00    +0.052 C 
ATOM      8  C   UNL     1      32.140  -7.778 -21.504  0.00  0.00    +0.352 C 
ATOM      9  C   UNL     1      32.811  -6.939 -20.429  0.00  0.00    +0.292 C 
ATOM     10  C   UNL     1      31.535  -4.562 -23.970  0.00  0.00    +0.009 C 
ATOM     11  C   UNL     1      31.582  -3.598 -21.360  0.00  0.00    +0.015 C 
ATOM     12  C   UNL     1      30.950  -3.332 -23.673  0.00  0.00    +0.035 C 
ATOM     13  C   UNL     1      30.988  -2.843 -22.372  0.00  0.00    +0.008 C 
ATOM     14  H   UNL     1      32.934  -5.036 -19.761  0.00  0.00    +0.155 HD
ENDROOT
BRANCH   6  16
ATOM     15 CL   UNL     1      31.907  -7.999 -25.887  0.00  0.00    -0.082 Cl
ATOM     16  C   UNL     1      33.765  -6.476 -24.593  0.00  0.00    +0.028 C 
ATOM     17  C   UNL     1      33.381  -7.106 -25.772  0.00  0.00    +0.059 C 
ATOM     18  C   UNL     1      34.958  -5.762 -24.528  0.00  0.00    +0.002 C 
ATOM     19  C   UNL     1      34.199  -7.022 -26.899  0.00  0.00    +0.011 C 
ATOM     20  C   UNL     1      35.776  -5.679 -25.656  0.00  0.00    +0.000 C 
ATOM     21  C   UNL     1      35.397  -6.309 -26.841  0.00  0.00    +0.001 C 
ENDBRANCH   6  16
BRANCH   8  22
ATOM     22  O   UNL     1      32.041  -9.107 -20.997  0.00  0.00    -0.421 OA
BRANCH  22  24
ATOM     23  O   UNL     1      30.834  -9.801 -22.835  0.00  0.00    -0.250 OA
ATOM     24  C   UNL     1      31.187  -9.937 -21.672  0.00  0.00    +0.319 C 
BRANCH  24  25
ATOM     25  C   UNL     1      30.747 -11.050 -20.745  0.00  0.00    +0.121 C 
BRANCH  25  26
ATOM     26  C   UNL     1      31.915 -11.797 -20.111  0.00  0.00    +0.121 C 
BRANCH  26  28
ATOM     27  O   UNL     1      32.257 -14.183 -19.947  0.00  0.00    -0.250 OA
ATOM     28  C   UNL     1      32.019 -13.204 -20.643  0.00  0.00    +0.314 C 
BRANCH  28  29
ATOM     29  O   UNL     1      31.798 -13.275 -21.979  0.00  0.00    -0.480 OA
ATOM     30  H   UNL     1      30.991 -13.625 -22.302  0.00  0.00    +0.295 HD
ENDBRANCH  28  29
ENDBRANCH  26  28
ENDBRANCH  25  26
ENDBRANCH  24  25
ENDBRANCH  22  24
ENDBRANCH   8  22
TORSDOF 7
ENDMDL
MODEL 2
REMARK VINA RESULT:      -7.6     13.148     18.095
REMARK  Name = 629281
REMARK  7 active torsions:
REMARK  status: ('A' for Active; 'I' for Inactive)
REMARK    1  A    between atoms: C_6  and  C_16
REMARK    2  A    between atoms: C_8  and  O_22
REMARK    3  A    between atoms: O_22  and  C_24
REMARK    4  A    between atoms: C_24  and  C_25
REMARK    5  A    between atoms: C_25  and  C_26
REMARK    6  A    between atoms: C_26  and  C_28
REMARK    7  A    between atoms: C_28  and  O_29
REMARK                            x       y       z     vdW  Elec       q    Type
REMARK                         _______ _______ _______ _____ _____    ______ ____
ROOT
ATOM      1 BR   UNL     1      31.175 -22.908 -11.918  0.00  0.00    -0.049 Br
ATOM      2  O   UNL     1      34.200 -24.140 -19.491  0.00  0.00    -0.269 OA
ATOM      3  N   UNL     1      32.903 -24.249 -17.614  0.00  0.00    -0.279 N 
ATOM      4  N   UNL     1      35.522 -23.079 -16.693  0.00  0.00    -0.224 NA
ATOM      5  C   UNL     1      33.519 -23.514 -15.319  0.00  0.00    +0.031 C 
ATOM      6  C   UNL     1      34.986 -23.494 -15.596  0.00  0.00    +0.082 C 
ATOM      7  C   UNL     1      32.590 -23.960 -16.271  0.00  0.00    +0.052 C 
ATOM      8  C   UNL     1      34.677 -22.548 -17.747  0.00  0.00    +0.352 C 
ATOM      9  C   UNL     1      33.941 -23.727 -18.359  0.00  0.00    +0.292 C 
ATOM     10  C   UNL     1      33.083 -23.181 -14.025  0.00  0.00    +0.009 C 
ATOM     11  C   UNL     1      31.258 -24.169 -15.880  0.00  0.00    +0.015 C 
ATOM     12  C   UNL     1      31.747 -23.347 -13.665  0.00  0.00    +0.035 C 
ATOM     13  C   UNL     1      30.838 -23.856 -14.587  0.00  0.00    +0.008 C 
ATOM     14  H   UNL     1      32.316 -24.894 -18.073  0.00  0.00    +0.155 HD
ENDROOT
BRANCH   6  16
ATOM     15 CL   UNL     1      35.629 -26.515 -15.617  0.00  0.00    -0.082 Cl
ATOM     16  C   UNL     1      35.918 -24.017 -14.556  0.00  0.00    +0.028 C 
ATOM     17  C   UNL     1      36.261 -25.364 -14.494  0.00  0.00    +0.059 C 
ATOM     18  C   UNL     1      36.443 -23.112 -13.639  0.00  0.00    +0.002 C 
ATOM     19  C   UNL     1      37.139 -25.810 -13.506  0.00  0.00    +0.011 C 
ATOM     20  C   UNL     1      37.320 -23.558 -12.650  0.00  0.00    +0.000 C 
ATOM     21  C   UNL     1      37.668 -24.906 -12.583  0.00  0.00    +0.001 C 
ENDBRANCH   6  16
BRANCH   8  22
ATOM     22  O   UNL     1      35.379 -21.897 -18.803  0.00  0.00    -0.421 OA
BRANCH  22  24
ATOM     23  O   UNL     1      33.414 -20.926 -19.522  0.00  0.00    -0.250 OA
ATOM     24  C   UNL     1      34.626 -21.074 -19.597  0.00  0.00    +0.319 C 
BRANCH  24  25
ATOM     25  C   UNL     1      35.535 -20.379 -20.588  0.00  0.00    +0.121 C 
BRANCH  25  26
ATOM     26  C   UNL     1      34.777 -19.544 -21.613  0.00  0.00    +0.121 C 
BRANCH  26  28
ATOM     27  O   UNL     1      35.240 -17.380 -20.644  0.00  0.00    -0.250 OA
ATOM     28  C   UNL     1      35.261 -18.116 -21.622  0.00  0.00    +0.314 C 
BRANCH  28  29
ATOM     29  O   UNL     1      35.747 -17.736 -22.830  0.00  0.00    -0.480 OA
ATOM     30  H   UNL     1      36.121 -18.374 -23.406  0.00  0.00    +0.295 HD
ENDBRANCH  28  29
ENDBRANCH  26  28
ENDBRANCH  25  26
ENDBRANCH  24  25
ENDBRANCH  22  24
ENDBRANCH   8  22
TORSDOF 7
ENDMDL
MODEL 3
REMARK VINA RESULT:      -6.6      2.079      2.655
REMARK  Name = 629281
REMARK  7 active torsions:
REMARK  status: ('A' for Active; 'I' for Inactive)
REMARK    1  A    between atoms: C_6  and  C_16
REMARK    2  A    between atoms: C_8  and  O_22
REMARK    3  A    between atoms: O_22  and  C_24
REMARK    4  A    between atoms: C_24  and  C_25
REMARK    5  A    between atoms: C_25  and  C_26
REMARK    6  A    between atoms: C_26  and  C_28
REMARK    7  A    between atoms: C_28  and  O_29
REMARK                            x       y       z     vdW  Elec       q    Type
REMARK                         _______ _______ _______ _____ _____    ______ ____
ROOT
ATOM      1 BR   UNL     1      31.278  -1.893 -27.894  0.00  0.00    -0.049 Br
ATOM      2  O   UNL     1      33.771  -7.053 -21.965  0.00  0.00    -0.269 OA
ATOM      3  N   UNL     1      33.040  -5.198 -23.078  0.00  0.00    -0.279 N 
ATOM      4  N   UNL     1      34.207  -6.984 -25.207  0.00  0.00    -0.224 NA
ATOM      5  C   UNL     1      33.149  -4.778 -25.528  0.00  0.00    +0.031 C 
ATOM      6  C   UNL     1      34.180  -5.829 -25.778  0.00  0.00    +0.082 C 
ATOM      7  C   UNL     1      32.712  -4.460 -24.233  0.00  0.00    +0.052 C 
ATOM      8  C   UNL     1      33.154  -7.346 -24.275  0.00  0.00    +0.352 C 
ATOM      9  C   UNL     1      33.382  -6.534 -23.012  0.00  0.00    +0.292 C 
ATOM     10  C   UNL     1      32.698  -4.017 -26.620  0.00  0.00    +0.009 C 
ATOM     11  C   UNL     1      31.916  -3.320 -24.041  0.00  0.00    +0.015 C 
ATOM     12  C   UNL     1      31.867  -2.916 -26.419  0.00  0.00    +0.035 C 
ATOM     13  C   UNL     1      31.490  -2.557 -25.130  0.00  0.00    +0.008 C 
ATOM     14  H   UNL     1      33.022  -4.708 -22.224  0.00  0.00    +0.155 HD
ENDROOT
BRANCH   6  16
ATOM     15 CL   UNL     1      33.933  -6.888 -28.669  0.00  0.00    -0.082 Cl
ATOM     16  C   UNL     1      35.290  -5.531 -26.729  0.00  0.00    +0.028 C 
ATOM     17  C   UNL     1      35.258  -5.970 -28.049  0.00  0.00    +0.059 C 
ATOM     18  C   UNL     1      36.370  -4.792 -26.256  0.00  0.00    +0.002 C 
ATOM     19  C   UNL     1      36.317  -5.666 -28.904  0.00  0.00    +0.011 C 
ATOM     20  C   UNL     1      37.429  -4.490 -27.112  0.00  0.00    +0.000 C 
ATOM     21  C   UNL     1      37.403  -4.926 -28.435  0.00  0.00    +0.001 C 
ENDBRANCH   6  16
BRANCH   8  22
ATOM     22  O   UNL     1      33.142  -8.720 -23.893  0.00  0.00    -0.421 OA
BRANCH  22  24
ATOM     23  O   UNL     1      30.876  -8.612 -23.477  0.00  0.00    -0.250 OA
ATOM     24  C   UNL     1      31.951  -9.191 -23.407  0.00  0.00    +0.319 C 
BRANCH  24  25
ATOM     25  C   UNL     1      32.182 -10.543 -22.766  0.00  0.00    +0.121 C 
BRANCH  25  26
ATOM     26  C   UNL     1      31.243 -10.818 -21.597  0.00  0.00    +0.121 C 
BRANCH  26  28
ATOM     27  O   UNL     1      32.074 -11.943 -19.627  0.00  0.00    -0.250 OA
ATOM     28  C   UNL     1      31.706 -12.007 -20.793  0.00  0.00    +0.314 C 
BRANCH  28  29
ATOM     29  O   UNL     1      31.650 -13.166 -21.495  0.00  0.00    -0.480 OA
ATOM     30  H   UNL     1      31.778 -13.158 -22.423  0.00  0.00    +0.295 HD
ENDBRANCH  28  29
ENDBRANCH  26  28
ENDBRANCH  25  26
ENDBRANCH  24  25
ENDBRANCH  22  24
ENDBRANCH   8  22
TORSDOF 7
ENDMDL
MODEL 4
REMARK VINA RESULT:      -6.5      1.376      1.742
REMARK  Name = 629281
REMARK  7 active torsions:
REMARK  status: ('A' for Active; 'I' for Inactive)
REMARK    1  A    between atoms: C_6  and  C_16
REMARK    2  A    between atoms: C_8  and  O_22
REMARK    3  A    between atoms: O_22  and  C_24
REMARK    4  A    between atoms: C_24  and  C_25
REMARK    5  A    between atoms: C_25  and  C_26
REMARK    6  A    between atoms: C_26  and  C_28
REMARK    7  A    between atoms: C_28  and  O_29
REMARK                            x       y       z     vdW  Elec       q    Type
REMARK                         _______ _______ _______ _____ _____    ______ ____
ROOT
ATOM      1 BR   UNL     1      30.262  -1.889 -25.888  0.00  0.00    -0.049 Br
ATOM      2  O   UNL     1      32.884  -6.927 -19.909  0.00  0.00    -0.269 OA
ATOM      3  N   UNL     1      32.309  -5.062 -21.097  0.00  0.00    -0.279 N 
ATOM      4  N   UNL     1      32.647  -7.235 -23.157  0.00  0.00    -0.224 NA
ATOM      5  C   UNL     1      31.989  -4.890 -23.558  0.00  0.00    +0.031 C 
ATOM      6  C   UNL     1      32.725  -6.155 -23.857  0.00  0.00    +0.082 C 
ATOM      7  C   UNL     1      31.898  -4.374 -22.256  0.00  0.00    +0.052 C 
ATOM      8  C   UNL     1      31.759  -7.281 -22.010  0.00  0.00    +0.352 C 
ATOM      9  C   UNL     1      32.394  -6.429 -20.925  0.00  0.00    +0.292 C 
ATOM     10  C   UNL     1      31.478  -4.149 -24.636  0.00  0.00    +0.009 C 
ATOM     11  C   UNL     1      31.394  -3.078 -22.068  0.00  0.00    +0.015 C 
ATOM     12  C   UNL     1      30.934  -2.882 -24.429  0.00  0.00    +0.035 C 
ATOM     13  C   UNL     1      30.907  -2.340 -23.148  0.00  0.00    +0.008 C 
ATOM     14  H   UNL     1      32.563  -4.508 -20.323  0.00  0.00    +0.155 HD
ENDROOT
BRANCH   6  16
ATOM     15 CL   UNL     1      35.623  -7.114 -23.385  0.00  0.00    -0.082 Cl
ATOM     16  C   UNL     1      33.651  -6.185 -25.026  0.00  0.00    +0.028 C 
ATOM     17  C   UNL     1      34.972  -6.604 -24.901  0.00  0.00    +0.059 C 
ATOM     18  C   UNL     1      33.152  -5.779 -26.260  0.00  0.00    +0.002 C 
ATOM     19  C   UNL     1      35.802  -6.618 -26.022  0.00  0.00    +0.011 C 
ATOM     20  C   UNL     1      33.982  -5.793 -27.381  0.00  0.00    +0.000 C 
ATOM     21  C   UNL     1      35.307  -6.212 -27.262  0.00  0.00    +0.001 C 
ENDBRANCH   6  16
BRANCH   8  22
ATOM     22  O   UNL     1      31.562  -8.582 -21.460  0.00  0.00    -0.421 OA
BRANCH  22  24
ATOM     23  O   UNL     1      32.902  -9.626 -23.019  0.00  0.00    -0.250 OA
ATOM     24  C   UNL     1      31.947  -9.627 -22.256  0.00  0.00    +0.319 C 
BRANCH  24  25
ATOM     25  C   UNL     1      30.995 -10.785 -22.042  0.00  0.00    +0.121 C 
BRANCH  25  26
ATOM     26  C   UNL     1      30.591 -10.965 -20.583  0.00  0.00    +0.121 C 
BRANCH  26  28
ATOM     27  O   UNL     1      32.295 -12.500 -19.823  0.00  0.00    -0.250 OA
ATOM     28  C   UNL     1      31.764 -11.400 -19.741  0.00  0.00    +0.314 C 
BRANCH  28  29
ATOM     29  O   UNL     1      32.186 -10.431 -18.892  0.00  0.00    -0.480 OA
ATOM     30  H   UNL     1      32.006  -9.531 -19.082  0.00  0.00    +0.295 HD
ENDBRANCH  28  29
ENDBRANCH  26  28
ENDBRANCH  25  26
ENDBRANCH  24  25
ENDBRANCH  22  24
ENDBRANCH   8  22
TORSDOF 7
ENDMDL
MODEL 5
REMARK VINA RESULT:      -6.5      4.699      7.617
REMARK  Name = 629281
REMARK  7 active torsions:
REMARK  status: ('A' for Active; 'I' for Inactive)
REMARK    1  A    between atoms: C_6  and  C_16
REMARK    2  A    between atoms: C_8  and  O_22
REMARK    3  A    between atoms: O_22  and  C_24
REMARK    4  A    between atoms: C_24  and  C_25
REMARK    5  A    between atoms: C_25  and  C_26
REMARK    6  A    between atoms: C_26  and  C_28
REMARK    7  A    between atoms: C_28  and  O_29
REMARK                            x       y       z     vdW  Elec       q    Type
REMARK                         _______ _______ _______ _____ _____    ______ ____
ROOT
ATOM      1 BR   UNL     1      31.661  -2.561 -21.855  0.00  0.00    -0.049 Br
ATOM      2  O   UNL     1      34.003  -5.642 -29.137  0.00  0.00    -0.269 OA
ATOM      3  N   UNL     1      32.898  -4.475 -27.515  0.00  0.00    -0.279 N 
ATOM      4  N   UNL     1      34.362  -6.664 -26.050  0.00  0.00    -0.224 NA
ATOM      5  C   UNL     1      32.941  -4.903 -25.064  0.00  0.00    +0.031 C 
ATOM      6  C   UNL     1      33.465  -6.296 -25.202  0.00  0.00    +0.082 C 
ATOM      7  C   UNL     1      32.608  -4.122 -26.181  0.00  0.00    +0.052 C 
ATOM      8  C   UNL     1      34.965  -5.678 -26.928  0.00  0.00    +0.352 C 
ATOM      9  C   UNL     1      33.913  -5.300 -27.957  0.00  0.00    +0.292 C 
ATOM     10  C   UNL     1      32.673  -4.419 -23.773  0.00  0.00    +0.009 C 
ATOM     11  C   UNL     1      31.915  -2.917 -25.990  0.00  0.00    +0.015 C 
ATOM     12  C   UNL     1      32.028  -3.196 -23.597  0.00  0.00    +0.035 C 
ATOM     13  C   UNL     1      31.634  -2.453 -24.704  0.00  0.00    +0.008 C 
ATOM     14  H   UNL     1      32.314  -4.090 -28.208  0.00  0.00    +0.155 HD
ENDROOT
BRANCH   6  16
ATOM     15 CL   UNL     1      35.315  -7.562 -23.077  0.00  0.00    -0.082 Cl
ATOM     16  C   UNL     1      32.898  -7.362 -24.327  0.00  0.00    +0.028 C 
ATOM     17  C   UNL     1      33.662  -7.984 -23.345  0.00  0.00    +0.059 C 
ATOM     18  C   UNL     1      31.568  -7.722 -24.521  0.00  0.00    +0.002 C 
ATOM     19  C   UNL     1      33.090  -8.976 -22.548  0.00  0.00    +0.011 C 
ATOM     20  C   UNL     1      30.996  -8.715 -23.724  0.00  0.00    +0.000 C 
ATOM     21  C   UNL     1      31.757  -9.341 -22.737  0.00  0.00    +0.001 C 
ENDBRANCH   6  16
BRANCH   8  22
ATOM     22  O   UNL     1      36.108  -6.137 -27.646  0.00  0.00    -0.421 OA
BRANCH  22  24
ATOM     23  O   UNL     1      37.436  -5.022 -29.166  0.00  0.00    -0.250 OA
ATOM     24  C   UNL     1      36.994  -5.168 -28.035  0.00  0.00    +0.319 C 
BRANCH  24  25
ATOM     25  C   UNL     1      37.340  -4.309 -26.838  0.00  0.00    +0.121 C 
BRANCH  25  26
ATOM     26  C   UNL     1      37.445  -2.826 -27.176  0.00  0.00    +0.121 C 
BRANCH  26  28
ATOM     27  O   UNL     1      35.166  -2.049 -26.976  0.00  0.00    -0.250 OA
ATOM     28  C   UNL     1      36.132  -2.288 -27.689  0.00  0.00    +0.314 C 
BRANCH  28  29
ATOM     29  O   UNL     1      36.143  -2.074 -29.027  0.00  0.00    -0.480 OA
ATOM     30  H   UNL     1      36.524  -2.710 -29.600  0.00  0.00    +0.295 HD
ENDBRANCH  28  29
ENDBRANCH  26  28
ENDBRANCH  25  26
ENDBRANCH  24  25
ENDBRANCH  22  24
ENDBRANCH   8  22
TORSDOF 7
ENDMDL
MODEL 6
REMARK VINA RESULT:      -6.4      4.825      7.483
REMARK  Name = 629281
REMARK  7 active torsions:
REMARK  status: ('A' for Active; 'I' for Inactive)
REMARK    1  A    between atoms: C_6  and  C_16
REMARK    2  A    between atoms: C_8  and  O_22
REMARK    3  A    between atoms: O_22  and  C_24
REMARK    4  A    between atoms: C_24  and  C_25
REMARK    5  A    between atoms: C_25  and  C_26
REMARK    6  A    between atoms: C_26  and  C_28
REMARK    7  A    between atoms: C_28  and  O_29
REMARK                            x       y       z     vdW  Elec       q    Type
REMARK                         _______ _______ _______ _____ _____    ______ ____
ROOT
ATOM      1 BR   UNL     1      31.592  -2.537 -21.789  0.00  0.00    -0.049 Br
ATOM      2  O   UNL     1      33.943  -5.450 -29.138  0.00  0.00    -0.269 OA
ATOM      3  N   UNL     1      32.825  -4.334 -27.488  0.00  0.00    -0.279 N 
ATOM      4  N   UNL     1      34.353  -6.509 -26.070  0.00  0.00    -0.224 NA
ATOM      5  C   UNL     1      32.899  -4.798 -25.045  0.00  0.00    +0.031 C 
ATOM      6  C   UNL     1      33.454  -6.176 -25.208  0.00  0.00    +0.082 C 
ATOM      7  C   UNL     1      32.538  -4.009 -26.147  0.00  0.00    +0.052 C 
ATOM      8  C   UNL     1      34.924  -5.495 -26.938  0.00  0.00    +0.352 C 
ATOM      9  C   UNL     1      33.854  -5.128 -27.951  0.00  0.00    +0.292 C 
ATOM     10  C   UNL     1      32.631  -4.341 -23.744  0.00  0.00    +0.009 C 
ATOM     11  C   UNL     1      31.818  -2.823 -25.931  0.00  0.00    +0.015 C 
ATOM     12  C   UNL     1      31.958  -3.136 -23.543  0.00  0.00    +0.035 C 
ATOM     13  C   UNL     1      31.537  -2.387 -24.636  0.00  0.00    +0.008 C 
ATOM     14  H   UNL     1      32.225  -3.953 -28.170  0.00  0.00    +0.155 HD
ENDROOT
BRANCH   6  16
ATOM     15 CL   UNL     1      35.337  -7.392 -23.083  0.00  0.00    -0.082 Cl
ATOM     16  C   UNL     1      32.921  -7.269 -24.345  0.00  0.00    +0.028 C 
ATOM     17  C   UNL     1      33.701  -7.871 -23.364  0.00  0.00    +0.059 C 
ATOM     18  C   UNL     1      31.606  -7.674 -24.550  0.00  0.00    +0.002 C 
ATOM     19  C   UNL     1      33.161  -8.889 -22.578  0.00  0.00    +0.011 C 
ATOM     20  C   UNL     1      31.066  -8.693 -23.764  0.00  0.00    +0.000 C 
ATOM     21  C   UNL     1      31.843  -9.300 -22.778  0.00  0.00    +0.001 C 
ENDBRANCH   6  16
BRANCH   8  22
ATOM     22  O   UNL     1      36.071  -5.916 -27.672  0.00  0.00    -0.421 OA
BRANCH  22  24
ATOM     23  O   UNL     1      37.462  -4.305 -26.785  0.00  0.00    -0.250 OA
ATOM     24  C   UNL     1      37.113  -5.028 -27.707  0.00  0.00    +0.319 C 
BRANCH  24  25
ATOM     25  C   UNL     1      37.761  -5.083 -29.074  0.00  0.00    +0.121 C 
BRANCH  25  26
ATOM     26  C   UNL     1      39.144  -5.724 -29.055  0.00  0.00    +0.121 C 
BRANCH  26  28
ATOM     27  O   UNL     1      38.082  -7.706 -29.940  0.00  0.00    -0.250 OA
ATOM     28  C   UNL     1      39.111  -7.112 -29.645  0.00  0.00    +0.314 C 
BRANCH  28  29
ATOM     29  O   UNL     1      40.351  -7.627 -29.836  0.00  0.00    -0.480 OA
ATOM     30  H   UNL     1      40.614  -8.399 -29.374  0.00  0.00    +0.295 HD
ENDBRANCH  28  29
ENDBRANCH  26  28
ENDBRANCH  25  26
ENDBRANCH  24  25
ENDBRANCH  22  24
ENDBRANCH   8  22
TORSDOF 7
ENDMDL
MODEL 7
REMARK VINA RESULT:      -6.1     16.606     19.057
REMARK  Name = 629281
REMARK  7 active torsions:
REMARK  status: ('A' for Active; 'I' for Inactive)
REMARK    1  A    between atoms: C_6  and  C_16
REMARK    2  A    between atoms: C_8  and  O_22
REMARK    3  A    between atoms: O_22  and  C_24
REMARK    4  A    between atoms: C_24  and  C_25
REMARK    5  A    between atoms: C_25  and  C_26
REMARK    6  A    between atoms: C_26  and  C_28
REMARK    7  A    between atoms: C_28  and  O_29
REMARK                            x       y       z     vdW  Elec       q    Type
REMARK                         _______ _______ _______ _____ _____    ______ ____
ROOT
ATOM      1 BR   UNL     1      32.374 -20.682 -19.891  0.00  0.00    -0.049 Br
ATOM      2  O   UNL     1      35.357 -25.873 -14.219  0.00  0.00    -0.269 OA
ATOM      3  N   UNL     1      34.870 -24.854 -16.204  0.00  0.00    -0.279 N 
ATOM      4  N   UNL     1      32.799 -23.833 -14.268  0.00  0.00    -0.224 NA
ATOM      5  C   UNL     1      33.047 -23.220 -16.646  0.00  0.00    +0.031 C 
ATOM      6  C   UNL     1      32.275 -23.576 -15.418  0.00  0.00    +0.082 C 
ATOM      7  C   UNL     1      34.211 -23.909 -17.017  0.00  0.00    +0.052 C 
ATOM      8  C   UNL     1      34.238 -23.742 -14.101  0.00  0.00    +0.352 C 
ATOM      9  C   UNL     1      34.844 -24.931 -14.827  0.00  0.00    +0.292 C 
ATOM     10  C   UNL     1      32.516 -22.241 -17.503  0.00  0.00    +0.009 C 
ATOM     11  C   UNL     1      34.764 -23.683 -18.287  0.00  0.00    +0.015 C 
ATOM     12  C   UNL     1      33.105 -21.992 -18.742  0.00  0.00    +0.035 C 
ATOM     13  C   UNL     1      34.218 -22.724 -19.141  0.00  0.00    +0.008 C 
ATOM     14  H   UNL     1      35.410 -25.533 -16.670  0.00  0.00    +0.155 HD
ENDROOT
BRANCH   6  16
ATOM     15 CL   UNL     1      30.885 -25.857 -13.867  0.00  0.00    -0.082 Cl
ATOM     16  C   UNL     1      30.791 -23.682 -15.511  0.00  0.00    +0.028 C 
ATOM     17  C   UNL     1      30.086 -24.678 -14.844  0.00  0.00    +0.059 C 
ATOM     18  C   UNL     1      30.121 -22.744 -16.292  0.00  0.00    +0.002 C 
ATOM     19  C   UNL     1      28.697 -24.738 -14.958  0.00  0.00    +0.011 C 
ATOM     20  C   UNL     1      28.732 -22.805 -16.407  0.00  0.00    +0.000 C 
ATOM     21  C   UNL     1      28.020 -23.801 -15.740  0.00  0.00    +0.001 C 
ENDBRANCH   6  16
BRANCH   8  22
ATOM     22  O   UNL     1      34.687 -23.803 -12.749  0.00  0.00    -0.421 OA
BRANCH  22  24
ATOM     23  O   UNL     1      36.728 -22.887 -13.308  0.00  0.00    -0.250 OA
ATOM     24  C   UNL     1      36.013 -23.528 -12.551  0.00  0.00    +0.319 C 
BRANCH  24  25
ATOM     25  C   UNL     1      36.455 -24.150 -11.243  0.00  0.00    +0.121 C 
BRANCH  25  26
ATOM     26  C   UNL     1      37.856 -24.745 -11.306  0.00  0.00    +0.121 C 
BRANCH  26  28
ATOM     27  O   UNL     1      38.711 -26.371 -12.875  0.00  0.00    -0.250 OA
ATOM     28  C   UNL     1      37.861 -26.055 -12.052  0.00  0.00    +0.314 C 
BRANCH  28  29
ATOM     29  O   UNL     1      36.830 -26.862 -11.699  0.00  0.00    -0.480 OA
ATOM     30  H   UNL     1      35.947 -26.562 -11.793  0.00  0.00    +0.295 HD
ENDBRANCH  28  29
ENDBRANCH  26  28
ENDBRANCH  25  26
ENDBRANCH  24  25
ENDBRANCH  22  24
ENDBRANCH   8  22
TORSDOF 7
ENDMDL
MODEL 8
REMARK VINA RESULT:      -5.9      5.054      7.472
REMARK  Name = 629281
REMARK  7 active torsions:
REMARK  status: ('A' for Active; 'I' for Inactive)
REMARK    1  A    between atoms: C_6  and  C_16
REMARK    2  A    between atoms: C_8  and  O_22
REMARK    3  A    between atoms: O_22  and  C_24
REMARK    4  A    between atoms: C_24  and  C_25
REMARK    5  A    between atoms: C_25  and  C_26
REMARK    6  A    between atoms: C_26  and  C_28
REMARK    7  A    between atoms: C_28  and  O_29
REMARK                            x       y       z     vdW  Elec       q    Type
REMARK                         _______ _______ _______ _____ _____    ______ ____
ROOT
ATOM      1 BR   UNL     1      31.475  -9.338 -22.123  0.00  0.00    -0.049 Br
ATOM      2  O   UNL     1      36.472  -4.468 -26.519  0.00  0.00    -0.269 OA
ATOM      3  N   UNL     1      35.683  -6.029 -25.049  0.00  0.00    -0.279 N 
ATOM      4  N   UNL     1      33.323  -4.258 -25.658  0.00  0.00    -0.224 NA
ATOM      5  C   UNL     1      33.360  -6.236 -24.183  0.00  0.00    +0.031 C 
ATOM      6  C   UNL     1      32.972  -4.845 -24.566  0.00  0.00    +0.082 C 
ATOM      7  C   UNL     1      34.669  -6.713 -24.350  0.00  0.00    +0.052 C 
ATOM      8  C   UNL     1      34.120  -4.978 -26.634  0.00  0.00    +0.352 C 
ATOM      9  C   UNL     1      35.520  -5.100 -26.057  0.00  0.00    +0.292 C 
ATOM     10  C   UNL     1      32.406  -7.037 -23.534  0.00  0.00    +0.009 C 
ATOM     11  C   UNL     1      35.028  -7.940 -23.770  0.00  0.00    +0.015 C 
ATOM     12  C   UNL     1      32.765  -8.276 -23.005  0.00  0.00    +0.035 C 
ATOM     13  C   UNL     1      34.078  -8.719 -23.108  0.00  0.00    +0.008 C 
ATOM     14  H   UNL     1      36.611  -6.235 -24.791  0.00  0.00    +0.155 HD
ENDROOT
BRANCH   6  16
ATOM     15 CL   UNL     1      31.402  -2.433 -25.687  0.00  0.00    -0.082 Cl
ATOM     16  C   UNL     1      32.146  -4.046 -23.616  0.00  0.00    +0.028 C 
ATOM     17  C   UNL     1      31.408  -2.945 -24.037  0.00  0.00    +0.059 C 
ATOM     18  C   UNL     1      32.133  -4.436 -22.280  0.00  0.00    +0.002 C 
ATOM     19  C   UNL     1      30.647  -2.227 -23.114  0.00  0.00    +0.011 C 
ATOM     20  C   UNL     1      31.372  -3.717 -21.357  0.00  0.00    +0.000 C 
ATOM     21  C   UNL     1      30.630  -2.613 -21.773  0.00  0.00    +0.001 C 
ENDBRANCH   6  16
BRANCH   8  22
ATOM     22  O   UNL     1      34.243  -4.331 -27.899  0.00  0.00    -0.421 OA
BRANCH  22  24
ATOM     23  O   UNL     1      32.847  -4.493 -29.728  0.00  0.00    -0.250 OA
ATOM     24  C   UNL     1      33.662  -4.979 -28.956  0.00  0.00    +0.319 C 
BRANCH  24  25
ATOM     25  C   UNL     1      34.190  -6.397 -29.014  0.00  0.00    +0.121 C 
BRANCH  25  26
ATOM     26  C   UNL     1      35.341  -6.567 -29.998  0.00  0.00    +0.121 C 
BRANCH  26  28
ATOM     27  O   UNL     1      37.371  -7.111 -28.806  0.00  0.00    -0.250 OA
ATOM     28  C   UNL     1      36.668  -6.266 -29.345  0.00  0.00    +0.314 C 
BRANCH  28  29
ATOM     29  O   UNL     1      37.011  -4.958 -29.438  0.00  0.00    -0.480 OA
ATOM     30  H   UNL     1      37.741  -4.629 -28.950  0.00  0.00    +0.295 HD
ENDBRANCH  28  29
ENDBRANCH  26  28
ENDBRANCH  25  26
ENDBRANCH  24  25
ENDBRANCH  22  24
ENDBRANCH   8  22
TORSDOF 7
ENDMDL
MODEL 9
REMARK VINA RESULT:      -5.8      4.042      7.532
REMARK  Name = 629281
REMARK  7 active torsions:
REMARK  status: ('A' for Active; 'I' for Inactive)
REMARK    1  A    between atoms: C_6  and  C_16
REMARK    2  A    between atoms: C_8  and  O_22
REMARK    3  A    between atoms: O_22  and  C_24
REMARK    4  A    between atoms: C_24  and  C_25
REMARK    5  A    between atoms: C_25  and  C_26
REMARK    6  A    between atoms: C_26  and  C_28
REMARK    7  A    between atoms: C_28  and  O_29
REMARK                            x       y       z     vdW  Elec       q    Type
REMARK                         _______ _______ _______ _____ _____    ______ ____
ROOT
ATOM      1 BR   UNL     1      33.722 -13.725 -23.563  0.00  0.00    -0.049 Br
ATOM      2  O   UNL     1      34.035  -5.495 -23.995  0.00  0.00    -0.269 OA
ATOM      3  N   UNL     1      34.621  -7.702 -23.940  0.00  0.00    -0.279 N 
ATOM      4  N   UNL     1      31.850  -7.595 -22.760  0.00  0.00    -0.224 NA
ATOM      5  C   UNL     1      33.240  -9.603 -23.121  0.00  0.00    +0.031 C 
ATOM      6  C   UNL     1      32.296  -8.735 -22.355  0.00  0.00    +0.082 C 
ATOM      7  C   UNL     1      34.365  -9.078 -23.774  0.00  0.00    +0.052 C 
ATOM      8  C   UNL     1      32.238  -7.099 -24.068  0.00  0.00    +0.352 C 
ATOM      9  C   UNL     1      33.694  -6.680 -23.968  0.00  0.00    +0.292 C 
ATOM     10  C   UNL     1      33.045 -10.993 -23.081  0.00  0.00    +0.009 C 
ATOM     11  C   UNL     1      35.332  -9.959 -24.284  0.00  0.00    +0.015 C 
ATOM     12  C   UNL     1      33.989 -11.856 -23.635  0.00  0.00    +0.035 C 
ATOM     13  C   UNL     1      35.140 -11.340 -24.221  0.00  0.00    +0.008 C 
ATOM     14  H   UNL     1      35.564  -7.440 -24.047  0.00  0.00    +0.155 HD
ENDROOT
BRANCH   6  16
ATOM     15 CL   UNL     1      33.021  -6.968 -19.927  0.00  0.00    -0.082 Cl
ATOM     16  C   UNL     1      31.847  -9.183 -21.005  0.00  0.00    +0.028 C 
ATOM     17  C   UNL     1      32.131  -8.447 -19.859  0.00  0.00    +0.059 C 
ATOM     18  C   UNL     1      31.128 -10.371 -20.921  0.00  0.00    +0.002 C 
ATOM     19  C   UNL     1      31.690  -8.903 -18.617  0.00  0.00    +0.011 C 
ATOM     20  C   UNL     1      30.688 -10.828 -19.678  0.00  0.00    +0.000 C 
ATOM     21  C   UNL     1      30.968 -10.094 -18.527  0.00  0.00    +0.001 C 
ENDBRANCH   6  16
BRANCH   8  22
ATOM     22  O   UNL     1      31.504  -5.962 -24.516  0.00  0.00    -0.421 OA
BRANCH  22  24
ATOM     23  O   UNL     1      30.860  -5.352 -22.387  0.00  0.00    -0.250 OA
ATOM     24  C   UNL     1      31.140  -5.069 -23.544  0.00  0.00    +0.319 C 
BRANCH  24  25
ATOM     25  C   UNL     1      31.135  -3.675 -24.133  0.00  0.00    +0.121 C 
BRANCH  25  26
ATOM     26  C   UNL     1      31.954  -2.679 -23.319  0.00  0.00    +0.121 C 
BRANCH  26  28
ATOM     27  O   UNL     1      30.188  -1.786 -21.933  0.00  0.00    -0.250 OA
ATOM     28  C   UNL     1      31.273  -2.347 -22.015  0.00  0.00    +0.314 C 
BRANCH  28  29
ATOM     29  O   UNL     1      31.984  -2.757 -20.936  0.00  0.00    -0.480 OA
ATOM     30  H   UNL     1      32.920  -2.793 -20.977  0.00  0.00    +0.295 HD
ENDBRANCH  28  29
ENDBRANCH  26  28
ENDBRANCH  25  26
ENDBRANCH  24  25
ENDBRANCH  22  24
ENDBRANCH   8  22
TORSDOF 7
ENDMDL
