MODEL 1
REMARK VINA RESULT:     -11.3      0.000      0.000
REMARK  Name = 9562794
REMARK  7 active torsions:
REMARK  status: ('A' for Active; 'I' for Inactive)
REMARK    1  A    between atoms: N_1  and  C_2
REMARK    2  A    between atoms: N_1  and  N_16
REMARK    3  A    between atoms: C_2  and  C_5
REMARK    4  A    between atoms: C_6  and  O_13
REMARK    5  A    between atoms: C_17  and  C_19
REMARK    6  A    between atoms: C_22  and  O_25
REMARK    7  A    between atoms: C_23  and  O_27
REMARK                            x       y       z     vdW  Elec       q    Type
REMARK                         _______ _______ _______ _____ _____    ______ ____
ROOT
ATOM      1  N   UNL     1      37.090 -21.659 -16.654  0.00  0.00    -0.126 NA
ENDROOT
BRANCH   1   3
ATOM      2  O   UNL     1      38.510 -23.569 -15.307  0.00  0.00    -0.269 OA
ATOM      3  N   UNL     1      36.625 -22.243 -15.525  0.00  0.00    -0.228 N 
ATOM      4  C   UNL     1      37.409 -23.200 -14.908  0.00  0.00    +0.260 C 
ATOM      5  H   UNL     1      35.750 -21.992 -15.151  0.00  0.00    +0.171 HD
BRANCH   4   6
ATOM      6  C   UNL     1      36.832 -23.817 -13.685  0.00  0.00    +0.058 C 
ATOM      7  C   UNL     1      35.490 -24.136 -13.671  0.00  0.00    +0.044 C 
ATOM      8  C   UNL     1      37.656 -24.050 -12.605  0.00  0.00    +0.008 C 
ATOM      9  C   UNL     1      34.947 -24.714 -12.522  0.00  0.00    +0.168 C 
ATOM     10  C   UNL     1      35.759 -24.959 -11.415  0.00  0.00    +0.167 C 
ATOM     11  C   UNL     1      37.113 -24.627 -11.456  0.00  0.00    +0.040 C 
BRANCH   9  12
ATOM     12  O   UNL     1      33.623 -25.033 -12.495  0.00  0.00    -0.503 OA
ATOM     13  H   UNL     1      33.330 -25.845 -12.857  0.00  0.00    +0.292 HD
ENDBRANCH   9  12
BRANCH  10  14
ATOM     14  O   UNL     1      35.241 -25.522 -10.289  0.00  0.00    -0.503 OA
ATOM     15  H   UNL     1      35.233 -26.455 -10.193  0.00  0.00    +0.292 HD
ENDBRANCH  10  14
ENDBRANCH   4   6
ENDBRANCH   1   3
BRANCH   1  16
ATOM     16  C   UNL     1      36.742 -22.260 -17.752  0.00  0.00    +0.141 C 
BRANCH  16  19
ATOM     17  C   UNL     1      35.655 -20.898 -19.547  0.00  0.00    +0.000 C 
ATOM     18  C   UNL     1      34.488 -20.546 -20.267  0.00  0.00    -0.000 C 
ATOM     19  C   UNL     1      35.568 -21.859 -18.527  0.00  0.00    +0.031 C 
ATOM     20  C   UNL     1      34.348 -22.463 -18.220  0.00  0.00    +0.136 C 
ATOM     21  C   UNL     1      33.269 -21.164 -19.944  0.00  0.00    +0.003 C 
ATOM     22  C   UNL     1      36.874 -20.280 -19.870  0.00  0.00    -0.000 C 
ATOM     23  C   UNL     1      33.201 -22.116 -18.927  0.00  0.00    +0.037 C 
ATOM     24  C   UNL     1      34.574 -19.584 -21.286  0.00  0.00    -0.000 C 
ATOM     25  C   UNL     1      36.942 -19.327 -20.887  0.00  0.00    -0.000 C 
ATOM     26  C   UNL     1      35.794 -18.979 -21.594  0.00  0.00    -0.000 C 
BRANCH  20  27
ATOM     27  O   UNL     1      34.255 -23.397 -17.230  0.00  0.00    -0.472 OA
ATOM     28  C   UNL     1      32.984 -23.548 -16.601  0.00  0.00    +0.252 C 
ENDBRANCH  20  27
ENDBRANCH  16  19
ENDBRANCH   1  16
TORSDOF 7
ENDMDL
MODEL 2
REMARK VINA RESULT:     -11.0      3.678      8.754
REMARK  Name = 9562794
REMARK  7 active torsions:
REMARK  status: ('A' for Active; 'I' for Inactive)
REMARK    1  A    between atoms: N_1  and  C_2
REMARK    2  A    between atoms: N_1  and  N_16
REMARK    3  A    between atoms: C_2  and  C_5
REMARK    4  A    between atoms: C_6  and  O_13
REMARK    5  A    between atoms: C_17  and  C_19
REMARK    6  A    between atoms: C_22  and  O_25
REMARK    7  A    between atoms: C_23  and  O_27
REMARK                            x       y       z     vdW  Elec       q    Type
REMARK                         _______ _______ _______ _____ _____    ______ ____
ROOT
ATOM      1  N   UNL     1      36.450 -20.566 -19.163  0.00  0.00    -0.126 NA
ENDROOT
BRANCH   1   3
ATOM      2  O   UNL     1      37.631 -18.870 -20.956  0.00  0.00    -0.269 OA
ATOM      3  N   UNL     1      35.775 -20.037 -20.210  0.00  0.00    -0.228 N 
ATOM      4  C   UNL     1      36.450 -19.188 -21.067  0.00  0.00    +0.260 C 
ATOM      5  H   UNL     1      34.826 -20.251 -20.358  0.00  0.00    +0.171 HD
BRANCH   4   6
ATOM      6  C   UNL     1      35.646 -18.625 -22.183  0.00  0.00    +0.058 C 
ATOM      7  C   UNL     1      35.563 -17.254 -22.318  0.00  0.00    +0.044 C 
ATOM      8  C   UNL     1      35.008 -19.490 -23.047  0.00  0.00    +0.008 C 
ATOM      9  C   UNL     1      34.807 -16.725 -23.365  0.00  0.00    +0.168 C 
ATOM     10  C   UNL     1      34.152 -17.579 -24.253  0.00  0.00    +0.167 C 
ATOM     11  C   UNL     1      34.252 -18.961 -24.094  0.00  0.00    +0.040 C 
BRANCH   9  12
ATOM     12  O   UNL     1      34.716 -15.374 -23.510  0.00  0.00    -0.503 OA
ATOM     13  H   UNL     1      35.430 -14.893 -23.880  0.00  0.00    +0.292 HD
ENDBRANCH   9  12
BRANCH  10  14
ATOM     14  O   UNL     1      33.411 -17.075 -25.278  0.00  0.00    -0.503 OA
ATOM     15  H   UNL     1      32.808 -16.375 -25.120  0.00  0.00    +0.292 HD
ENDBRANCH  10  14
ENDBRANCH   4   6
ENDBRANCH   1   3
BRANCH   1  16
ATOM     16  C   UNL     1      36.260 -21.840 -18.991  0.00  0.00    +0.141 C 
BRANCH  16  19
ATOM     17  C   UNL     1      35.695 -22.748 -16.728  0.00  0.00    +0.000 C 
ATOM     18  C   UNL     1      34.725 -23.250 -15.828  0.00  0.00    -0.000 C 
ATOM     19  C   UNL     1      35.299 -22.364 -18.020  0.00  0.00    +0.031 C 
ATOM     20  C   UNL     1      33.966 -22.473 -18.418  0.00  0.00    +0.136 C 
ATOM     21  C   UNL     1      33.388 -23.352 -16.246  0.00  0.00    +0.003 C 
ATOM     22  C   UNL     1      37.031 -22.646 -16.311  0.00  0.00    -0.000 C 
ATOM     23  C   UNL     1      33.013 -22.967 -17.533  0.00  0.00    +0.037 C 
ATOM     24  C   UNL     1      35.120 -23.635 -14.537  0.00  0.00    -0.000 C 
ATOM     25  C   UNL     1      37.407 -23.032 -15.024  0.00  0.00    -0.000 C 
ATOM     26  C   UNL     1      36.453 -23.526 -14.138  0.00  0.00    -0.000 C 
BRANCH  20  27
ATOM     27  O   UNL     1      33.573 -22.102 -19.670  0.00  0.00    -0.472 OA
ATOM     28  C   UNL     1      32.716 -20.968 -19.770  0.00  0.00    +0.252 C 
ENDBRANCH  20  27
ENDBRANCH  16  19
ENDBRANCH   1  16
TORSDOF 7
ENDMDL
MODEL 3
REMARK VINA RESULT:     -10.7      3.299      8.355
REMARK  Name = 9562794
REMARK  7 active torsions:
REMARK  status: ('A' for Active; 'I' for Inactive)
REMARK    1  A    between atoms: N_1  and  C_2
REMARK    2  A    between atoms: N_1  and  N_16
REMARK    3  A    between atoms: C_2  and  C_5
REMARK    4  A    between atoms: C_6  and  O_13
REMARK    5  A    between atoms: C_17  and  C_19
REMARK    6  A    between atoms: C_22  and  O_25
REMARK    7  A    between atoms: C_23  and  O_27
REMARK                            x       y       z     vdW  Elec       q    Type
REMARK                         _______ _______ _______ _____ _____    ______ ____
ROOT
ATOM      1  N   UNL     1      32.821 -23.148 -18.139  0.00  0.00    -0.126 NA
ENDROOT
BRANCH   1   3
ATOM      2  O   UNL     1      35.475 -22.588 -18.498  0.00  0.00    -0.269 OA
ATOM      3  N   UNL     1      33.248 -22.173 -18.976  0.00  0.00    -0.228 N 
ATOM      4  C   UNL     1      34.608 -21.957 -19.096  0.00  0.00    +0.260 C 
ATOM      5  H   UNL     1      32.605 -21.631 -19.487  0.00  0.00    +0.171 HD
BRANCH   4   6
ATOM      6  C   UNL     1      35.008 -20.858 -20.014  0.00  0.00    +0.058 C 
ATOM      7  C   UNL     1      36.323 -20.440 -20.017  0.00  0.00    +0.044 C 
ATOM      8  C   UNL     1      34.053 -20.293 -20.832  0.00  0.00    +0.008 C 
ATOM      9  C   UNL     1      36.699 -19.407 -20.877  0.00  0.00    +0.168 C 
ATOM     10  C   UNL     1      35.752 -18.818 -21.715  0.00  0.00    +0.167 C 
ATOM     11  C   UNL     1      34.429 -19.261 -21.693  0.00  0.00    +0.040 C 
BRANCH   9  12
ATOM     12  O   UNL     1      37.993 -18.983 -20.890  0.00  0.00    -0.503 OA
ATOM     13  H   UNL     1      38.260 -18.276 -20.337  0.00  0.00    +0.292 HD
ENDBRANCH   9  12
BRANCH  10  14
ATOM     14  O   UNL     1      36.106 -17.810 -22.559  0.00  0.00    -0.503 OA
ATOM     15  H   UNL     1      36.950 -17.816 -22.967  0.00  0.00    +0.292 HD
ENDBRANCH  10  14
ENDBRANCH   4   6
ENDBRANCH   1   3
BRANCH   1  16
ATOM     16  C   UNL     1      32.326 -22.715 -17.019  0.00  0.00    +0.141 C 
BRANCH  16  19
ATOM     17  C   UNL     1      31.195 -24.159 -15.317  0.00  0.00    +0.000 C 
ATOM     18  C   UNL     1      31.270 -24.918 -14.125  0.00  0.00    -0.000 C 
ATOM     19  C   UNL     1      32.347 -23.512 -15.793  0.00  0.00    +0.031 C 
ATOM     20  C   UNL     1      33.556 -23.612 -15.103  0.00  0.00    +0.136 C 
ATOM     21  C   UNL     1      32.496 -25.007 -13.443  0.00  0.00    +0.003 C 
ATOM     22  C   UNL     1      29.970 -24.070 -15.998  0.00  0.00    -0.000 C 
ATOM     23  C   UNL     1      33.630 -24.358 -13.931  0.00  0.00    +0.037 C 
ATOM     24  C   UNL     1      30.119 -25.564 -13.648  0.00  0.00    -0.000 C 
ATOM     25  C   UNL     1      28.835 -24.718 -15.510  0.00  0.00    -0.000 C 
ATOM     26  C   UNL     1      28.909 -25.464 -14.337  0.00  0.00    -0.000 C 
BRANCH  20  27
ATOM     27  O   UNL     1      34.680 -22.988 -15.558  0.00  0.00    -0.472 OA
ATOM     28  C   UNL     1      35.862 -23.132 -14.775  0.00  0.00    +0.252 C 
ENDBRANCH  20  27
ENDBRANCH  16  19
ENDBRANCH   1  16
TORSDOF 7
ENDMDL
MODEL 4
REMARK VINA RESULT:     -10.5      3.118      7.962
REMARK  Name = 9562794
REMARK  7 active torsions:
REMARK  status: ('A' for Active; 'I' for Inactive)
REMARK    1  A    between atoms: N_1  and  C_2
REMARK    2  A    between atoms: N_1  and  N_16
REMARK    3  A    between atoms: C_2  and  C_5
REMARK    4  A    between atoms: C_6  and  O_13
REMARK    5  A    between atoms: C_17  and  C_19
REMARK    6  A    between atoms: C_22  and  O_25
REMARK    7  A    between atoms: C_23  and  O_27
REMARK                            x       y       z     vdW  Elec       q    Type
REMARK                         _______ _______ _______ _____ _____    ______ ____
ROOT
ATOM      1  N   UNL     1      32.676 -23.203 -17.982  0.00  0.00    -0.126 NA
ENDROOT
BRANCH   1   3
ATOM      2  O   UNL     1      35.337 -22.768 -18.444  0.00  0.00    -0.269 OA
ATOM      3  N   UNL     1      33.115 -22.229 -18.813  0.00  0.00    -0.228 N 
ATOM      4  C   UNL     1      34.478 -22.078 -18.988  0.00  0.00    +0.260 C 
ATOM      5  H   UNL     1      32.479 -21.642 -19.281  0.00  0.00    +0.171 HD
BRANCH   4   6
ATOM      6  C   UNL     1      34.895 -20.978 -19.896  0.00  0.00    +0.058 C 
ATOM      7  C   UNL     1      36.206 -20.551 -19.866  0.00  0.00    +0.044 C 
ATOM      8  C   UNL     1      33.957 -20.419 -20.738  0.00  0.00    +0.008 C 
ATOM      9  C   UNL     1      36.597 -19.517 -20.718  0.00  0.00    +0.168 C 
ATOM     10  C   UNL     1      35.668 -18.934 -21.579  0.00  0.00    +0.167 C 
ATOM     11  C   UNL     1      34.348 -19.384 -21.590  0.00  0.00    +0.040 C 
BRANCH   9  12
ATOM     12  O   UNL     1      37.889 -19.085 -20.698  0.00  0.00    -0.503 OA
ATOM     13  H   UNL     1      38.549 -19.561 -21.162  0.00  0.00    +0.292 HD
ENDBRANCH   9  12
BRANCH  10  14
ATOM     14  O   UNL     1      36.037 -17.924 -22.414  0.00  0.00    -0.503 OA
ATOM     15  H   UNL     1      36.188 -18.099 -23.323  0.00  0.00    +0.292 HD
ENDBRANCH  10  14
ENDBRANCH   4   6
ENDBRANCH   1   3
BRANCH   1  16
ATOM     16  C   UNL     1      32.086 -22.768 -16.910  0.00  0.00    +0.141 C 
BRANCH  16  19
ATOM     17  C   UNL     1      33.176 -23.714 -14.865  0.00  0.00    +0.000 C 
ATOM     18  C   UNL     1      33.075 -24.475 -13.677  0.00  0.00    -0.000 C 
ATOM     19  C   UNL     1      32.038 -23.544 -15.671  0.00  0.00    +0.031 C 
ATOM     20  C   UNL     1      30.818 -24.117 -15.309  0.00  0.00    +0.136 C 
ATOM     21  C   UNL     1      31.838 -25.045 -13.328  0.00  0.00    +0.003 C 
ATOM     22  C   UNL     1      34.411 -23.145 -15.213  0.00  0.00    -0.000 C 
ATOM     23  C   UNL     1      30.719 -24.867 -14.141  0.00  0.00    +0.037 C 
ATOM     24  C   UNL     1      34.212 -24.645 -12.871  0.00  0.00    -0.000 C 
ATOM     25  C   UNL     1      35.532 -23.323 -14.402  0.00  0.00    -0.000 C 
ATOM     26  C   UNL     1      35.433 -24.073 -13.232  0.00  0.00    -0.000 C 
BRANCH  20  27
ATOM     27  O   UNL     1      29.708 -23.958 -16.085  0.00  0.00    -0.472 OA
ATOM     28  C   UNL     1      28.616 -23.242 -15.514  0.00  0.00    +0.252 C 
ENDBRANCH  20  27
ENDBRANCH  16  19
ENDBRANCH   1  16
TORSDOF 7
ENDMDL
MODEL 5
REMARK VINA RESULT:     -10.2      5.124      8.013
REMARK  Name = 9562794
REMARK  7 active torsions:
REMARK  status: ('A' for Active; 'I' for Inactive)
REMARK    1  A    between atoms: N_1  and  C_2
REMARK    2  A    between atoms: N_1  and  N_16
REMARK    3  A    between atoms: C_2  and  C_5
REMARK    4  A    between atoms: C_6  and  O_13
REMARK    5  A    between atoms: C_17  and  C_19
REMARK    6  A    between atoms: C_22  and  O_25
REMARK    7  A    between atoms: C_23  and  O_27
REMARK                            x       y       z     vdW  Elec       q    Type
REMARK                         _______ _______ _______ _____ _____    ______ ____
ROOT
ATOM      1  N   UNL     1      35.309 -17.211 -21.783  0.00  0.00    -0.126 NA
ENDROOT
BRANCH   1   3
ATOM      2  O   UNL     1      34.673 -19.784 -22.462  0.00  0.00    -0.269 OA
ATOM      3  N   UNL     1      35.265 -18.210 -20.870  0.00  0.00    -0.228 N 
ATOM      4  C   UNL     1      34.933 -19.481 -21.300  0.00  0.00    +0.260 C 
ATOM      5  H   UNL     1      35.464 -18.036 -19.922  0.00  0.00    +0.171 HD
BRANCH   4   6
ATOM      6  C   UNL     1      34.881 -20.527 -20.246  0.00  0.00    +0.058 C 
ATOM      7  C   UNL     1      33.651 -20.993 -19.831  0.00  0.00    +0.044 C 
ATOM      8  C   UNL     1      36.064 -20.997 -19.716  0.00  0.00    +0.008 C 
ATOM      9  C   UNL     1      33.602 -21.974 -18.839  0.00  0.00    +0.168 C 
ATOM     10  C   UNL     1      34.784 -22.466 -18.286  0.00  0.00    +0.167 C 
ATOM     11  C   UNL     1      36.016 -21.978 -18.724  0.00  0.00    +0.040 C 
BRANCH   9  12
ATOM     12  O   UNL     1      32.394 -22.443 -18.420  0.00  0.00    -0.503 OA
ATOM     13  H   UNL     1      31.620 -22.248 -18.910  0.00  0.00    +0.292 HD
ENDBRANCH   9  12
BRANCH  10  14
ATOM     14  O   UNL     1      34.750 -23.423 -17.318  0.00  0.00    -0.503 OA
ATOM     15  H   UNL     1      35.442 -23.478 -16.689  0.00  0.00    +0.292 HD
ENDBRANCH  10  14
ENDBRANCH   4   6
ENDBRANCH   1   3
BRANCH   1  16
ATOM     16  C   UNL     1      34.816 -16.084 -21.368  0.00  0.00    +0.141 C 
BRANCH  16  19
ATOM     17  C   UNL     1      33.335 -14.106 -21.768  0.00  0.00    +0.000 C 
ATOM     18  C   UNL     1      32.696 -13.232 -22.679  0.00  0.00    -0.000 C 
ATOM     19  C   UNL     1      34.132 -15.151 -22.264  0.00  0.00    +0.031 C 
ATOM     20  C   UNL     1      34.295 -15.332 -23.638  0.00  0.00    +0.136 C 
ATOM     21  C   UNL     1      32.871 -13.428 -24.058  0.00  0.00    +0.003 C 
ATOM     22  C   UNL     1      33.161 -13.909 -20.389  0.00  0.00    -0.000 C 
ATOM     23  C   UNL     1      33.665 -14.472 -24.533  0.00  0.00    +0.037 C 
ATOM     24  C   UNL     1      31.899 -12.187 -22.183  0.00  0.00    -0.000 C 
ATOM     25  C   UNL     1      32.366 -12.866 -19.913  0.00  0.00    -0.000 C 
ATOM     26  C   UNL     1      31.735 -12.006 -20.809  0.00  0.00    -0.000 C 
BRANCH  20  27
ATOM     27  O   UNL     1      35.066 -16.344 -24.129  0.00  0.00    -0.472 OA
ATOM     28  C   UNL     1      34.398 -17.372 -24.857  0.00  0.00    +0.252 C 
ENDBRANCH  20  27
ENDBRANCH  16  19
ENDBRANCH   1  16
TORSDOF 7
ENDMDL
MODEL 6
REMARK VINA RESULT:     -10.1      9.207     12.817
REMARK  Name = 9562794
REMARK  7 active torsions:
REMARK  status: ('A' for Active; 'I' for Inactive)
REMARK    1  A    between atoms: N_1  and  C_2
REMARK    2  A    between atoms: N_1  and  N_16
REMARK    3  A    between atoms: C_2  and  C_5
REMARK    4  A    between atoms: C_6  and  O_13
REMARK    5  A    between atoms: C_17  and  C_19
REMARK    6  A    between atoms: C_22  and  O_25
REMARK    7  A    between atoms: C_23  and  O_27
REMARK                            x       y       z     vdW  Elec       q    Type
REMARK                         _______ _______ _______ _____ _____    ______ ____
ROOT
ATOM      1  N   UNL     1      33.719 -11.440 -23.530  0.00  0.00    -0.126 NA
ENDROOT
BRANCH   1   3
ATOM      2  O   UNL     1      33.373 -13.540 -25.248  0.00  0.00    -0.269 OA
ATOM      3  N   UNL     1      34.068 -12.707 -23.203  0.00  0.00    -0.228 N 
ATOM      4  C   UNL     1      33.857 -13.708 -24.132  0.00  0.00    +0.260 C 
ATOM      5  H   UNL     1      34.463 -12.910 -22.325  0.00  0.00    +0.171 HD
BRANCH   4   6
ATOM      6  C   UNL     1      34.242 -15.078 -23.704  0.00  0.00    +0.058 C 
ATOM      7  C   UNL     1      34.544 -15.299 -22.376  0.00  0.00    +0.044 C 
ATOM      8  C   UNL     1      34.286 -16.083 -24.646  0.00  0.00    +0.008 C 
ATOM      9  C   UNL     1      34.908 -16.585 -21.973  0.00  0.00    +0.168 C 
ATOM     10  C   UNL     1      34.960 -17.620 -22.907  0.00  0.00    +0.167 C 
ATOM     11  C   UNL     1      34.649 -17.369 -24.244  0.00  0.00    +0.040 C 
BRANCH   9  12
ATOM     12  O   UNL     1      35.209 -16.818 -20.665  0.00  0.00    -0.503 OA
ATOM     13  H   UNL     1      34.765 -17.496 -20.195  0.00  0.00    +0.292 HD
ENDBRANCH   9  12
BRANCH  10  14
ATOM     14  O   UNL     1      35.313 -18.879 -22.527  0.00  0.00    -0.503 OA
ATOM     15  H   UNL     1      36.191 -19.178 -22.657  0.00  0.00    +0.292 HD
ENDBRANCH  10  14
ENDBRANCH   4   6
ENDBRANCH   1   3
BRANCH   1  16
ATOM     16  C   UNL     1      32.522 -11.101 -23.157  0.00  0.00    +0.141 C 
BRANCH  16  19
ATOM     17  C   UNL     1      32.408  -9.198 -21.536  0.00  0.00    +0.000 C 
ATOM     18  C   UNL     1      32.119  -8.729 -20.232  0.00  0.00    -0.000 C 
ATOM     19  C   UNL     1      32.239 -10.562 -21.827  0.00  0.00    +0.031 C 
ATOM     20  C   UNL     1      31.792 -11.449 -20.848  0.00  0.00    +0.136 C 
ATOM     21  C   UNL     1      31.671  -9.636 -19.258  0.00  0.00    +0.003 C 
ATOM     22  C   UNL     1      32.856  -8.291 -22.509  0.00  0.00    -0.000 C 
ATOM     23  C   UNL     1      31.510 -10.987 -19.565  0.00  0.00    +0.037 C 
ATOM     24  C   UNL     1      32.289  -7.366 -19.940  0.00  0.00    -0.000 C 
ATOM     25  C   UNL     1      33.019  -6.939 -22.202  0.00  0.00    -0.000 C 
ATOM     26  C   UNL     1      32.736  -6.477 -20.919  0.00  0.00    -0.000 C 
BRANCH  20  27
ATOM     27  O   UNL     1      31.625 -12.774 -21.121  0.00  0.00    -0.472 OA
ATOM     28  C   UNL     1      32.216 -13.702 -20.214  0.00  0.00    +0.252 C 
ENDBRANCH  20  27
ENDBRANCH  16  19
ENDBRANCH   1  16
TORSDOF 7
ENDMDL
MODEL 7
REMARK VINA RESULT:     -10.0     10.362     13.673
REMARK  Name = 9562794
REMARK  7 active torsions:
REMARK  status: ('A' for Active; 'I' for Inactive)
REMARK    1  A    between atoms: N_1  and  C_2
REMARK    2  A    between atoms: N_1  and  N_16
REMARK    3  A    between atoms: C_2  and  C_5
REMARK    4  A    between atoms: C_6  and  O_13
REMARK    5  A    between atoms: C_17  and  C_19
REMARK    6  A    between atoms: C_22  and  O_25
REMARK    7  A    between atoms: C_23  and  O_27
REMARK                            x       y       z     vdW  Elec       q    Type
REMARK                         _______ _______ _______ _____ _____    ______ ____
ROOT
ATOM      1  N   UNL     1      32.374 -11.014 -23.145  0.00  0.00    -0.126 NA
ENDROOT
BRANCH   1   3
ATOM      2  O   UNL     1      34.258 -12.649 -24.269  0.00  0.00    -0.269 OA
ATOM      3  N   UNL     1      32.810 -12.141 -22.535  0.00  0.00    -0.228 N 
ATOM      4  C   UNL     1      33.764 -12.910 -23.175  0.00  0.00    +0.260 C 
ATOM      5  H   UNL     1      32.456 -12.407 -21.656  0.00  0.00    +0.171 HD
BRANCH   4   6
ATOM      6  C   UNL     1      34.184 -14.144 -22.461  0.00  0.00    +0.058 C 
ATOM      7  C   UNL     1      34.674 -15.203 -23.197  0.00  0.00    +0.044 C 
ATOM      8  C   UNL     1      34.069 -14.191 -21.088  0.00  0.00    +0.008 C 
ATOM      9  C   UNL     1      35.067 -16.363 -22.527  0.00  0.00    +0.168 C 
ATOM     10  C   UNL     1      34.961 -16.436 -21.138  0.00  0.00    +0.167 C 
ATOM     11  C   UNL     1      34.462 -15.351 -20.418  0.00  0.00    +0.040 C 
BRANCH   9  12
ATOM     12  O   UNL     1      35.552 -17.417 -23.241  0.00  0.00    -0.503 OA
ATOM     13  H   UNL     1      36.264 -17.292 -23.836  0.00  0.00    +0.292 HD
ENDBRANCH   9  12
BRANCH  10  14
ATOM     14  O   UNL     1      35.340 -17.562 -20.473  0.00  0.00    -0.503 OA
ATOM     15  H   UNL     1      35.832 -18.225 -20.918  0.00  0.00    +0.292 HD
ENDBRANCH  10  14
ENDBRANCH   4   6
ENDBRANCH   1   3
BRANCH   1  16
ATOM     16  C   UNL     1      31.466 -10.362 -22.483  0.00  0.00    +0.141 C 
BRANCH  16  19
ATOM     17  C   UNL     1      31.776  -7.880 -22.423  0.00  0.00    +0.000 C 
ATOM     18  C   UNL     1      32.065  -6.709 -21.682  0.00  0.00    -0.000 C 
ATOM     19  C   UNL     1      31.759  -9.121 -21.766  0.00  0.00    +0.031 C 
ATOM     20  C   UNL     1      32.023  -9.207 -20.399  0.00  0.00    +0.136 C 
ATOM     21  C   UNL     1      32.329  -6.814 -20.306  0.00  0.00    +0.003 C 
ATOM     22  C   UNL     1      31.512  -7.775 -23.798  0.00  0.00    -0.000 C 
ATOM     23  C   UNL     1      32.308  -8.056 -19.671  0.00  0.00    +0.037 C 
ATOM     24  C   UNL     1      32.083  -5.468 -22.338  0.00  0.00    -0.000 C 
ATOM     25  C   UNL     1      31.533  -6.533 -24.435  0.00  0.00    -0.000 C 
ATOM     26  C   UNL     1      31.819  -5.381 -23.706  0.00  0.00    -0.000 C 
BRANCH  20  27
ATOM     27  O   UNL     1      32.009 -10.408 -19.753  0.00  0.00    -0.472 OA
ATOM     28  C   UNL     1      31.742 -10.386 -18.353  0.00  0.00    +0.252 C 
ENDBRANCH  20  27
ENDBRANCH  16  19
ENDBRANCH   1  16
TORSDOF 7
ENDMDL
MODEL 8
REMARK VINA RESULT:      -9.8      2.429      8.131
REMARK  Name = 9562794
REMARK  7 active torsions:
REMARK  status: ('A' for Active; 'I' for Inactive)
REMARK    1  A    between atoms: N_1  and  C_2
REMARK    2  A    between atoms: N_1  and  N_16
REMARK    3  A    between atoms: C_2  and  C_5
REMARK    4  A    between atoms: C_6  and  O_13
REMARK    5  A    between atoms: C_17  and  C_19
REMARK    6  A    between atoms: C_22  and  O_25
REMARK    7  A    between atoms: C_23  and  O_27
REMARK                            x       y       z     vdW  Elec       q    Type
REMARK                         _______ _______ _______ _____ _____    ______ ____
ROOT
ATOM      1  N   UNL     1      36.385 -22.807 -16.850  0.00  0.00    -0.126 NA
ENDROOT
BRANCH   1   3
ATOM      2  O   UNL     1      34.927 -22.938 -19.161  0.00  0.00    -0.269 OA
ATOM      3  N   UNL     1      36.404 -21.817 -17.774  0.00  0.00    -0.228 N 
ATOM      4  C   UNL     1      35.637 -21.966 -18.914  0.00  0.00    +0.260 C 
ATOM      5  H   UNL     1      36.952 -21.011 -17.637  0.00  0.00    +0.171 HD
BRANCH   4   6
ATOM      6  C   UNL     1      35.719 -20.855 -19.897  0.00  0.00    +0.058 C 
ATOM      7  C   UNL     1      36.949 -20.286 -20.157  0.00  0.00    +0.044 C 
ATOM      8  C   UNL     1      34.564 -20.428 -20.517  0.00  0.00    +0.008 C 
ATOM      9  C   UNL     1      37.026 -19.241 -21.079  0.00  0.00    +0.168 C 
ATOM     10  C   UNL     1      35.872 -18.790 -21.719  0.00  0.00    +0.167 C 
ATOM     11  C   UNL     1      34.641 -19.382 -21.439  0.00  0.00    +0.040 C 
BRANCH   9  12
ATOM     12  O   UNL     1      38.234 -18.669 -21.344  0.00  0.00    -0.503 OA
ATOM     13  H   UNL     1      38.738 -18.959 -22.078  0.00  0.00    +0.292 HD
ENDBRANCH   9  12
BRANCH  10  14
ATOM     14  O   UNL     1      35.934 -17.771 -22.621  0.00  0.00    -0.503 OA
ATOM     15  H   UNL     1      35.265 -17.679 -23.270  0.00  0.00    +0.292 HD
ENDBRANCH  10  14
ENDBRANCH   4   6
ENDBRANCH   1   3
BRANCH   1  16
ATOM     16  C   UNL     1      36.078 -22.414 -15.650  0.00  0.00    +0.141 C 
BRANCH  16  19
ATOM     17  C   UNL     1      35.794 -23.663 -13.500  0.00  0.00    +0.000 C 
ATOM     18  C   UNL     1      34.982 -24.455 -12.654  0.00  0.00    -0.000 C 
ATOM     19  C   UNL     1      35.283 -23.235 -14.737  0.00  0.00    +0.031 C 
ATOM     20  C   UNL     1      33.992 -23.584 -15.133  0.00  0.00    +0.136 C 
ATOM     21  C   UNL     1      33.684 -24.797 -13.069  0.00  0.00    +0.003 C 
ATOM     22  C   UNL     1      37.091 -23.321 -13.085  0.00  0.00    -0.000 C 
ATOM     23  C   UNL     1      33.194 -24.364 -14.301  0.00  0.00    +0.037 C 
ATOM     24  C   UNL     1      35.492 -24.884 -11.418  0.00  0.00    -0.000 C 
ATOM     25  C   UNL     1      37.582 -23.755 -11.853  0.00  0.00    -0.000 C 
ATOM     26  C   UNL     1      36.784 -24.535 -11.021  0.00  0.00    -0.000 C 
BRANCH  20  27
ATOM     27  O   UNL     1      33.488 -23.173 -16.332  0.00  0.00    -0.472 OA
ATOM     28  C   UNL     1      32.070 -23.200 -16.482  0.00  0.00    +0.252 C 
ENDBRANCH  20  27
ENDBRANCH  16  19
ENDBRANCH   1  16
TORSDOF 7
ENDMDL
MODEL 9
REMARK VINA RESULT:      -9.7      8.648     12.341
REMARK  Name = 9562794
REMARK  7 active torsions:
REMARK  status: ('A' for Active; 'I' for Inactive)
REMARK    1  A    between atoms: N_1  and  C_2
REMARK    2  A    between atoms: N_1  and  N_16
REMARK    3  A    between atoms: C_2  and  C_5
REMARK    4  A    between atoms: C_6  and  O_13
REMARK    5  A    between atoms: C_17  and  C_19
REMARK    6  A    between atoms: C_22  and  O_25
REMARK    7  A    between atoms: C_23  and  O_27
REMARK                            x       y       z     vdW  Elec       q    Type
REMARK                         _______ _______ _______ _____ _____    ______ ____
ROOT
ATOM      1  N   UNL     1      33.637 -13.088 -24.261  0.00  0.00    -0.126 NA
ENDROOT
BRANCH   1   3
ATOM      2  O   UNL     1      33.709 -15.371 -25.766  0.00  0.00    -0.269 OA
ATOM      3  N   UNL     1      33.943 -14.295 -23.730  0.00  0.00    -0.228 N 
ATOM      4  C   UNL     1      33.955 -15.398 -24.563  0.00  0.00    +0.260 C 
ATOM      5  H   UNL     1      34.151 -14.386 -22.772  0.00  0.00    +0.171 HD
BRANCH   4   6
ATOM      6  C   UNL     1      34.278 -16.695 -23.914  0.00  0.00    +0.058 C 
ATOM      7  C   UNL     1      34.892 -16.686 -22.679  0.00  0.00    +0.044 C 
ATOM      8  C   UNL     1      33.953 -17.865 -24.567  0.00  0.00    +0.008 C 
ATOM      9  C   UNL     1      35.197 -17.904 -22.069  0.00  0.00    +0.168 C 
ATOM     10  C   UNL     1      34.879 -19.102 -22.709  0.00  0.00    +0.167 C 
ATOM     11  C   UNL     1      34.257 -19.083 -23.957  0.00  0.00    +0.040 C 
BRANCH   9  12
ATOM     12  O   UNL     1      35.805 -17.909 -20.850  0.00  0.00    -0.503 OA
ATOM     13  H   UNL     1      35.602 -17.244 -20.223  0.00  0.00    +0.292 HD
ENDBRANCH   9  12
BRANCH  10  14
ATOM     14  O   UNL     1      35.171 -20.297 -22.124  0.00  0.00    -0.503 OA
ATOM     15  H   UNL     1      34.585 -21.022 -22.224  0.00  0.00    +0.292 HD
ENDBRANCH  10  14
ENDBRANCH   4   6
ENDBRANCH   1   3
BRANCH   1  16
ATOM     16  C   UNL     1      34.162 -12.078 -23.635  0.00  0.00    +0.141 C 
BRANCH  16  19
ATOM     17  C   UNL     1      33.718  -9.668 -23.126  0.00  0.00    +0.000 C 
ATOM     18  C   UNL     1      32.896  -8.684 -22.527  0.00  0.00    -0.000 C 
ATOM     19  C   UNL     1      33.349 -11.020 -23.034  0.00  0.00    +0.031 C 
ATOM     20  C   UNL     1      32.186 -11.396 -22.362  0.00  0.00    +0.136 C 
ATOM     21  C   UNL     1      31.729  -9.082 -21.854  0.00  0.00    +0.003 C 
ATOM     22  C   UNL     1      34.885  -9.271 -23.799  0.00  0.00    -0.000 C 
ATOM     23  C   UNL     1      31.378 -10.429 -21.772  0.00  0.00    +0.037 C 
ATOM     24  C   UNL     1      33.265  -7.333 -22.618  0.00  0.00    -0.000 C 
ATOM     25  C   UNL     1      35.237  -7.924 -23.881  0.00  0.00    -0.000 C 
ATOM     26  C   UNL     1      34.428  -6.955 -23.291  0.00  0.00    -0.000 C 
BRANCH  20  27
ATOM     27  O   UNL     1      31.820 -12.707 -22.267  0.00  0.00    -0.472 OA
ATOM     28  C   UNL     1      31.926 -13.318 -20.984  0.00  0.00    +0.252 C 
ENDBRANCH  20  27
ENDBRANCH  16  19
ENDBRANCH   1  16
TORSDOF 7
ENDMDL
