MODEL 1
REMARK VINA RESULT:     -11.7      0.000      0.000
REMARK  Name = 5287739
REMARK  3 active torsions:
REMARK  status: ('A' for Active; 'I' for Inactive)
REMARK    1  A    between atoms: C_2  and  O_21
REMARK    2  A    between atoms: C_3  and  O_23
REMARK    3  A    between atoms: C_4  and  O_25
REMARK                            x       y       z     vdW  Elec       q    Type
REMARK                         _______ _______ _______ _____ _____    ______ ____
ROOT
ATOM      1  C   UNL     1      35.591 -24.056 -13.292  0.00  0.00    -0.021 C 
ATOM      2  C   UNL     1      37.197 -25.128 -11.102  0.00  0.00    +0.168 C 
ATOM      3  C   UNL     1      37.859 -24.169 -12.094  0.00  0.00    +0.162 C 
ATOM      4  C   UNL     1      35.769 -24.675 -10.814  0.00  0.00    +0.144 C 
ATOM      5  C   UNL     1      34.919 -24.681 -12.083  0.00  0.00    +0.058 C 
ATOM      6  C   UNL     1      36.984 -23.831 -13.284  0.00  0.00    +0.003 C 
ATOM      7  C   UNL     1      34.827 -23.740 -14.457  0.00  0.00    -0.004 C 
ATOM      8  C   UNL     1      35.476 -23.159 -15.577  0.00  0.00    -0.000 C 
ATOM      9  C   UNL     1      36.865 -22.911 -15.544  0.00  0.00    -0.000 C 
ATOM     10  C   UNL     1      37.599 -23.252 -14.404  0.00  0.00    -0.002 C 
ATOM     11  C   UNL     1      34.744 -22.822 -16.750  0.00  0.00    -0.000 C 
ATOM     12  C   UNL     1      33.440 -23.977 -14.566  0.00  0.00    -0.000 C 
ATOM     13  C   UNL     1      33.355 -23.069 -16.815  0.00  0.00    -0.000 C 
ATOM     14  C   UNL     1      35.398 -22.239 -17.861  0.00  0.00    -0.000 C 
ATOM     15  C   UNL     1      37.499 -22.334 -16.652  0.00  0.00    -0.000 C 
ATOM     16  C   UNL     1      32.719 -23.649 -15.717  0.00  0.00    -0.000 C 
ATOM     17  C   UNL     1      36.775 -22.000 -17.796  0.00  0.00    -0.000 C 
ATOM     18  C   UNL     1      32.642 -22.732 -17.974  0.00  0.00    -0.000 C 
ATOM     19  C   UNL     1      34.661 -21.911 -19.009  0.00  0.00    -0.000 C 
ATOM     20  C   UNL     1      33.291 -22.157 -19.063  0.00  0.00    +0.000 C 
ENDROOT
BRANCH   2  21
ATOM     21  O   UNL     1      37.183 -26.448 -11.645  0.00  0.00    -0.379 OA
ATOM     22  H   UNL     1      38.061 -26.847 -11.548  0.00  0.00    +0.211 HD
ENDBRANCH   2  21
BRANCH   3  23
ATOM     23  O   UNL     1      38.175 -22.945 -11.433  0.00  0.00    -0.377 OA
ATOM     24  H   UNL     1      39.092 -22.698 -11.632  0.00  0.00    +0.211 HD
ENDBRANCH   3  23
BRANCH   4  25
ATOM     25  O   UNL     1      35.164 -25.540  -9.857  0.00  0.00    -0.382 OA
ATOM     26  H   UNL     1      34.857 -25.020  -9.098  0.00  0.00    +0.210 HD
ENDBRANCH   4  25
TORSDOF 3
ENDMDL
MODEL 2
REMARK VINA RESULT:     -11.0      0.912      3.143
REMARK  Name = 5287739
REMARK  3 active torsions:
REMARK  status: ('A' for Active; 'I' for Inactive)
REMARK    1  A    between atoms: C_2  and  O_21
REMARK    2  A    between atoms: C_3  and  O_23
REMARK    3  A    between atoms: C_4  and  O_25
REMARK                            x       y       z     vdW  Elec       q    Type
REMARK                         _______ _______ _______ _____ _____    ______ ____
ROOT
ATOM      1  C   UNL     1      36.491 -23.464 -13.765  0.00  0.00    -0.021 C 
ATOM      2  C   UNL     1      36.875 -23.911 -10.905  0.00  0.00    +0.168 C 
ATOM      3  C   UNL     1      35.581 -24.403 -11.555  0.00  0.00    +0.162 C 
ATOM      4  C   UNL     1      38.052 -24.139 -11.849  0.00  0.00    +0.144 C 
ATOM      5  C   UNL     1      37.876 -23.359 -13.152  0.00  0.00    +0.058 C 
ATOM      6  C   UNL     1      35.416 -23.950 -12.992  0.00  0.00    +0.003 C 
ATOM      7  C   UNL     1      36.263 -23.029 -15.106  0.00  0.00    -0.004 C 
ATOM      8  C   UNL     1      34.960 -23.133 -15.658  0.00  0.00    -0.000 C 
ATOM      9  C   UNL     1      33.900 -23.650 -14.883  0.00  0.00    -0.000 C 
ATOM     10  C   UNL     1      34.139 -24.047 -13.565  0.00  0.00    -0.002 C 
ATOM     11  C   UNL     1      34.700 -22.718 -16.994  0.00  0.00    -0.000 C 
ATOM     12  C   UNL     1      37.272 -22.486 -15.930  0.00  0.00    -0.000 C 
ATOM     13  C   UNL     1      35.740 -22.187 -17.788  0.00  0.00    -0.000 C 
ATOM     14  C   UNL     1      33.398 -22.831 -17.540  0.00  0.00    -0.000 C 
ATOM     15  C   UNL     1      32.617 -23.754 -15.437  0.00  0.00    -0.000 C 
ATOM     16  C   UNL     1      37.019 -22.075 -17.241  0.00  0.00    -0.000 C 
ATOM     17  C   UNL     1      32.369 -23.352 -16.749  0.00  0.00    -0.000 C 
ATOM     18  C   UNL     1      35.474 -21.782 -19.104  0.00  0.00    -0.000 C 
ATOM     19  C   UNL     1      33.160 -22.418 -18.859  0.00  0.00    -0.000 C 
ATOM     20  C   UNL     1      34.192 -21.897 -19.635  0.00  0.00    +0.000 C 
ENDROOT
BRANCH   2  21
ATOM     21  O   UNL     1      36.764 -22.520 -10.602  0.00  0.00    -0.379 OA
ATOM     22  H   UNL     1      36.992 -22.000 -11.388  0.00  0.00    +0.211 HD
ENDBRANCH   2  21
BRANCH   3  23
ATOM     23  O   UNL     1      35.558 -25.830 -11.550  0.00  0.00    -0.377 OA
ATOM     24  H   UNL     1      35.709 -26.151 -10.647  0.00  0.00    +0.211 HD
ENDBRANCH   3  23
BRANCH   4  25
ATOM     25  O   UNL     1      39.265 -23.722 -11.230  0.00  0.00    -0.382 OA
ATOM     26  H   UNL     1      39.948 -24.397 -11.367  0.00  0.00    +0.210 HD
ENDBRANCH   4  25
TORSDOF 3
ENDMDL
MODEL 3
REMARK VINA RESULT:     -10.5      0.980      1.291
REMARK  Name = 5287739
REMARK  3 active torsions:
REMARK  status: ('A' for Active; 'I' for Inactive)
REMARK    1  A    between atoms: C_2  and  O_21
REMARK    2  A    between atoms: C_3  and  O_23
REMARK    3  A    between atoms: C_4  and  O_25
REMARK                            x       y       z     vdW  Elec       q    Type
REMARK                         _______ _______ _______ _____ _____    ______ ____
ROOT
ATOM      1  C   UNL     1      35.176 -23.808 -14.481  0.00  0.00    -0.021 C 
ATOM      2  C   UNL     1      36.650 -25.160 -12.353  0.00  0.00    +0.168 C 
ATOM      3  C   UNL     1      37.394 -24.156 -13.236  0.00  0.00    +0.162 C 
ATOM      4  C   UNL     1      35.239 -24.652 -12.064  0.00  0.00    +0.144 C 
ATOM      5  C   UNL     1      34.432 -24.497 -13.351  0.00  0.00    +0.058 C 
ATOM      6  C   UNL     1      36.578 -23.665 -14.414  0.00  0.00    +0.003 C 
ATOM      7  C   UNL     1      34.469 -23.347 -15.633  0.00  0.00    -0.004 C 
ATOM      8  C   UNL     1      35.184 -22.708 -16.678  0.00  0.00    -0.000 C 
ATOM      9  C   UNL     1      36.583 -22.544 -16.584  0.00  0.00    -0.000 C 
ATOM     10  C   UNL     1      37.260 -23.025 -15.460  0.00  0.00    -0.002 C 
ATOM     11  C   UNL     1      34.510 -22.227 -17.835  0.00  0.00    -0.000 C 
ATOM     12  C   UNL     1      33.075 -23.494 -15.801  0.00  0.00    -0.000 C 
ATOM     13  C   UNL     1      33.112 -22.388 -17.960  0.00  0.00    -0.000 C 
ATOM     14  C   UNL     1      35.231 -21.586 -18.871  0.00  0.00    -0.000 C 
ATOM     15  C   UNL     1      37.283 -21.908 -17.619  0.00  0.00    -0.000 C 
ATOM     16  C   UNL     1      32.410 -23.025 -16.936  0.00  0.00    -0.000 C 
ATOM     17  C   UNL     1      36.615 -21.434 -18.747  0.00  0.00    -0.000 C 
ATOM     18  C   UNL     1      32.456 -21.910 -19.103  0.00  0.00    -0.000 C 
ATOM     19  C   UNL     1      34.550 -21.118 -20.004  0.00  0.00    -0.000 C 
ATOM     20  C   UNL     1      33.171 -21.278 -20.118  0.00  0.00    +0.000 C 
ENDROOT
BRANCH   2  21
ATOM     21  O   UNL     1      36.581 -26.423 -13.012  0.00  0.00    -0.379 OA
ATOM     22  H   UNL     1      36.962 -26.345 -13.900  0.00  0.00    +0.211 HD
ENDBRANCH   2  21
BRANCH   3  23
ATOM     23  O   UNL     1      37.755 -23.015 -12.459  0.00  0.00    -0.377 OA
ATOM     24  H   UNL     1      37.778 -22.231 -13.030  0.00  0.00    +0.211 HD
ENDBRANCH   3  23
BRANCH   4  25
ATOM     25  O   UNL     1      34.557 -25.563 -11.206  0.00  0.00    -0.382 OA
ATOM     26  H   UNL     1      34.224 -26.310 -11.727  0.00  0.00    +0.210 HD
ENDBRANCH   4  25
TORSDOF 3
ENDMDL
MODEL 4
REMARK VINA RESULT:     -10.5      2.958      4.857
REMARK  Name = 5287739
REMARK  3 active torsions:
REMARK  status: ('A' for Active; 'I' for Inactive)
REMARK    1  A    between atoms: C_2  and  O_21
REMARK    2  A    between atoms: C_3  and  O_23
REMARK    3  A    between atoms: C_4  and  O_25
REMARK                            x       y       z     vdW  Elec       q    Type
REMARK                         _______ _______ _______ _____ _____    ______ ____
ROOT
ATOM      1  C   UNL     1      31.764 -23.629 -15.728  0.00  0.00    -0.021 C 
ATOM      2  C   UNL     1      30.028 -25.165 -13.953  0.00  0.00    +0.168 C 
ATOM      3  C   UNL     1      31.424 -24.781 -13.459  0.00  0.00    +0.162 C 
ATOM      4  C   UNL     1      29.426 -24.017 -14.757  0.00  0.00    +0.144 C 
ATOM      5  C   UNL     1      30.271 -23.702 -15.991  0.00  0.00    +0.058 C 
ATOM      6  C   UNL     1      32.293 -24.153 -14.530  0.00  0.00    +0.003 C 
ATOM      7  C   UNL     1      32.641 -23.074 -16.709  0.00  0.00    -0.004 C 
ATOM      8  C   UNL     1      34.034 -23.018 -16.444  0.00  0.00    -0.000 C 
ATOM      9  C   UNL     1      34.546 -23.519 -15.228  0.00  0.00    -0.000 C 
ATOM     10  C   UNL     1      33.674 -24.080 -14.292  0.00  0.00    -0.002 C 
ATOM     11  C   UNL     1      34.935 -22.462 -17.396  0.00  0.00    -0.000 C 
ATOM     12  C   UNL     1      32.199 -22.572 -17.953  0.00  0.00    -0.000 C 
ATOM     13  C   UNL     1      34.450 -21.963 -18.625  0.00  0.00    -0.000 C 
ATOM     14  C   UNL     1      36.322 -22.405 -17.121  0.00  0.00    -0.000 C 
ATOM     15  C   UNL     1      35.922 -23.456 -14.972  0.00  0.00    -0.000 C 
ATOM     16  C   UNL     1      33.082 -22.028 -18.889  0.00  0.00    -0.000 C 
ATOM     17  C   UNL     1      36.800 -22.905 -15.905  0.00  0.00    -0.000 C 
ATOM     18  C   UNL     1      35.346 -21.417 -19.555  0.00  0.00    -0.000 C 
ATOM     19  C   UNL     1      37.196 -21.853 -18.069  0.00  0.00    -0.000 C 
ATOM     20  C   UNL     1      36.709 -21.362 -19.278  0.00  0.00    +0.000 C 
ENDROOT
BRANCH   2  21
ATOM     21  O   UNL     1      30.110 -26.333 -14.769  0.00  0.00    -0.379 OA
ATOM     22  H   UNL     1      31.039 -26.518 -14.976  0.00  0.00    +0.211 HD
ENDBRANCH   2  21
BRANCH   3  23
ATOM     23  O   UNL     1      31.309 -23.839 -12.394  0.00  0.00    -0.377 OA
ATOM     24  H   UNL     1      31.531 -22.953 -12.721  0.00  0.00    +0.211 HD
ENDBRANCH   3  23
BRANCH   4  25
ATOM     25  O   UNL     1      28.109 -24.354 -15.182  0.00  0.00    -0.382 OA
ATOM     26  H   UNL     1      27.707 -23.592 -15.629  0.00  0.00    +0.210 HD
ENDBRANCH   4  25
TORSDOF 3
ENDMDL
MODEL 5
REMARK VINA RESULT:     -10.3      1.487      3.707
REMARK  Name = 5287739
REMARK  3 active torsions:
REMARK  status: ('A' for Active; 'I' for Inactive)
REMARK    1  A    between atoms: C_2  and  O_21
REMARK    2  A    between atoms: C_3  and  O_23
REMARK    3  A    between atoms: C_4  and  O_25
REMARK                            x       y       z     vdW  Elec       q    Type
REMARK                         _______ _______ _______ _____ _____    ______ ____
ROOT
ATOM      1  C   UNL     1      36.465 -23.546 -15.613  0.00  0.00    -0.021 C 
ATOM      2  C   UNL     1      36.991 -24.696 -12.981  0.00  0.00    +0.168 C 
ATOM      3  C   UNL     1      35.614 -24.913 -13.613  0.00  0.00    +0.162 C 
ATOM      4  C   UNL     1      38.074 -24.784 -14.052  0.00  0.00    +0.144 C 
ATOM      5  C   UNL     1      37.890 -23.702 -15.116  0.00  0.00    +0.058 C 
ATOM      6  C   UNL     1      35.400 -24.116 -14.884  0.00  0.00    +0.003 C 
ATOM      7  C   UNL     1      36.192 -22.783 -16.789  0.00  0.00    -0.004 C 
ATOM      8  C   UNL     1      34.852 -22.647 -17.235  0.00  0.00    -0.000 C 
ATOM      9  C   UNL     1      33.799 -23.248 -16.512  0.00  0.00    -0.000 C 
ATOM     10  C   UNL     1      34.084 -23.969 -15.350  0.00  0.00    -0.002 C 
ATOM     11  C   UNL     1      34.546 -21.903 -18.409  0.00  0.00    -0.000 C 
ATOM     12  C   UNL     1      37.194 -22.140 -17.549  0.00  0.00    -0.000 C 
ATOM     13  C   UNL     1      35.579 -21.282 -19.145  0.00  0.00    -0.000 C 
ATOM     14  C   UNL     1      33.207 -21.777 -18.849  0.00  0.00    -0.000 C 
ATOM     15  C   UNL     1      32.478 -23.113 -16.960  0.00  0.00    -0.000 C 
ATOM     16  C   UNL     1      36.896 -21.408 -18.701  0.00  0.00    -0.000 C 
ATOM     17  C   UNL     1      32.185 -22.389 -18.115  0.00  0.00    -0.000 C 
ATOM     18  C   UNL     1      35.268 -20.552 -20.301  0.00  0.00    -0.000 C 
ATOM     19  C   UNL     1      32.923 -21.041 -20.009  0.00  0.00    -0.000 C 
ATOM     20  C   UNL     1      33.948 -20.433 -20.729  0.00  0.00    +0.000 C 
ENDROOT
BRANCH   2  21
ATOM     21  O   UNL     1      37.037 -23.415 -12.354  0.00  0.00    -0.379 OA
ATOM     22  H   UNL     1      37.955 -23.200 -12.126  0.00  0.00    +0.211 HD
ENDBRANCH   2  21
BRANCH   3  23
ATOM     23  O   UNL     1      35.452 -26.292 -13.939  0.00  0.00    -0.377 OA
ATOM     24  H   UNL     1      36.167 -26.806 -13.532  0.00  0.00    +0.211 HD
ENDBRANCH   3  23
BRANCH   4  25
ATOM     25  O   UNL     1      39.361 -24.626 -13.462  0.00  0.00    -0.382 OA
ATOM     26  H   UNL     1      39.340 -24.950 -12.548  0.00  0.00    +0.210 HD
ENDBRANCH   4  25
TORSDOF 3
ENDMDL
MODEL 6
REMARK VINA RESULT:     -10.1      2.088      4.458
REMARK  Name = 5287739
REMARK  3 active torsions:
REMARK  status: ('A' for Active; 'I' for Inactive)
REMARK    1  A    between atoms: C_2  and  O_21
REMARK    2  A    between atoms: C_3  and  O_23
REMARK    3  A    between atoms: C_4  and  O_25
REMARK                            x       y       z     vdW  Elec       q    Type
REMARK                         _______ _______ _______ _____ _____    ______ ____
ROOT
ATOM      1  C   UNL     1      35.268 -24.217 -14.658  0.00  0.00    -0.021 C 
ATOM      2  C   UNL     1      37.817 -24.511 -13.264  0.00  0.00    +0.168 C 
ATOM      3  C   UNL     1      36.589 -25.231 -12.703  0.00  0.00    +0.162 C 
ATOM      4  C   UNL     1      37.801 -24.566 -14.789  0.00  0.00    +0.144 C 
ATOM      5  C   UNL     1      36.568 -23.865 -15.357  0.00  0.00    +0.058 C 
ATOM      6  C   UNL     1      35.296 -24.853 -13.399  0.00  0.00    +0.003 C 
ATOM      7  C   UNL     1      34.016 -23.863 -15.247  0.00  0.00    -0.004 C 
ATOM      8  C   UNL     1      32.812 -24.200 -14.575  0.00  0.00    -0.000 C 
ATOM      9  C   UNL     1      32.855 -24.864 -13.331  0.00  0.00    -0.000 C 
ATOM     10  C   UNL     1      34.090 -25.178 -12.759  0.00  0.00    -0.002 C 
ATOM     11  C   UNL     1      31.547 -23.872 -15.139  0.00  0.00    -0.000 C 
ATOM     12  C   UNL     1      33.899 -23.184 -16.479  0.00  0.00    -0.000 C 
ATOM     13  C   UNL     1      31.475 -23.198 -16.378  0.00  0.00    -0.000 C 
ATOM     14  C   UNL     1      30.350 -24.216 -14.465  0.00  0.00    -0.000 C 
ATOM     15  C   UNL     1      31.662 -25.196 -12.675  0.00  0.00    -0.000 C 
ATOM     16  C   UNL     1      32.659 -22.859 -17.033  0.00  0.00    -0.000 C 
ATOM     17  C   UNL     1      30.425 -24.878 -13.235  0.00  0.00    -0.000 C 
ATOM     18  C   UNL     1      30.224 -22.881 -16.926  0.00  0.00    -0.000 C 
ATOM     19  C   UNL     1      29.112 -23.886 -15.035  0.00  0.00    -0.000 C 
ATOM     20  C   UNL     1      29.051 -23.223 -16.258  0.00  0.00    +0.000 C 
ENDROOT
BRANCH   2  21
ATOM     21  O   UNL     1      37.817 -23.150 -12.832  0.00  0.00    -0.379 OA
ATOM     22  H   UNL     1      37.973 -23.115 -11.876  0.00  0.00    +0.211 HD
ENDBRANCH   2  21
BRANCH   3  23
ATOM     23  O   UNL     1      36.757 -26.640 -12.847  0.00  0.00    -0.377 OA
ATOM     24  H   UNL     1      35.911 -27.041 -13.103  0.00  0.00    +0.211 HD
ENDBRANCH   3  23
BRANCH   4  25
ATOM     25  O   UNL     1      38.965 -23.935 -15.314  0.00  0.00    -0.382 OA
ATOM     26  H   UNL     1      38.704 -23.252 -15.951  0.00  0.00    +0.210 HD
ENDBRANCH   4  25
TORSDOF 3
ENDMDL
MODEL 7
REMARK VINA RESULT:     -10.1      2.014      3.507
REMARK  Name = 5287739
REMARK  3 active torsions:
REMARK  status: ('A' for Active; 'I' for Inactive)
REMARK    1  A    between atoms: C_2  and  O_21
REMARK    2  A    between atoms: C_3  and  O_23
REMARK    3  A    between atoms: C_4  and  O_25
REMARK                            x       y       z     vdW  Elec       q    Type
REMARK                         _______ _______ _______ _____ _____    ______ ____
ROOT
ATOM      1  C   UNL     1      35.012 -24.754 -13.762  0.00  0.00    -0.021 C 
ATOM      2  C   UNL     1      37.882 -25.292 -13.717  0.00  0.00    +0.168 C 
ATOM      3  C   UNL     1      37.347 -24.259 -14.710  0.00  0.00    +0.162 C 
ATOM      4  C   UNL     1      37.134 -25.177 -12.391  0.00  0.00    +0.144 C 
ATOM      5  C   UNL     1      35.642 -25.453 -12.571  0.00  0.00    +0.058 C 
ATOM      6  C   UNL     1      35.834 -24.205 -14.769  0.00  0.00    +0.003 C 
ATOM      7  C   UNL     1      33.592 -24.693 -13.892  0.00  0.00    -0.004 C 
ATOM      8  C   UNL     1      33.024 -24.036 -15.015  0.00  0.00    -0.000 C 
ATOM      9  C   UNL     1      33.858 -23.464 -15.999  0.00  0.00    -0.000 C 
ATOM     10  C   UNL     1      35.245 -23.558 -15.867  0.00  0.00    -0.002 C 
ATOM     11  C   UNL     1      31.612 -23.948 -15.170  0.00  0.00    -0.000 C 
ATOM     12  C   UNL     1      32.699 -25.258 -12.956  0.00  0.00    -0.000 C 
ATOM     13  C   UNL     1      30.754 -24.521 -14.206  0.00  0.00    -0.000 C 
ATOM     14  C   UNL     1      31.054 -23.287 -16.291  0.00  0.00    -0.000 C 
ATOM     15  C   UNL     1      33.290 -22.814 -17.104  0.00  0.00    -0.000 C 
ATOM     16  C   UNL     1      31.313 -25.175 -13.107  0.00  0.00    -0.000 C 
ATOM     17  C   UNL     1      31.906 -22.725 -17.247  0.00  0.00    -0.000 C 
ATOM     18  C   UNL     1      29.365 -24.427 -14.367  0.00  0.00    -0.000 C 
ATOM     19  C   UNL     1      29.660 -23.207 -16.427  0.00  0.00    -0.000 C 
ATOM     20  C   UNL     1      28.822 -23.774 -15.470  0.00  0.00    +0.000 C 
ENDROOT
BRANCH   2  21
ATOM     21  O   UNL     1      37.715 -26.606 -14.250  0.00  0.00    -0.379 OA
ATOM     22  H   UNL     1      36.935 -27.020 -13.849  0.00  0.00    +0.211 HD
ENDBRANCH   2  21
BRANCH   3  23
ATOM     23  O   UNL     1      37.809 -22.961 -14.341  0.00  0.00    -0.377 OA
ATOM     24  H   UNL     1      37.293 -22.289 -14.815  0.00  0.00    +0.211 HD
ENDBRANCH   3  23
BRANCH   4  25
ATOM     25  O   UNL     1      37.659 -26.107 -11.449  0.00  0.00    -0.382 OA
ATOM     26  H   UNL     1      37.833 -25.655 -10.609  0.00  0.00    +0.210 HD
ENDBRANCH   4  25
TORSDOF 3
ENDMDL
MODEL 8
REMARK VINA RESULT:      -9.7      1.481      3.695
REMARK  Name = 5287739
REMARK  3 active torsions:
REMARK  status: ('A' for Active; 'I' for Inactive)
REMARK    1  A    between atoms: C_2  and  O_21
REMARK    2  A    between atoms: C_3  and  O_23
REMARK    3  A    between atoms: C_4  and  O_25
REMARK                            x       y       z     vdW  Elec       q    Type
REMARK                         _______ _______ _______ _____ _____    ______ ____
ROOT
ATOM      1  C   UNL     1      35.089 -23.768 -14.807  0.00  0.00    -0.021 C 
ATOM      2  C   UNL     1      34.133 -24.763 -12.233  0.00  0.00    +0.168 C 
ATOM      3  C   UNL     1      33.158 -24.725 -13.411  0.00  0.00    +0.162 C 
ATOM      4  C   UNL     1      35.518 -25.185 -12.717  0.00  0.00    +0.144 C 
ATOM      5  C   UNL     1      36.076 -24.191 -13.734  0.00  0.00    +0.058 C 
ATOM      6  C   UNL     1      33.712 -24.019 -14.633  0.00  0.00    +0.003 C 
ATOM      7  C   UNL     1      35.544 -23.074 -15.969  0.00  0.00    -0.004 C 
ATOM      8  C   UNL     1      34.603 -22.685 -16.959  0.00  0.00    -0.000 C 
ATOM      9  C   UNL     1      33.232 -22.970 -16.786  0.00  0.00    -0.000 C 
ATOM     10  C   UNL     1      32.805 -23.628 -15.629  0.00  0.00    -0.002 C 
ATOM     11  C   UNL     1      35.023 -22.002 -18.134  0.00  0.00    -0.000 C 
ATOM     12  C   UNL     1      36.896 -22.741 -16.198  0.00  0.00    -0.000 C 
ATOM     13  C   UNL     1      36.388 -21.694 -18.328  0.00  0.00    -0.000 C 
ATOM     14  C   UNL     1      34.079 -21.622 -19.118  0.00  0.00    -0.000 C 
ATOM     15  C   UNL     1      32.310 -22.587 -17.768  0.00  0.00    -0.000 C 
ATOM     16  C   UNL     1      37.311 -22.068 -17.350  0.00  0.00    -0.000 C 
ATOM     17  C   UNL     1      32.727 -21.923 -18.921  0.00  0.00    -0.000 C 
ATOM     18  C   UNL     1      36.791 -21.021 -19.490  0.00  0.00    -0.000 C 
ATOM     19  C   UNL     1      34.510 -20.949 -20.271  0.00  0.00    -0.000 C 
ATOM     20  C   UNL     1      35.858 -20.652 -20.455  0.00  0.00    +0.000 C 
ENDROOT
BRANCH   2  21
ATOM     21  O   UNL     1      34.208 -23.472 -11.628  0.00  0.00    -0.379 OA
ATOM     22  H   UNL     1      34.863 -23.489 -10.913  0.00  0.00    +0.211 HD
ENDBRANCH   2  21
BRANCH   3  23
ATOM     23  O   UNL     1      32.829 -26.058 -13.799  0.00  0.00    -0.377 OA
ATOM     24  H   UNL     1      33.132 -26.677 -13.117  0.00  0.00    +0.211 HD
ENDBRANCH   3  23
BRANCH   4  25
ATOM     25  O   UNL     1      36.419 -25.264 -11.616  0.00  0.00    -0.382 OA
ATOM     26  H   UNL     1      36.158 -24.622 -10.938  0.00  0.00    +0.210 HD
ENDBRANCH   4  25
TORSDOF 3
ENDMDL
MODEL 9
REMARK VINA RESULT:      -9.1     10.910     13.774
REMARK  Name = 5287739
REMARK  3 active torsions:
REMARK  status: ('A' for Active; 'I' for Inactive)
REMARK    1  A    between atoms: C_2  and  O_21
REMARK    2  A    between atoms: C_3  and  O_23
REMARK    3  A    between atoms: C_4  and  O_25
REMARK                            x       y       z     vdW  Elec       q    Type
REMARK                         _______ _______ _______ _____ _____    ______ ____
ROOT
ATOM      1  C   UNL     1      32.518 -12.223 -21.064  0.00  0.00    -0.021 C 
ATOM      2  C   UNL     1      31.572  -9.476 -20.771  0.00  0.00    +0.168 C 
ATOM      3  C   UNL     1      31.467 -10.144 -22.144  0.00  0.00    +0.162 C 
ATOM      4  C   UNL     1      31.248 -10.487 -19.675  0.00  0.00    +0.144 C 
ATOM      5  C   UNL     1      32.235 -11.653 -19.686  0.00  0.00    +0.058 C 
ATOM      6  C   UNL     1      32.157 -11.491 -22.215  0.00  0.00    +0.003 C 
ATOM      7  C   UNL     1      33.190 -13.476 -21.200  0.00  0.00    -0.004 C 
ATOM      8  C   UNL     1      33.447 -13.990 -22.498  0.00  0.00    -0.000 C 
ATOM      9  C   UNL     1      33.054 -13.261 -23.641  0.00  0.00    -0.000 C 
ATOM     10  C   UNL     1      32.420 -12.025 -23.486  0.00  0.00    -0.002 C 
ATOM     11  C   UNL     1      34.106 -15.239 -22.670  0.00  0.00    -0.000 C 
ATOM     12  C   UNL     1      33.627 -14.248 -20.102  0.00  0.00    -0.000 C 
ATOM     13  C   UNL     1      34.520 -15.984 -21.544  0.00  0.00    -0.000 C 
ATOM     14  C   UNL     1      34.354 -15.747 -23.968  0.00  0.00    -0.000 C 
ATOM     15  C   UNL     1      33.307 -13.776 -24.919  0.00  0.00    -0.000 C 
ATOM     16  C   UNL     1      34.276 -15.474 -20.268  0.00  0.00    -0.000 C 
ATOM     17  C   UNL     1      33.947 -15.004 -25.081  0.00  0.00    -0.000 C 
ATOM     18  C   UNL     1      35.167 -17.215 -21.723  0.00  0.00    -0.000 C 
ATOM     19  C   UNL     1      35.003 -16.981 -24.119  0.00  0.00    -0.000 C 
ATOM     20  C   UNL     1      35.406 -17.710 -23.003  0.00  0.00    +0.000 C 
ENDROOT
BRANCH   2  21
ATOM     21  O   UNL     1      32.893  -8.968 -20.582  0.00  0.00    -0.379 OA
ATOM     22  H   UNL     1      32.845  -8.037 -20.316  0.00  0.00    +0.211 HD
ENDBRANCH   2  21
BRANCH   3  23
ATOM     23  O   UNL     1      30.094 -10.348 -22.470  0.00  0.00    -0.377 OA
ATOM     24  H   UNL     1      29.703  -9.509 -22.762  0.00  0.00    +0.211 HD
ENDBRANCH   3  23
BRANCH   4  25
ATOM     25  O   UNL     1      31.301  -9.858 -18.398  0.00  0.00    -0.382 OA
ATOM     26  H   UNL     1      30.475 -10.026 -17.919  0.00  0.00    +0.210 HD
ENDBRANCH   4  25
TORSDOF 3
ENDMDL
