MODEL 1
REMARK VINA RESULT:     -12.7      0.000      0.000
REMARK  Name = 46926973
REMARK  4 active torsions:
REMARK  status: ('A' for Active; 'I' for Inactive)
REMARK    1  A    between atoms: C_4  and  C_17
REMARK    2  A    between atoms: C_6  and  C_13
REMARK    3  A    between atoms: C_17  and  C_19
REMARK    4  A    between atoms: C_21  and  C_26
REMARK                            x       y       z     vdW  Elec       q    Type
REMARK                         _______ _______ _______ _____ _____    ______ ____
ROOT
ATOM      1  O   UNL     1      33.631 -19.800 -22.188  0.00  0.00    -0.274 OA
ATOM      2  N   UNL     1      35.738 -19.833 -21.142  0.00  0.00    -0.269 N 
ATOM      3  N   UNL     1      36.573 -20.881 -19.193  0.00  0.00    -0.229 NA
ATOM      4  C   UNL     1      34.810 -19.465 -22.126  0.00  0.00    +0.232 C 
ATOM      5  C   UNL     1      35.532 -20.652 -20.025  0.00  0.00    +0.134 C 
ATOM      6  C   UNL     1      35.095 -22.256 -17.861  0.00  0.00    +0.038 C 
ATOM      7  C   UNL     1      34.264 -21.180 -19.845  0.00  0.00    +0.035 C 
ATOM      8  C   UNL     1      34.049 -21.996 -18.740  0.00  0.00    +0.006 C 
ATOM      9  C   UNL     1      36.326 -21.679 -18.129  0.00  0.00    +0.102 C 
ATOM     10  H   UNL     1      36.647 -19.471 -21.249  0.00  0.00    +0.156 HD
ENDROOT
BRANCH   6  13
ATOM     11  N   UNL     1      36.024 -23.463 -16.049  0.00  0.00    -0.241 NA
ATOM     12  N   UNL     1      33.478 -24.292 -15.214  0.00  0.00    -0.239 NA
ATOM     13  C   UNL     1      34.904 -23.098 -16.704  0.00  0.00    +0.102 C 
ATOM     14  C   UNL     1      33.653 -23.506 -16.294  0.00  0.00    +0.118 C 
ATOM     15  C   UNL     1      35.848 -24.249 -14.968  0.00  0.00    +0.119 C 
ATOM     16  C   UNL     1      34.599 -24.657 -14.558  0.00  0.00    +0.120 C 
ENDBRANCH   6  13
BRANCH   4  17
ATOM     17  C   UNL     1      35.453 -18.561 -23.167  0.00  0.00    +0.113 C 
BRANCH  17  19
ATOM     18  N   UNL     1      34.448 -15.129 -21.924  0.00  0.00    -0.244 NA
ATOM     19  C   UNL     1      34.909 -17.156 -23.157  0.00  0.00    +0.006 C 
ATOM     20  C   UNL     1      33.884 -15.286 -24.270  0.00  0.00    -0.004 C 
ATOM     21  C   UNL     1      33.942 -14.607 -23.063  0.00  0.00    +0.077 C 
ATOM     22  C   UNL     1      34.380 -16.585 -24.309  0.00  0.00    -0.005 C 
ATOM     23  C   UNL     1      34.920 -16.393 -22.001  0.00  0.00    +0.095 C 
ATOM     24  C   UNL     1      33.317 -14.676 -25.505  0.00  0.00    +0.033 C 
BRANCH  21  26
ATOM     25  N   UNL     1      32.502 -10.638 -22.657  0.00  0.00    -0.248 NA
ATOM     26  C   UNL     1      33.451 -13.254 -22.925  0.00  0.00    +0.020 C 
ATOM     27  C   UNL     1      32.339 -12.992 -22.131  0.00  0.00    +0.016 C 
ATOM     28  C   UNL     1      34.089 -12.209 -23.584  0.00  0.00    +0.022 C 
ATOM     29  C   UNL     1      31.908 -11.679 -22.031  0.00  0.00    +0.059 C 
ATOM     30  C   UNL     1      33.579 -10.931 -23.419  0.00  0.00    +0.098 C 
ATOM     31  C   UNL     1      30.718 -11.361 -21.189  0.00  0.00    +0.052 C 
ENDBRANCH  21  26
ENDBRANCH  17  19
ENDBRANCH   4  17
TORSDOF 4
ENDMDL
MODEL 2
REMARK VINA RESULT:     -12.7      1.243      1.826
REMARK  Name = 46926973
REMARK  4 active torsions:
REMARK  status: ('A' for Active; 'I' for Inactive)
REMARK    1  A    between atoms: C_4  and  C_17
REMARK    2  A    between atoms: C_6  and  C_13
REMARK    3  A    between atoms: C_17  and  C_19
REMARK    4  A    between atoms: C_21  and  C_26
REMARK                            x       y       z     vdW  Elec       q    Type
REMARK                         _______ _______ _______ _____ _____    ______ ____
ROOT
ATOM      1  O   UNL     1      36.697 -19.043 -22.370  0.00  0.00    -0.274 OA
ATOM      2  N   UNL     1      34.438 -19.576 -21.990  0.00  0.00    -0.269 N 
ATOM      3  N   UNL     1      33.320 -20.852 -20.342  0.00  0.00    -0.229 NA
ATOM      4  C   UNL     1      35.508 -18.978 -22.669  0.00  0.00    +0.232 C 
ATOM      5  C   UNL     1      34.482 -20.370 -20.838  0.00  0.00    +0.134 C 
ATOM      6  C   UNL     1      34.607 -21.911 -18.589  0.00  0.00    +0.038 C 
ATOM      7  C   UNL     1      35.725 -20.610 -20.275  0.00  0.00    +0.035 C 
ATOM      8  C   UNL     1      35.780 -21.397 -19.130  0.00  0.00    +0.006 C 
ATOM      9  C   UNL     1      33.413 -21.613 -19.227  0.00  0.00    +0.102 C 
ATOM     10  H   UNL     1      33.544 -19.418 -22.371  0.00  0.00    +0.156 HD
ENDROOT
BRANCH   6  13
ATOM     11  N   UNL     1      35.803 -22.773 -16.737  0.00  0.00    -0.241 NA
ATOM     12  N   UNL     1      33.550 -24.194 -15.862  0.00  0.00    -0.239 NA
ATOM     13  C   UNL     1      34.631 -22.731 -17.401  0.00  0.00    +0.102 C 
ATOM     14  C   UNL     1      33.524 -23.429 -16.971  0.00  0.00    +0.118 C 
ATOM     15  C   UNL     1      35.828 -23.537 -15.628  0.00  0.00    +0.119 C 
ATOM     16  C   UNL     1      34.722 -24.236 -15.198  0.00  0.00    +0.120 C 
ENDBRANCH   6  13
BRANCH   4  17
ATOM     17  C   UNL     1      35.016 -18.195 -23.876  0.00  0.00    +0.113 C 
BRANCH  17  19
ATOM     18  N   UNL     1      33.440 -14.771 -24.236  0.00  0.00    -0.244 NA
ATOM     19  C   UNL     1      34.548 -16.803 -23.538  0.00  0.00    +0.006 C 
ATOM     20  C   UNL     1      34.328 -14.971 -21.996  0.00  0.00    -0.004 C 
ATOM     21  C   UNL     1      33.674 -14.276 -23.000  0.00  0.00    +0.077 C 
ATOM     22  C   UNL     1      34.770 -16.259 -22.279  0.00  0.00    -0.005 C 
ATOM     23  C   UNL     1      33.884 -16.025 -24.473  0.00  0.00    +0.095 C 
ATOM     24  C   UNL     1      34.568 -14.389 -20.645  0.00  0.00    +0.033 C 
BRANCH  21  26
ATOM     25  N   UNL     1      32.222 -10.333 -22.414  0.00  0.00    -0.248 NA
ATOM     26  C   UNL     1      33.179 -12.932 -22.800  0.00  0.00    +0.020 C 
ATOM     27  C   UNL     1      32.135 -12.697 -21.911  0.00  0.00    +0.016 C 
ATOM     28  C   UNL     1      33.745 -11.869 -23.496  0.00  0.00    +0.022 C 
ATOM     29  C   UNL     1      31.698 -11.391 -21.756  0.00  0.00    +0.059 C 
ATOM     30  C   UNL     1      33.235 -10.601 -23.270  0.00  0.00    +0.098 C 
ATOM     31  C   UNL     1      30.579 -11.101 -20.811  0.00  0.00    +0.052 C 
ENDBRANCH  21  26
ENDBRANCH  17  19
ENDBRANCH   4  17
TORSDOF 4
ENDMDL
MODEL 3
REMARK VINA RESULT:     -12.4      0.817      1.384
REMARK  Name = 46926973
REMARK  4 active torsions:
REMARK  status: ('A' for Active; 'I' for Inactive)
REMARK    1  A    between atoms: C_4  and  C_17
REMARK    2  A    between atoms: C_6  and  C_13
REMARK    3  A    between atoms: C_17  and  C_19
REMARK    4  A    between atoms: C_21  and  C_26
REMARK                            x       y       z     vdW  Elec       q    Type
REMARK                         _______ _______ _______ _____ _____    ______ ____
ROOT
ATOM      1  O   UNL     1      33.790 -20.079 -21.879  0.00  0.00    -0.274 OA
ATOM      2  N   UNL     1      35.845 -20.018 -20.738  0.00  0.00    -0.269 N 
ATOM      3  N   UNL     1      36.638 -21.033 -18.753  0.00  0.00    -0.229 NA
ATOM      4  C   UNL     1      34.948 -19.690 -21.763  0.00  0.00    +0.232 C 
ATOM      5  C   UNL     1      35.627 -20.849 -19.632  0.00  0.00    +0.134 C 
ATOM      6  C   UNL     1      35.166 -22.479 -17.493  0.00  0.00    +0.038 C 
ATOM      7  C   UNL     1      34.378 -21.436 -19.511  0.00  0.00    +0.035 C 
ATOM      8  C   UNL     1      34.151 -22.264 -18.418  0.00  0.00    +0.006 C 
ATOM      9  C   UNL     1      36.380 -21.845 -17.703  0.00  0.00    +0.102 C 
ATOM     10  H   UNL     1      36.741 -19.614 -20.803  0.00  0.00    +0.156 HD
ENDROOT
BRANCH   6  13
ATOM     11  N   UNL     1      36.076 -23.844 -15.785  0.00  0.00    -0.241 NA
ATOM     12  N   UNL     1      33.517 -24.408 -14.786  0.00  0.00    -0.239 NA
ATOM     13  C   UNL     1      34.962 -23.333 -16.347  0.00  0.00    +0.102 C 
ATOM     14  C   UNL     1      33.705 -23.610 -15.855  0.00  0.00    +0.118 C 
ATOM     15  C   UNL     1      35.888 -24.641 -14.715  0.00  0.00    +0.119 C 
ATOM     16  C   UNL     1      34.631 -24.919 -14.224  0.00  0.00    +0.120 C 
ENDBRANCH   6  13
BRANCH   4  17
ATOM     17  C   UNL     1      35.595 -18.754 -22.772  0.00  0.00    +0.113 C 
BRANCH  17  19
ATOM     18  N   UNL     1      34.055 -15.476 -23.876  0.00  0.00    -0.244 NA
ATOM     19  C   UNL     1      35.054 -17.349 -22.719  0.00  0.00    +0.006 C 
ATOM     20  C   UNL     1      34.537 -15.334 -21.510  0.00  0.00    -0.004 C 
ATOM     21  C   UNL     1      34.059 -14.809 -22.700  0.00  0.00    +0.077 C 
ATOM     22  C   UNL     1      35.042 -16.630 -21.529  0.00  0.00    -0.005 C 
ATOM     23  C   UNL     1      34.553 -16.732 -23.854  0.00  0.00    +0.095 C 
ATOM     24  C   UNL     1      34.526 -14.566 -20.234  0.00  0.00    +0.033 C 
BRANCH  21  26
ATOM     25  N   UNL     1      32.467 -10.884 -22.934  0.00  0.00    -0.248 NA
ATOM     26  C   UNL     1      33.516 -13.471 -22.780  0.00  0.00    +0.020 C 
ATOM     27  C   UNL     1      32.417 -13.116 -22.005  0.00  0.00    +0.016 C 
ATOM     28  C   UNL     1      34.091 -12.534 -23.631  0.00  0.00    +0.022 C 
ATOM     29  C   UNL     1      31.935 -11.821 -22.118  0.00  0.00    +0.059 C 
ATOM     30  C   UNL     1      33.534 -11.266 -23.671  0.00  0.00    +0.098 C 
ATOM     31  C   UNL     1      30.756 -11.406 -21.302  0.00  0.00    +0.052 C 
ENDBRANCH  21  26
ENDBRANCH  17  19
ENDBRANCH   4  17
TORSDOF 4
ENDMDL
MODEL 4
REMARK VINA RESULT:     -11.9      1.108      1.823
REMARK  Name = 46926973
REMARK  4 active torsions:
REMARK  status: ('A' for Active; 'I' for Inactive)
REMARK    1  A    between atoms: C_4  and  C_17
REMARK    2  A    between atoms: C_6  and  C_13
REMARK    3  A    between atoms: C_17  and  C_19
REMARK    4  A    between atoms: C_21  and  C_26
REMARK                            x       y       z     vdW  Elec       q    Type
REMARK                         _______ _______ _______ _____ _____    ______ ____
ROOT
ATOM      1  O   UNL     1      33.671 -19.767 -22.738  0.00  0.00    -0.274 OA
ATOM      2  N   UNL     1      35.752 -19.193 -21.805  0.00  0.00    -0.269 N 
ATOM      3  N   UNL     1      36.929 -19.909 -19.882  0.00  0.00    -0.229 NA
ATOM      4  C   UNL     1      34.716 -19.123 -22.746  0.00  0.00    +0.232 C 
ATOM      5  C   UNL     1      35.828 -19.999 -20.662  0.00  0.00    +0.134 C 
ATOM      6  C   UNL     1      35.943 -21.587 -18.446  0.00  0.00    +0.038 C 
ATOM      7  C   UNL     1      34.761 -20.844 -20.405  0.00  0.00    +0.035 C 
ATOM      8  C   UNL     1      34.827 -21.649 -19.273  0.00  0.00    +0.006 C 
ATOM      9  C   UNL     1      36.957 -20.708 -18.791  0.00  0.00    +0.102 C 
ATOM     10  H   UNL     1      36.523 -18.602 -21.967  0.00  0.00    +0.156 HD
ENDROOT
BRANCH   6  13
ATOM     11  N   UNL     1      34.926 -23.086 -16.922  0.00  0.00    -0.241 NA
ATOM     12  N   UNL     1      37.290 -23.268 -15.425  0.00  0.00    -0.239 NA
ATOM     13  C   UNL     1      36.041 -22.410 -17.264  0.00  0.00    +0.102 C 
ATOM     14  C   UNL     1      37.202 -22.499 -16.528  0.00  0.00    +0.118 C 
ATOM     15  C   UNL     1      35.014 -23.856 -15.820  0.00  0.00    +0.119 C 
ATOM     16  C   UNL     1      36.175 -23.945 -15.083  0.00  0.00    +0.120 C 
ENDBRANCH   6  13
BRANCH   4  17
ATOM     17  C   UNL     1      35.041 -18.115 -23.837  0.00  0.00    +0.113 C 
BRANCH  17  19
ATOM     18  N   UNL     1      33.423 -14.717 -24.252  0.00  0.00    -0.244 NA
ATOM     19  C   UNL     1      34.565 -16.720 -23.525  0.00  0.00    +0.006 C 
ATOM     20  C   UNL     1      34.352 -14.853 -22.023  0.00  0.00    -0.004 C 
ATOM     21  C   UNL     1      33.673 -14.189 -23.033  0.00  0.00    +0.077 C 
ATOM     22  C   UNL     1      34.802 -16.143 -22.283  0.00  0.00    -0.005 C 
ATOM     23  C   UNL     1      33.877 -15.971 -24.467  0.00  0.00    +0.095 C 
ATOM     24  C   UNL     1      34.609 -14.236 -20.691  0.00  0.00    +0.033 C 
BRANCH  21  26
ATOM     25  N   UNL     1      32.191 -10.248 -22.518  0.00  0.00    -0.248 NA
ATOM     26  C   UNL     1      33.168 -12.845 -22.857  0.00  0.00    +0.020 C 
ATOM     27  C   UNL     1      32.087 -12.610 -22.014  0.00  0.00    +0.016 C 
ATOM     28  C   UNL     1      33.761 -11.783 -23.530  0.00  0.00    +0.022 C 
ATOM     29  C   UNL     1      31.641 -11.305 -21.880  0.00  0.00    +0.059 C 
ATOM     30  C   UNL     1      33.240 -10.515 -23.329  0.00  0.00    +0.098 C 
ATOM     31  C   UNL     1      30.483 -11.016 -20.984  0.00  0.00    +0.052 C 
ENDBRANCH  21  26
ENDBRANCH  17  19
ENDBRANCH   4  17
TORSDOF 4
ENDMDL
MODEL 5
REMARK VINA RESULT:     -11.9      2.715     11.326
REMARK  Name = 46926973
REMARK  4 active torsions:
REMARK  status: ('A' for Active; 'I' for Inactive)
REMARK    1  A    between atoms: C_4  and  C_17
REMARK    2  A    between atoms: C_6  and  C_13
REMARK    3  A    between atoms: C_17  and  C_19
REMARK    4  A    between atoms: C_21  and  C_26
REMARK                            x       y       z     vdW  Elec       q    Type
REMARK                         _______ _______ _______ _____ _____    ______ ____
ROOT
ATOM      1  O   UNL     1      32.618 -14.185 -23.303  0.00  0.00    -0.274 OA
ATOM      2  N   UNL     1      34.293 -12.658 -23.927  0.00  0.00    -0.269 N 
ATOM      3  N   UNL     1      34.532 -10.316 -23.692  0.00  0.00    -0.229 NA
ATOM      4  C   UNL     1      33.700 -13.923 -23.817  0.00  0.00    +0.232 C 
ATOM      5  C   UNL     1      33.792 -11.428 -23.483  0.00  0.00    +0.134 C 
ATOM      6  C   UNL     1      32.785  -9.050 -22.601  0.00  0.00    +0.038 C 
ATOM      7  C   UNL     1      32.559 -11.432 -22.851  0.00  0.00    +0.035 C 
ATOM      8  C   UNL     1      32.052 -10.216 -22.405  0.00  0.00    +0.006 C 
ATOM      9  C   UNL     1      34.008  -9.153 -23.245  0.00  0.00    +0.102 C 
ATOM     10  H   UNL     1      35.171 -12.630 -24.372  0.00  0.00    +0.156 HD
ENDROOT
BRANCH   6  13
ATOM     11  N   UNL     1      33.132  -7.041 -21.397  0.00  0.00    -0.241 NA
ATOM     12  N   UNL     1      30.559  -6.134 -22.045  0.00  0.00    -0.239 NA
ATOM     13  C   UNL     1      32.286  -7.773 -22.150  0.00  0.00    +0.102 C 
ATOM     14  C   UNL     1      31.022  -7.327 -22.468  0.00  0.00    +0.118 C 
ATOM     15  C   UNL     1      32.670  -5.848 -20.975  0.00  0.00    +0.119 C 
ATOM     16  C   UNL     1      31.406  -5.402 -21.292  0.00  0.00    +0.120 C 
ENDBRANCH   6  13
BRANCH   4  17
ATOM     17  C   UNL     1      34.589 -14.993 -24.432  0.00  0.00    +0.113 C 
BRANCH  17  19
ATOM     18  N   UNL     1      35.158 -17.146 -21.370  0.00  0.00    -0.244 NA
ATOM     19  C   UNL     1      34.746 -16.213 -23.562  0.00  0.00    +0.006 C 
ATOM     20  C   UNL     1      34.789 -18.600 -23.267  0.00  0.00    -0.004 C 
ATOM     21  C   UNL     1      35.045 -18.374 -21.924  0.00  0.00    +0.077 C 
ATOM     22  C   UNL     1      34.638 -17.492 -24.095  0.00  0.00    -0.005 C 
ATOM     23  C   UNL     1      35.005 -16.095 -22.205  0.00  0.00    +0.095 C 
ATOM     24  C   UNL     1      34.674 -19.970 -23.841  0.00  0.00    +0.033 C 
BRANCH  21  26
ATOM     25  N   UNL     1      35.553 -21.565 -19.175  0.00  0.00    -0.248 NA
ATOM     26  C   UNL     1      35.218 -19.462 -20.987  0.00  0.00    +0.020 C 
ATOM     27  C   UNL     1      34.112 -20.165 -20.521  0.00  0.00    +0.016 C 
ATOM     28  C   UNL     1      36.491 -19.810 -20.549  0.00  0.00    +0.022 C 
ATOM     29  C   UNL     1      34.332 -21.198 -19.624  0.00  0.00    +0.059 C 
ATOM     30  C   UNL     1      36.604 -20.859 -19.651  0.00  0.00    +0.098 C 
ATOM     31  C   UNL     1      33.168 -21.974 -19.102  0.00  0.00    +0.052 C 
ENDBRANCH  21  26
ENDBRANCH  17  19
ENDBRANCH   4  17
TORSDOF 4
ENDMDL
MODEL 6
REMARK VINA RESULT:     -11.7      2.189     10.659
REMARK  Name = 46926973
REMARK  4 active torsions:
REMARK  status: ('A' for Active; 'I' for Inactive)
REMARK    1  A    between atoms: C_4  and  C_17
REMARK    2  A    between atoms: C_6  and  C_13
REMARK    3  A    between atoms: C_17  and  C_19
REMARK    4  A    between atoms: C_21  and  C_26
REMARK                            x       y       z     vdW  Elec       q    Type
REMARK                         _______ _______ _______ _____ _____    ______ ____
ROOT
ATOM      1  O   UNL     1      36.818 -19.525 -19.506  0.00  0.00    -0.274 OA
ATOM      2  N   UNL     1      35.542 -20.297 -21.324  0.00  0.00    -0.269 N 
ATOM      3  N   UNL     1      34.439 -19.215 -23.116  0.00  0.00    -0.229 NA
ATOM      4  C   UNL     1      36.307 -20.431 -20.158  0.00  0.00    +0.232 C 
ATOM      5  C   UNL     1      35.192 -19.119 -21.997  0.00  0.00    +0.134 C 
ATOM      6  C   UNL     1      34.534 -16.805 -23.284  0.00  0.00    +0.038 C 
ATOM      7  C   UNL     1      35.647 -17.922 -21.468  0.00  0.00    +0.035 C 
ATOM      8  C   UNL     1      35.307 -16.747 -22.129  0.00  0.00    +0.006 C 
ATOM      9  C   UNL     1      34.128 -18.052 -23.731  0.00  0.00    +0.102 C 
ATOM     10  H   UNL     1      35.208 -21.134 -21.719  0.00  0.00    +0.156 HD
ENDROOT
BRANCH   6  13
ATOM     11  N   UNL     1      33.778 -15.769 -25.274  0.00  0.00    -0.241 NA
ATOM     12  N   UNL     1      33.856 -13.241 -24.062  0.00  0.00    -0.239 NA
ATOM     13  C   UNL     1      34.164 -15.603 -23.993  0.00  0.00    +0.102 C 
ATOM     14  C   UNL     1      34.201 -14.361 -23.398  0.00  0.00    +0.118 C 
ATOM     15  C   UNL     1      33.432 -14.649 -25.938  0.00  0.00    +0.119 C 
ATOM     16  C   UNL     1      33.470 -13.407 -25.344  0.00  0.00    +0.120 C 
ENDBRANCH   6  13
BRANCH   4  17
ATOM     17  C   UNL     1      36.448 -21.893 -19.766  0.00  0.00    +0.113 C 
BRANCH  17  19
ATOM     18  N   UNL     1      33.250 -23.033 -18.089  0.00  0.00    -0.244 NA
ATOM     19  C   UNL     1      35.481 -22.322 -18.693  0.00  0.00    +0.006 C 
ATOM     20  C   UNL     1      34.961 -22.806 -16.395  0.00  0.00    -0.004 C 
ATOM     21  C   UNL     1      33.672 -23.105 -16.807  0.00  0.00    +0.077 C 
ATOM     22  C   UNL     1      35.876 -22.408 -17.364  0.00  0.00    -0.005 C 
ATOM     23  C   UNL     1      34.168 -22.643 -19.002  0.00  0.00    +0.095 C 
ATOM     24  C   UNL     1      35.387 -22.896 -14.970  0.00  0.00    +0.033 C 
BRANCH  21  26
ATOM     25  N   UNL     1      30.678 -24.341 -14.069  0.00  0.00    -0.248 NA
ATOM     26  C   UNL     1      32.651 -23.526 -15.873  0.00  0.00    +0.020 C 
ATOM     27  C   UNL     1      31.332 -23.125 -16.054  0.00  0.00    +0.016 C 
ATOM     28  C   UNL     1      32.985 -24.334 -14.792  0.00  0.00    +0.022 C 
ATOM     29  C   UNL     1      30.392 -23.556 -15.131  0.00  0.00    +0.059 C 
ATOM     30  C   UNL     1      31.971 -24.711 -13.926  0.00  0.00    +0.098 C 
ATOM     31  C   UNL     1      28.966 -23.145 -15.292  0.00  0.00    +0.052 C 
ENDBRANCH  21  26
ENDBRANCH  17  19
ENDBRANCH   4  17
TORSDOF 4
ENDMDL
MODEL 7
REMARK VINA RESULT:     -11.7      1.840      3.283
REMARK  Name = 46926973
REMARK  4 active torsions:
REMARK  status: ('A' for Active; 'I' for Inactive)
REMARK    1  A    between atoms: C_4  and  C_17
REMARK    2  A    between atoms: C_6  and  C_13
REMARK    3  A    between atoms: C_17  and  C_19
REMARK    4  A    between atoms: C_21  and  C_26
REMARK                            x       y       z     vdW  Elec       q    Type
REMARK                         _______ _______ _______ _____ _____    ______ ____
ROOT
ATOM      1  O   UNL     1      33.401 -20.787 -20.513  0.00  0.00    -0.274 OA
ATOM      2  N   UNL     1      35.130 -21.523 -19.100  0.00  0.00    -0.269 N 
ATOM      3  N   UNL     1      35.171 -22.753 -17.080  0.00  0.00    -0.229 NA
ATOM      4  C   UNL     1      34.589 -20.878 -20.221  0.00  0.00    +0.232 C 
ATOM      5  C   UNL     1      34.449 -22.196 -18.078  0.00  0.00    +0.134 C 
ATOM      6  C   UNL     1      33.089 -23.502 -16.107  0.00  0.00    +0.038 C 
ATOM      7  C   UNL     1      33.067 -22.249 -18.159  0.00  0.00    +0.035 C 
ATOM      8  C   UNL     1      32.381 -22.915 -17.150  0.00  0.00    +0.006 C 
ATOM      9  C   UNL     1      34.470 -23.393 -16.117  0.00  0.00    +0.102 C 
ATOM     10  H   UNL     1      36.112 -21.500 -19.022  0.00  0.00    +0.156 HD
ENDROOT
BRANCH   6  13
ATOM     11  N   UNL     1      31.103 -24.473 -15.259  0.00  0.00    -0.241 NA
ATOM     12  N   UNL     1      32.403 -25.220 -12.890  0.00  0.00    -0.239 NA
ATOM     13  C   UNL     1      32.405 -24.201 -15.044  0.00  0.00    +0.102 C 
ATOM     14  C   UNL     1      33.044 -24.568 -13.880  0.00  0.00    +0.118 C 
ATOM     15  C   UNL     1      30.462 -25.126 -14.269  0.00  0.00    +0.119 C 
ATOM     16  C   UNL     1      31.100 -25.492 -13.105  0.00  0.00    +0.120 C 
ENDBRANCH   6  13
BRANCH   4  17
ATOM     17  C   UNL     1      35.687 -20.276 -21.083  0.00  0.00    +0.113 C 
BRANCH  17  19
ATOM     18  N   UNL     1      34.624 -17.799 -23.743  0.00  0.00    -0.244 NA
ATOM     19  C   UNL     1      35.289 -18.979 -21.741  0.00  0.00    +0.006 C 
ATOM     20  C   UNL     1      34.844 -16.618 -21.644  0.00  0.00    -0.004 C 
ATOM     21  C   UNL     1      34.562 -16.671 -23.000  0.00  0.00    +0.077 C 
ATOM     22  C   UNL     1      35.214 -17.799 -21.011  0.00  0.00    -0.005 C 
ATOM     23  C   UNL     1      34.986 -18.927 -23.092  0.00  0.00    +0.095 C 
ATOM     24  C   UNL     1      34.766 -15.353 -20.860  0.00  0.00    +0.033 C 
BRANCH  21  26
ATOM     25  N   UNL     1      33.413 -13.222 -25.186  0.00  0.00    -0.248 NA
ATOM     26  C   UNL     1      34.170 -15.495 -23.745  0.00  0.00    +0.020 C 
ATOM     27  C   UNL     1      34.140 -14.252 -23.122  0.00  0.00    +0.016 C 
ATOM     28  C   UNL     1      33.823 -15.603 -25.087  0.00  0.00    +0.022 C 
ATOM     29  C   UNL     1      33.758 -13.156 -23.881  0.00  0.00    +0.059 C 
ATOM     30  C   UNL     1      33.454 -14.448 -25.757  0.00  0.00    +0.098 C 
ATOM     31  C   UNL     1      33.714 -11.806 -23.245  0.00  0.00    +0.052 C 
ENDBRANCH  21  26
ENDBRANCH  17  19
ENDBRANCH   4  17
TORSDOF 4
ENDMDL
MODEL 8
REMARK VINA RESULT:     -11.1      1.893     11.026
REMARK  Name = 46926973
REMARK  4 active torsions:
REMARK  status: ('A' for Active; 'I' for Inactive)
REMARK    1  A    between atoms: C_4  and  C_17
REMARK    2  A    between atoms: C_6  and  C_13
REMARK    3  A    between atoms: C_17  and  C_19
REMARK    4  A    between atoms: C_21  and  C_26
REMARK                            x       y       z     vdW  Elec       q    Type
REMARK                         _______ _______ _______ _____ _____    ______ ____
ROOT
ATOM      1  O   UNL     1      36.701 -19.386 -19.664  0.00  0.00    -0.274 OA
ATOM      2  N   UNL     1      35.538 -20.037 -21.601  0.00  0.00    -0.269 N 
ATOM      3  N   UNL     1      34.476 -18.839 -23.343  0.00  0.00    -0.229 NA
ATOM      4  C   UNL     1      36.255 -20.247 -20.415  0.00  0.00    +0.232 C 
ATOM      5  C   UNL     1      35.174 -18.817 -22.186  0.00  0.00    +0.134 C 
ATOM      6  C   UNL     1      34.487 -16.422 -23.297  0.00  0.00    +0.038 C 
ATOM      7  C   UNL     1      35.559 -17.656 -21.534  0.00  0.00    +0.035 C 
ATOM      8  C   UNL     1      35.204 -16.440 -22.106  0.00  0.00    +0.006 C 
ATOM      9  C   UNL     1      34.149 -17.638 -23.870  0.00  0.00    +0.102 C 
ATOM     10  H   UNL     1      35.255 -20.847 -22.083  0.00  0.00    +0.156 HD
ENDROOT
BRANCH   6  13
ATOM     11  N   UNL     1      34.244 -14.071 -23.156  0.00  0.00    -0.241 NA
ATOM     12  N   UNL     1      33.265 -13.951 -25.781  0.00  0.00    -0.239 NA
ATOM     13  C   UNL     1      34.103 -15.175 -23.916  0.00  0.00    +0.102 C 
ATOM     14  C   UNL     1      33.622 -15.116 -25.206  0.00  0.00    +0.118 C 
ATOM     15  C   UNL     1      33.887 -12.906 -23.731  0.00  0.00    +0.119 C 
ATOM     16  C   UNL     1      33.405 -12.846 -25.020  0.00  0.00    +0.120 C 
ENDBRANCH   6  13
BRANCH   4  17
ATOM     17  C   UNL     1      36.434 -21.733 -20.146  0.00  0.00    +0.113 C 
BRANCH  17  19
ATOM     18  N   UNL     1      34.097 -23.032 -17.465  0.00  0.00    -0.244 NA
ATOM     19  C   UNL     1      35.918 -22.163 -18.797  0.00  0.00    +0.006 C 
ATOM     20  C   UNL     1      36.221 -22.506 -16.436  0.00  0.00    -0.004 C 
ATOM     21  C   UNL     1      34.913 -22.958 -16.389  0.00  0.00    +0.077 C 
ATOM     22  C   UNL     1      36.725 -22.102 -17.668  0.00  0.00    -0.005 C 
ATOM     23  C   UNL     1      34.622 -22.631 -18.644  0.00  0.00    +0.095 C 
ATOM     24  C   UNL     1      37.089 -22.439 -15.226  0.00  0.00    +0.033 C 
BRANCH  21  26
ATOM     25  N   UNL     1      33.118 -24.247 -12.768  0.00  0.00    -0.248 NA
ATOM     26  C   UNL     1      34.301 -23.398 -15.154  0.00  0.00    +0.020 C 
ATOM     27  C   UNL     1      35.083 -23.946 -14.144  0.00  0.00    +0.016 C 
ATOM     28  C   UNL     1      32.928 -23.273 -14.973  0.00  0.00    +0.022 C 
ATOM     29  C   UNL     1      34.448 -24.351 -12.980  0.00  0.00    +0.059 C 
ATOM     30  C   UNL     1      32.390 -23.709 -13.773  0.00  0.00    +0.098 C 
ATOM     31  C   UNL     1      35.256 -24.945 -11.874  0.00  0.00    +0.052 C 
ENDBRANCH  21  26
ENDBRANCH  17  19
ENDBRANCH   4  17
TORSDOF 4
ENDMDL
MODEL 9
REMARK VINA RESULT:     -11.0      1.506     11.072
REMARK  Name = 46926973
REMARK  4 active torsions:
REMARK  status: ('A' for Active; 'I' for Inactive)
REMARK    1  A    between atoms: C_4  and  C_17
REMARK    2  A    between atoms: C_6  and  C_13
REMARK    3  A    between atoms: C_17  and  C_19
REMARK    4  A    between atoms: C_21  and  C_26
REMARK                            x       y       z     vdW  Elec       q    Type
REMARK                         _______ _______ _______ _____ _____    ______ ____
ROOT
ATOM      1  O   UNL     1      35.332 -16.923 -20.705  0.00  0.00    -0.274 OA
ATOM      2  N   UNL     1      34.708 -16.632 -22.954  0.00  0.00    -0.269 N 
ATOM      3  N   UNL     1      33.945 -14.776 -24.206  0.00  0.00    -0.229 NA
ATOM      4  C   UNL     1      35.158 -17.354 -21.841  0.00  0.00    +0.232 C 
ATOM      5  C   UNL     1      34.359 -15.277 -23.021  0.00  0.00    +0.134 C 
ATOM      6  C   UNL     1      33.693 -12.633 -23.114  0.00  0.00    +0.038 C 
ATOM      7  C   UNL     1      34.465 -14.532 -21.857  0.00  0.00    +0.035 C 
ATOM      8  C   UNL     1      34.122 -13.186 -21.913  0.00  0.00    +0.006 C 
ATOM      9  C   UNL     1      33.622 -13.463 -24.222  0.00  0.00    +0.102 C 
ATOM     10  H   UNL     1      34.626 -17.140 -23.794  0.00  0.00    +0.156 HD
ENDROOT
BRANCH   6  13
ATOM     11  N   UNL     1      32.047 -10.943 -22.916  0.00  0.00    -0.241 NA
ATOM     12  N   UNL     1      33.896  -8.967 -23.647  0.00  0.00    -0.239 NA
ATOM     13  C   UNL     1      33.330 -11.239 -23.205  0.00  0.00    +0.102 C 
ATOM     14  C   UNL     1      34.238 -10.267 -23.564  0.00  0.00    +0.118 C 
ATOM     15  C   UNL     1      31.705  -9.642 -22.999  0.00  0.00    +0.119 C 
ATOM     16  C   UNL     1      32.613  -8.671 -23.358  0.00  0.00    +0.120 C 
ENDBRANCH   6  13
BRANCH   4  17
ATOM     17  C   UNL     1      35.426 -18.806 -22.208  0.00  0.00    +0.113 C 
BRANCH  17  19
ATOM     18  N   UNL     1      36.387 -20.997 -19.273  0.00  0.00    -0.244 NA
ATOM     19  C   UNL     1      35.306 -19.751 -21.040  0.00  0.00    +0.006 C 
ATOM     20  C   UNL     1      33.990 -21.120 -19.565  0.00  0.00    -0.004 C 
ATOM     21  C   UNL     1      35.167 -21.459 -18.918  0.00  0.00    +0.077 C 
ATOM     22  C   UNL     1      34.070 -20.248 -20.645  0.00  0.00    -0.005 C 
ATOM     23  C   UNL     1      36.425 -20.152 -20.327  0.00  0.00    +0.095 C 
ATOM     24  C   UNL     1      32.663 -21.653 -19.144  0.00  0.00    +0.033 C 
BRANCH  21  26
ATOM     25  N   UNL     1      35.217 -24.097 -15.596  0.00  0.00    -0.248 NA
ATOM     26  C   UNL     1      35.184 -22.359 -17.786  0.00  0.00    +0.020 C 
ATOM     27  C   UNL     1      36.304 -22.425 -16.963  0.00  0.00    +0.016 C 
ATOM     28  C   UNL     1      34.081 -23.160 -17.514  0.00  0.00    +0.022 C 
ATOM     29  C   UNL     1      36.270 -23.303 -15.891  0.00  0.00    +0.059 C 
ATOM     30  C   UNL     1      34.147 -24.005 -16.418  0.00  0.00    +0.098 C 
ATOM     31  C   UNL     1      37.454 -23.401 -14.988  0.00  0.00    +0.052 C 
ENDBRANCH  21  26
ENDBRANCH  17  19
ENDBRANCH   4  17
TORSDOF 4
ENDMDL
