MODEL 1
REMARK VINA RESULT:     -14.2      0.000      0.000
REMARK  Name = 16741238
REMARK  6 active torsions:
REMARK  status: ('A' for Active; 'I' for Inactive)
REMARK    1  A    between atoms: N_1  and  C_22
REMARK    2  A    between atoms: C_10  and  C_15
REMARK    3  A    between atoms: C_15  and  C_16
REMARK    4  A    between atoms: C_22  and  C_23
REMARK    5  A    between atoms: C_23  and  C_26
REMARK    6  A    between atoms: N_25  and  C_28
REMARK                            x       y       z     vdW  Elec       q    Type
REMARK                         _______ _______ _______ _____ _____    ______ ____
ROOT
ATOM      1  N   UNL     1      33.988 -13.943 -24.048  0.00  0.00    -0.249 N 
ATOM      2  N   UNL     1      33.622 -15.947 -25.327  0.00  0.00    -0.373 NA
ATOM      3  N   UNL     1      32.977 -13.895 -26.177  0.00  0.00    -0.321 N 
ATOM      4  C   UNL     1      34.607 -14.637 -22.918  0.00  0.00    +0.071 C 
ATOM      5  C   UNL     1      34.683 -16.125 -23.120  0.00  0.00    +0.045 C 
ATOM      6  C   UNL     1      33.541 -14.648 -25.171  0.00  0.00    +0.239 C 
ATOM      7  C   UNL     1      34.195 -16.709 -24.297  0.00  0.00    +0.136 C 
ATOM      8  C   UNL     1      35.247 -16.933 -22.122  0.00  0.00    +0.007 C 
ATOM      9  C   UNL     1      34.280 -18.098 -24.458  0.00  0.00    +0.032 C 
ATOM     10  C   UNL     1      35.326 -18.315 -22.293  0.00  0.00    +0.039 C 
ATOM     11  C   UNL     1      34.843 -18.897 -23.462  0.00  0.00    +0.006 C 
ATOM     12  H   UNL     1      32.908 -12.917 -26.081  0.00  0.00    +0.146 HD
ATOM     13  H   UNL     1      32.644 -14.334 -26.993  0.00  0.00    +0.146 HD
ENDROOT
BRANCH  10  15
ATOM     14  O   UNL     1      37.109 -19.021 -20.954  0.00  0.00    -0.287 OA
ATOM     15  C   UNL     1      35.911 -19.145 -21.254  0.00  0.00    +0.196 C 
BRANCH  15  16
ATOM     16  C   UNL     1      35.120 -20.169 -20.507  0.00  0.00    +0.039 C 
ATOM     17  C   UNL     1      35.775 -21.148 -19.760  0.00  0.00    +0.003 C 
ATOM     18  C   UNL     1      33.726 -20.144 -20.554  0.00  0.00    +0.003 C 
ATOM     19  C   UNL     1      35.036 -22.103 -19.062  0.00  0.00    +0.000 C 
ATOM     20  C   UNL     1      32.987 -21.098 -19.855  0.00  0.00    +0.000 C 
ATOM     21  C   UNL     1      33.643 -22.079 -19.110  0.00  0.00    +0.000 C 
ENDBRANCH  15  16
ENDBRANCH  10  15
BRANCH   1  22
ATOM     22  C   UNL     1      33.884 -12.494 -23.904  0.00  0.00    +0.109 C 
BRANCH  22  23
ATOM     23  C   UNL     1      32.766 -12.134 -22.930  0.00  0.00    +0.107 C 
BRANCH  23  26
ATOM     24  O   UNL     1      33.440  -9.841 -23.170  0.00  0.00    -0.275 OA
ATOM     25  N   UNL     1      31.736 -10.267 -21.658  0.00  0.00    -0.279 N 
ATOM     26  C   UNL     1      32.691 -10.644 -22.608  0.00  0.00    +0.227 C 
ATOM     27  C   UNL     1      30.857 -11.234 -21.003  0.00  0.00    +0.115 C 
BRANCH  25  28
ATOM     28  C   UNL     1      31.546  -8.895 -21.253  0.00  0.00    +0.075 C 
ATOM     29  C   UNL     1      31.211  -8.021 -22.464  0.00  0.00    +0.020 C 
ATOM     30  C   UNL     1      32.781  -8.373 -20.513  0.00  0.00    +0.020 C 
ATOM     31  C   UNL     1      31.057  -6.553 -22.074  0.00  0.00    +0.002 C 
ATOM     32  C   UNL     1      32.624  -6.904 -20.124  0.00  0.00    +0.002 C 
ATOM     33  C   UNL     1      32.287  -6.036 -21.332  0.00  0.00    +0.000 C 
ENDBRANCH  25  28
ENDBRANCH  23  26
ENDBRANCH  22  23
ENDBRANCH   1  22
TORSDOF 6
ENDMDL
MODEL 2
REMARK VINA RESULT:     -13.6      0.829      1.323
REMARK  Name = 16741238
REMARK  6 active torsions:
REMARK  status: ('A' for Active; 'I' for Inactive)
REMARK    1  A    between atoms: N_1  and  C_22
REMARK    2  A    between atoms: C_10  and  C_15
REMARK    3  A    between atoms: C_15  and  C_16
REMARK    4  A    between atoms: C_22  and  C_23
REMARK    5  A    between atoms: C_23  and  C_26
REMARK    6  A    between atoms: N_25  and  C_28
REMARK                            x       y       z     vdW  Elec       q    Type
REMARK                         _______ _______ _______ _____ _____    ______ ____
ROOT
ATOM      1  N   UNL     1      33.989 -13.938 -23.501  0.00  0.00    -0.249 N 
ATOM      2  N   UNL     1      33.947 -15.827 -24.990  0.00  0.00    -0.373 NA
ATOM      3  N   UNL     1      33.172 -13.768 -25.705  0.00  0.00    -0.321 N 
ATOM      4  C   UNL     1      34.575 -14.683 -22.385  0.00  0.00    +0.071 C 
ATOM      5  C   UNL     1      34.821 -16.128 -22.715  0.00  0.00    +0.045 C 
ATOM      6  C   UNL     1      33.719 -14.564 -24.722  0.00  0.00    +0.239 C 
ATOM      7  C   UNL     1      34.502 -16.633 -23.983  0.00  0.00    +0.136 C 
ATOM      8  C   UNL     1      35.375 -16.977 -21.746  0.00  0.00    +0.007 C 
ATOM      9  C   UNL     1      34.744 -17.984 -24.263  0.00  0.00    +0.032 C 
ATOM     10  C   UNL     1      35.611 -18.321 -22.036  0.00  0.00    +0.039 C 
ATOM     11  C   UNL     1      35.295 -18.824 -23.295  0.00  0.00    +0.006 C 
ATOM     12  H   UNL     1      32.994 -12.817 -25.526  0.00  0.00    +0.146 HD
ATOM     13  H   UNL     1      32.959 -14.152 -26.587  0.00  0.00    +0.146 HD
ENDROOT
BRANCH  10  15
ATOM     14  O   UNL     1      37.379 -19.087 -20.711  0.00  0.00    -0.287 OA
ATOM     15  C   UNL     1      36.184 -19.194 -21.025  0.00  0.00    +0.196 C 
BRANCH  15  16
ATOM     16  C   UNL     1      35.383 -20.242 -20.325  0.00  0.00    +0.039 C 
ATOM     17  C   UNL     1      33.992 -20.249 -20.436  0.00  0.00    +0.003 C 
ATOM     18  C   UNL     1      36.025 -21.216 -19.559  0.00  0.00    +0.003 C 
ATOM     19  C   UNL     1      33.245 -21.228 -19.783  0.00  0.00    +0.000 C 
ATOM     20  C   UNL     1      35.277 -22.195 -18.906  0.00  0.00    +0.000 C 
ATOM     21  C   UNL     1      33.886 -22.201 -19.017  0.00  0.00    +0.000 C 
ENDBRANCH  15  16
ENDBRANCH  10  15
BRANCH   1  22
ATOM     22  C   UNL     1      33.725 -12.528 -23.235  0.00  0.00    +0.109 C 
BRANCH  22  23
ATOM     23  C   UNL     1      32.258 -12.320 -22.870  0.00  0.00    +0.107 C 
BRANCH  23  26
ATOM     24  O   UNL     1      31.885 -11.373 -20.695  0.00  0.00    -0.275 OA
ATOM     25  N   UNL     1      31.984  -9.885 -22.471  0.00  0.00    -0.279 N 
ATOM     26  C   UNL     1      32.024 -11.163 -21.903  0.00  0.00    +0.227 C 
ATOM     27  C   UNL     1      32.151  -9.659 -23.905  0.00  0.00    +0.115 C 
BRANCH  25  28
ATOM     28  C   UNL     1      31.773  -8.695 -21.683  0.00  0.00    +0.075 C 
ATOM     29  C   UNL     1      31.121  -7.600 -22.529  0.00  0.00    +0.020 C 
ATOM     30  C   UNL     1      33.090  -8.213 -21.067  0.00  0.00    +0.020 C 
ATOM     31  C   UNL     1      30.934  -6.309 -21.735  0.00  0.00    +0.002 C 
ATOM     32  C   UNL     1      32.900  -6.922 -20.273  0.00  0.00    +0.002 C 
ATOM     33  C   UNL     1      32.247  -5.833 -21.119  0.00  0.00    +0.000 C 
ENDBRANCH  25  28
ENDBRANCH  23  26
ENDBRANCH  22  23
ENDBRANCH   1  22
TORSDOF 6
ENDMDL
MODEL 3
REMARK VINA RESULT:     -12.4      6.386     11.096
REMARK  Name = 16741238
REMARK  6 active torsions:
REMARK  status: ('A' for Active; 'I' for Inactive)
REMARK    1  A    between atoms: N_1  and  C_22
REMARK    2  A    between atoms: C_10  and  C_15
REMARK    3  A    between atoms: C_15  and  C_16
REMARK    4  A    between atoms: C_22  and  C_23
REMARK    5  A    between atoms: C_23  and  C_26
REMARK    6  A    between atoms: N_25  and  C_28
REMARK                            x       y       z     vdW  Elec       q    Type
REMARK                         _______ _______ _______ _____ _____    ______ ____
ROOT
ATOM      1  N   UNL     1      36.165 -22.762 -16.479  0.00  0.00    -0.249 N 
ATOM      2  N   UNL     1      36.527 -24.012 -14.456  0.00  0.00    -0.373 NA
ATOM      3  N   UNL     1      38.329 -23.323 -15.731  0.00  0.00    -0.321 N 
ATOM      4  C   UNL     1      34.706 -22.761 -16.357  0.00  0.00    +0.071 C 
ATOM      5  C   UNL     1      34.225 -23.489 -15.133  0.00  0.00    +0.045 C 
ATOM      6  C   UNL     1      36.969 -23.386 -15.520  0.00  0.00    +0.239 C 
ATOM      7  C   UNL     1      35.140 -24.075 -14.247  0.00  0.00    +0.136 C 
ATOM      8  C   UNL     1      32.850 -23.582 -14.876  0.00  0.00    +0.007 C 
ATOM      9  C   UNL     1      34.662 -24.746 -13.114  0.00  0.00    +0.032 C 
ATOM     10  C   UNL     1      32.385 -24.253 -13.745  0.00  0.00    +0.039 C 
ATOM     11  C   UNL     1      33.293 -24.835 -12.864  0.00  0.00    +0.006 C 
ATOM     12  H   UNL     1      38.683 -22.856 -16.523  0.00  0.00    +0.146 HD
ATOM     13  H   UNL     1      38.947 -23.744 -15.091  0.00  0.00    +0.146 HD
ENDROOT
BRANCH  10  15
ATOM     14  O   UNL     1      30.544 -24.637 -12.355  0.00  0.00    -0.287 OA
ATOM     15  C   UNL     1      30.958 -24.344 -13.487  0.00  0.00    +0.196 C 
BRANCH  15  16
ATOM     16  C   UNL     1      29.935 -24.095 -14.547  0.00  0.00    +0.039 C 
ATOM     17  C   UNL     1      29.449 -22.805 -14.758  0.00  0.00    +0.003 C 
ATOM     18  C   UNL     1      29.466 -25.153 -15.326  0.00  0.00    +0.003 C 
ATOM     19  C   UNL     1      28.495 -22.572 -15.748  0.00  0.00    +0.000 C 
ATOM     20  C   UNL     1      28.512 -24.920 -16.316  0.00  0.00    +0.000 C 
ATOM     21  C   UNL     1      28.026 -23.630 -16.527  0.00  0.00    +0.000 C 
ENDBRANCH  15  16
ENDBRANCH  10  15
BRANCH   1  22
ATOM     22  C   UNL     1      36.689 -22.072 -17.653  0.00  0.00    +0.109 C 
BRANCH  22  23
ATOM     23  C   UNL     1      35.565 -21.768 -18.639  0.00  0.00    +0.107 C 
BRANCH  23  26
ATOM     24  O   UNL     1      37.187 -20.658 -20.020  0.00  0.00    -0.275 OA
ATOM     25  N   UNL     1      34.959 -20.331 -20.571  0.00  0.00    -0.279 N 
ATOM     26  C   UNL     1      35.992 -20.873 -19.799  0.00  0.00    +0.227 C 
ATOM     27  C   UNL     1      33.549 -20.597 -20.292  0.00  0.00    +0.115 C 
BRANCH  25  28
ATOM     28  C   UNL     1      35.208 -19.468 -21.701  0.00  0.00    +0.075 C 
ATOM     29  C   UNL     1      35.234 -18.003 -21.260  0.00  0.00    +0.020 C 
ATOM     30  C   UNL     1      34.167 -19.701 -22.800  0.00  0.00    +0.020 C 
ATOM     31  C   UNL     1      35.443 -17.062 -22.444  0.00  0.00    +0.002 C 
ATOM     32  C   UNL     1      34.379 -18.759 -23.983  0.00  0.00    +0.002 C 
ATOM     33  C   UNL     1      34.408 -17.299 -23.540  0.00  0.00    +0.000 C 
ENDBRANCH  25  28
ENDBRANCH  23  26
ENDBRANCH  22  23
ENDBRANCH   1  22
TORSDOF 6
ENDMDL
MODEL 4
REMARK VINA RESULT:     -12.0      3.319      5.932
REMARK  Name = 16741238
REMARK  6 active torsions:
REMARK  status: ('A' for Active; 'I' for Inactive)
REMARK    1  A    between atoms: N_1  and  C_22
REMARK    2  A    between atoms: C_10  and  C_15
REMARK    3  A    between atoms: C_15  and  C_16
REMARK    4  A    between atoms: C_22  and  C_23
REMARK    5  A    between atoms: C_23  and  C_26
REMARK    6  A    between atoms: N_25  and  C_28
REMARK                            x       y       z     vdW  Elec       q    Type
REMARK                         _______ _______ _______ _____ _____    ______ ____
ROOT
ATOM      1  N   UNL     1      35.224 -19.099 -21.768  0.00  0.00    -0.249 N 
ATOM      2  N   UNL     1      36.944 -19.737 -20.213  0.00  0.00    -0.373 NA
ATOM      3  N   UNL     1      37.345 -18.069 -21.765  0.00  0.00    -0.321 N 
ATOM      4  C   UNL     1      34.243 -20.057 -21.256  0.00  0.00    +0.071 C 
ATOM      5  C   UNL     1      34.775 -20.884 -20.120  0.00  0.00    +0.045 C 
ATOM      6  C   UNL     1      36.503 -19.008 -21.209  0.00  0.00    +0.239 C 
ATOM      7  C   UNL     1      36.083 -20.693 -19.652  0.00  0.00    +0.136 C 
ATOM      8  C   UNL     1      33.956 -21.852 -19.522  0.00  0.00    +0.007 C 
ATOM      9  C   UNL     1      36.552 -21.477 -18.590  0.00  0.00    +0.032 C 
ATOM     10  C   UNL     1      34.433 -22.628 -18.466  0.00  0.00    +0.039 C 
ATOM     11  C   UNL     1      35.732 -22.440 -18.000  0.00  0.00    +0.006 C 
ATOM     12  H   UNL     1      37.033 -17.510 -22.513  0.00  0.00    +0.146 HD
ATOM     13  H   UNL     1      38.258 -17.958 -21.414  0.00  0.00    +0.146 HD
ENDROOT
BRANCH  10  15
ATOM     14  O   UNL     1      33.389 -24.720 -18.416  0.00  0.00    -0.287 OA
ATOM     15  C   UNL     1      33.578 -23.630 -17.853  0.00  0.00    +0.196 C 
BRANCH  15  16
ATOM     16  C   UNL     1      32.897 -23.409 -16.542  0.00  0.00    +0.039 C 
ATOM     17  C   UNL     1      31.540 -23.092 -16.505  0.00  0.00    +0.003 C 
ATOM     18  C   UNL     1      33.620 -23.520 -15.353  0.00  0.00    +0.003 C 
ATOM     19  C   UNL     1      30.904 -22.887 -15.281  0.00  0.00    +0.000 C 
ATOM     20  C   UNL     1      32.984 -23.314 -14.129  0.00  0.00    +0.000 C 
ATOM     21  C   UNL     1      31.626 -22.997 -14.093  0.00  0.00    +0.000 C 
ENDBRANCH  15  16
ENDBRANCH  10  15
BRANCH   1  22
ATOM     22  C   UNL     1      34.762 -18.271 -22.877  0.00  0.00    +0.109 C 
BRANCH  22  23
ATOM     23  C   UNL     1      35.344 -16.864 -22.772  0.00  0.00    +0.107 C 
BRANCH  23  26
ATOM     24  O   UNL     1      33.999 -15.722 -24.400  0.00  0.00    -0.275 OA
ATOM     25  N   UNL     1      33.990 -14.849 -22.253  0.00  0.00    -0.279 N 
ATOM     26  C   UNL     1      34.386 -15.769 -23.230  0.00  0.00    +0.227 C 
ATOM     27  C   UNL     1      34.462 -14.921 -20.872  0.00  0.00    +0.115 C 
BRANCH  25  28
ATOM     28  C   UNL     1      33.087 -13.759 -22.537  0.00  0.00    +0.075 C 
ATOM     29  C   UNL     1      33.842 -12.588 -23.169  0.00  0.00    +0.020 C 
ATOM     30  C   UNL     1      32.346 -13.326 -21.269  0.00  0.00    +0.020 C 
ATOM     31  C   UNL     1      32.920 -11.399 -23.431  0.00  0.00    +0.002 C 
ATOM     32  C   UNL     1      31.424 -12.138 -21.534  0.00  0.00    +0.002 C 
ATOM     33  C   UNL     1      32.179 -10.972 -22.167  0.00  0.00    +0.000 C 
ENDBRANCH  25  28
ENDBRANCH  23  26
ENDBRANCH  22  23
ENDBRANCH   1  22
TORSDOF 6
ENDMDL
MODEL 5
REMARK VINA RESULT:     -11.9      2.653     10.895
REMARK  Name = 16741238
REMARK  6 active torsions:
REMARK  status: ('A' for Active; 'I' for Inactive)
REMARK    1  A    between atoms: N_1  and  C_22
REMARK    2  A    between atoms: C_10  and  C_15
REMARK    3  A    between atoms: C_15  and  C_16
REMARK    4  A    between atoms: C_22  and  C_23
REMARK    5  A    between atoms: C_23  and  C_26
REMARK    6  A    between atoms: N_25  and  C_28
REMARK                            x       y       z     vdW  Elec       q    Type
REMARK                         _______ _______ _______ _____ _____    ______ ____
ROOT
ATOM      1  N   UNL     1      32.687 -13.191 -22.237  0.00  0.00    -0.249 N 
ATOM      2  N   UNL     1      31.864 -11.952 -20.347  0.00  0.00    -0.373 NA
ATOM      3  N   UNL     1      32.140 -14.244 -20.200  0.00  0.00    -0.321 N 
ATOM      4  C   UNL     1      32.818 -12.015 -23.099  0.00  0.00    +0.071 C 
ATOM      5  C   UNL     1      32.398 -10.744 -22.416  0.00  0.00    +0.045 C 
ATOM      6  C   UNL     1      32.220 -13.074 -20.923  0.00  0.00    +0.239 C 
ATOM      7  C   UNL     1      31.945 -10.764 -21.090  0.00  0.00    +0.136 C 
ATOM      8  C   UNL     1      32.460  -9.528 -23.113  0.00  0.00    +0.007 C 
ATOM      9  C   UNL     1      31.562  -9.563 -20.479  0.00  0.00    +0.032 C 
ATOM     10  C   UNL     1      32.075  -8.339 -22.495  0.00  0.00    +0.039 C 
ATOM     11  C   UNL     1      31.626  -8.357 -21.177  0.00  0.00    +0.006 C 
ATOM     12  H   UNL     1      32.405 -15.098 -20.614  0.00  0.00    +0.146 HD
ATOM     13  H   UNL     1      31.819 -14.226 -19.270  0.00  0.00    +0.146 HD
ENDROOT
BRANCH  10  15
ATOM     14  O   UNL     1      31.270  -6.217 -23.060  0.00  0.00    -0.287 OA
ATOM     15  C   UNL     1      32.142  -7.084 -23.224  0.00  0.00    +0.196 C 
BRANCH  15  16
ATOM     16  C   UNL     1      33.241  -6.776 -24.188  0.00  0.00    +0.039 C 
ATOM     17  C   UNL     1      32.990  -6.786 -25.560  0.00  0.00    +0.003 C 
ATOM     18  C   UNL     1      34.520  -6.476 -23.716  0.00  0.00    +0.003 C 
ATOM     19  C   UNL     1      34.016  -6.497 -26.459  0.00  0.00    +0.000 C 
ATOM     20  C   UNL     1      35.546  -6.187 -24.616  0.00  0.00    +0.000 C 
ATOM     21  C   UNL     1      35.294  -6.199 -25.988  0.00  0.00    +0.000 C 
ENDBRANCH  15  16
ENDBRANCH  10  15
BRANCH   1  22
ATOM     22  C   UNL     1      33.077 -14.456 -22.850  0.00  0.00    +0.109 C 
BRANCH  22  23
ATOM     23  C   UNL     1      34.559 -14.731 -22.610  0.00  0.00    +0.107 C 
BRANCH  23  26
ATOM     24  O   UNL     1      34.800 -15.450 -20.331  0.00  0.00    -0.275 OA
ATOM     25  N   UNL     1      35.078 -17.071 -21.965  0.00  0.00    -0.279 N 
ATOM     26  C   UNL     1      34.821 -15.769 -21.523  0.00  0.00    +0.227 C 
ATOM     27  C   UNL     1      35.099 -17.429 -23.382  0.00  0.00    +0.115 C 
BRANCH  25  28
ATOM     28  C   UNL     1      35.342 -18.160 -21.054  0.00  0.00    +0.075 C 
ATOM     29  C   UNL     1      36.784 -18.648 -21.205  0.00  0.00    +0.020 C 
ATOM     30  C   UNL     1      34.342 -19.300 -21.268  0.00  0.00    +0.020 C 
ATOM     31  C   UNL     1      37.076 -19.835 -20.291  0.00  0.00    +0.002 C 
ATOM     32  C   UNL     1      34.636 -20.485 -20.352  0.00  0.00    +0.002 C 
ATOM     33  C   UNL     1      36.076 -20.968 -20.503  0.00  0.00    +0.000 C 
ENDBRANCH  25  28
ENDBRANCH  23  26
ENDBRANCH  22  23
ENDBRANCH   1  22
TORSDOF 6
ENDMDL
MODEL 6
REMARK VINA RESULT:     -11.8      4.589      8.111
REMARK  Name = 16741238
REMARK  6 active torsions:
REMARK  status: ('A' for Active; 'I' for Inactive)
REMARK    1  A    between atoms: N_1  and  C_22
REMARK    2  A    between atoms: C_10  and  C_15
REMARK    3  A    between atoms: C_15  and  C_16
REMARK    4  A    between atoms: C_22  and  C_23
REMARK    5  A    between atoms: C_23  and  C_26
REMARK    6  A    between atoms: N_25  and  C_28
REMARK                            x       y       z     vdW  Elec       q    Type
REMARK                         _______ _______ _______ _____ _____    ______ ____
ROOT
ATOM      1  N   UNL     1      34.644 -20.914 -20.125  0.00  0.00    -0.249 N 
ATOM      2  N   UNL     1      33.113 -21.999 -18.620  0.00  0.00    -0.373 NA
ATOM      3  N   UNL     1      32.323 -20.962 -20.531  0.00  0.00    -0.321 N 
ATOM      4  C   UNL     1      35.833 -21.240 -19.336  0.00  0.00    +0.071 C 
ATOM      5  C   UNL     1      35.510 -22.015 -18.090  0.00  0.00    +0.045 C 
ATOM      6  C   UNL     1      33.370 -21.318 -19.711  0.00  0.00    +0.239 C 
ATOM      7  C   UNL     1      34.184 -22.357 -17.788  0.00  0.00    +0.136 C 
ATOM      8  C   UNL     1      36.543 -22.399 -17.223  0.00  0.00    +0.007 C 
ATOM      9  C   UNL     1      33.913 -23.081 -16.620  0.00  0.00    +0.032 C 
ATOM     10  C   UNL     1      36.261 -23.119 -16.063  0.00  0.00    +0.039 C 
ATOM     11  C   UNL     1      34.945 -23.460 -15.761  0.00  0.00    +0.006 C 
ATOM     12  H   UNL     1      32.494 -20.452 -21.356  0.00  0.00    +0.146 HD
ATOM     13  H   UNL     1      31.402 -21.217 -20.293  0.00  0.00    +0.146 HD
ENDROOT
BRANCH  10  15
ATOM     14  O   UNL     1      38.521 -23.322 -15.493  0.00  0.00    -0.287 OA
ATOM     15  C   UNL     1      37.338 -23.512 -15.169  0.00  0.00    +0.196 C 
BRANCH  15  16
ATOM     16  C   UNL     1      37.086 -24.150 -13.842  0.00  0.00    +0.039 C 
ATOM     17  C   UNL     1      37.288 -25.520 -13.676  0.00  0.00    +0.003 C 
ATOM     18  C   UNL     1      36.647 -23.375 -12.768  0.00  0.00    +0.003 C 
ATOM     19  C   UNL     1      37.053 -26.114 -12.437  0.00  0.00    +0.000 C 
ATOM     20  C   UNL     1      36.412 -23.969 -11.529  0.00  0.00    +0.000 C 
ATOM     21  C   UNL     1      36.614 -25.340 -11.363  0.00  0.00    +0.000 C 
ENDBRANCH  15  16
ENDBRANCH  10  15
BRANCH   1  22
ATOM     22  C   UNL     1      34.898 -20.157 -21.347  0.00  0.00    +0.109 C 
BRANCH  22  23
ATOM     23  C   UNL     1      35.348 -18.738 -21.011  0.00  0.00    +0.107 C 
BRANCH  23  26
ATOM     24  O   UNL     1      35.493 -18.164 -23.338  0.00  0.00    -0.275 OA
ATOM     25  N   UNL     1      34.918 -16.454 -21.882  0.00  0.00    -0.279 N 
ATOM     26  C   UNL     1      35.264 -17.774 -22.190  0.00  0.00    +0.227 C 
ATOM     27  C   UNL     1      34.652 -16.011 -20.515  0.00  0.00    +0.115 C 
BRANCH  25  28
ATOM     28  C   UNL     1      34.798 -15.429 -22.892  0.00  0.00    +0.075 C 
ATOM     29  C   UNL     1      34.359 -14.105 -22.263  0.00  0.00    +0.020 C 
ATOM     30  C   UNL     1      33.834 -15.868 -23.997  0.00  0.00    +0.020 C 
ATOM     31  C   UNL     1      34.173 -13.016 -23.316  0.00  0.00    +0.002 C 
ATOM     32  C   UNL     1      33.649 -14.777 -25.049  0.00  0.00    +0.002 C 
ATOM     33  C   UNL     1      33.214 -13.457 -24.418  0.00  0.00    +0.000 C 
ENDBRANCH  25  28
ENDBRANCH  23  26
ENDBRANCH  22  23
ENDBRANCH   1  22
TORSDOF 6
ENDMDL
MODEL 7
REMARK VINA RESULT:     -11.7      5.058     11.651
REMARK  Name = 16741238
REMARK  6 active torsions:
REMARK  status: ('A' for Active; 'I' for Inactive)
REMARK    1  A    between atoms: N_1  and  C_22
REMARK    2  A    between atoms: C_10  and  C_15
REMARK    3  A    between atoms: C_15  and  C_16
REMARK    4  A    between atoms: C_22  and  C_23
REMARK    5  A    between atoms: C_23  and  C_26
REMARK    6  A    between atoms: N_25  and  C_28
REMARK                            x       y       z     vdW  Elec       q    Type
REMARK                         _______ _______ _______ _____ _____    ______ ____
ROOT
ATOM      1  N   UNL     1      34.874 -21.893 -19.411  0.00  0.00    -0.249 N 
ATOM      2  N   UNL     1      36.777 -20.429 -19.545  0.00  0.00    -0.373 NA
ATOM      3  N   UNL     1      36.710 -22.100 -17.948  0.00  0.00    -0.321 N 
ATOM      4  C   UNL     1      34.163 -21.262 -20.524  0.00  0.00    +0.071 C 
ATOM      5  C   UNL     1      34.924 -20.113 -21.124  0.00  0.00    +0.045 C 
ATOM      6  C   UNL     1      36.130 -21.431 -19.003  0.00  0.00    +0.239 C 
ATOM      7  C   UNL     1      36.180 -19.749 -20.619  0.00  0.00    +0.136 C 
ATOM      8  C   UNL     1      34.372 -19.401 -22.199  0.00  0.00    +0.007 C 
ATOM      9  C   UNL     1      36.866 -18.675 -21.199  0.00  0.00    +0.032 C 
ATOM     10  C   UNL     1      35.065 -18.333 -22.768  0.00  0.00    +0.039 C 
ATOM     11  C   UNL     1      36.313 -17.970 -22.268  0.00  0.00    +0.006 C 
ATOM     12  H   UNL     1      36.241 -22.857 -17.527  0.00  0.00    +0.146 HD
ATOM     13  H   UNL     1      37.594 -21.822 -17.616  0.00  0.00    +0.146 HD
ENDROOT
BRANCH  10  15
ATOM     14  O   UNL     1      34.185 -18.189 -24.931  0.00  0.00    -0.287 OA
ATOM     15  C   UNL     1      34.486 -17.599 -23.882  0.00  0.00    +0.196 C 
BRANCH  15  16
ATOM     16  C   UNL     1      34.225 -16.129 -23.823  0.00  0.00    +0.039 C 
ATOM     17  C   UNL     1      33.654 -15.478 -24.915  0.00  0.00    +0.003 C 
ATOM     18  C   UNL     1      34.553 -15.408 -22.674  0.00  0.00    +0.003 C 
ATOM     19  C   UNL     1      33.410 -14.106 -24.860  0.00  0.00    +0.000 C 
ATOM     20  C   UNL     1      34.309 -14.036 -22.619  0.00  0.00    +0.000 C 
ATOM     21  C   UNL     1      33.738 -13.385 -23.712  0.00  0.00    +0.000 C 
ENDBRANCH  15  16
ENDBRANCH  10  15
BRANCH   1  22
ATOM     22  C   UNL     1      34.178 -23.013 -18.787  0.00  0.00    +0.109 C 
BRANCH  22  23
ATOM     23  C   UNL     1      34.086 -22.810 -17.277  0.00  0.00    +0.107 C 
BRANCH  23  26
ATOM     24  O   UNL     1      31.687 -22.716 -17.343  0.00  0.00    -0.275 OA
ATOM     25  N   UNL     1      32.636 -23.674 -15.457  0.00  0.00    -0.279 N 
ATOM     26  C   UNL     1      32.691 -23.054 -16.710  0.00  0.00    +0.227 C 
ATOM     27  C   UNL     1      33.837 -24.066 -14.723  0.00  0.00    +0.115 C 
BRANCH  25  28
ATOM     28  C   UNL     1      31.388 -23.972 -14.795  0.00  0.00    +0.075 C 
ATOM     29  C   UNL     1      31.606 -24.989 -13.673  0.00  0.00    +0.020 C 
ATOM     30  C   UNL     1      30.345 -24.467 -15.801  0.00  0.00    +0.020 C 
ATOM     31  C   UNL     1      30.294 -25.364 -12.988  0.00  0.00    +0.002 C 
ATOM     32  C   UNL     1      29.034 -24.840 -15.114  0.00  0.00    +0.002 C 
ATOM     33  C   UNL     1      29.255 -25.853 -13.994  0.00  0.00    +0.000 C 
ENDBRANCH  25  28
ENDBRANCH  23  26
ENDBRANCH  22  23
ENDBRANCH   1  22
TORSDOF 6
ENDMDL
MODEL 8
REMARK VINA RESULT:     -11.7      2.453     10.955
REMARK  Name = 16741238
REMARK  6 active torsions:
REMARK  status: ('A' for Active; 'I' for Inactive)
REMARK    1  A    between atoms: N_1  and  C_22
REMARK    2  A    between atoms: C_10  and  C_15
REMARK    3  A    between atoms: C_15  and  C_16
REMARK    4  A    between atoms: C_22  and  C_23
REMARK    5  A    between atoms: C_23  and  C_26
REMARK    6  A    between atoms: N_25  and  C_28
REMARK                            x       y       z     vdW  Elec       q    Type
REMARK                         _______ _______ _______ _____ _____    ______ ____
ROOT
ATOM      1  N   UNL     1      32.245 -12.265 -22.152  0.00  0.00    -0.249 N 
ATOM      2  N   UNL     1      31.872 -11.300 -19.981  0.00  0.00    -0.373 NA
ATOM      3  N   UNL     1      31.824 -13.596 -20.253  0.00  0.00    -0.321 N 
ATOM      4  C   UNL     1      32.434 -10.977 -22.822  0.00  0.00    +0.071 C 
ATOM      5  C   UNL     1      32.300  -9.809 -21.884  0.00  0.00    +0.045 C 
ATOM      6  C   UNL     1      31.979 -12.333 -20.781  0.00  0.00    +0.239 C 
ATOM      7  C   UNL     1      32.029 -10.015 -20.524  0.00  0.00    +0.136 C 
ATOM      8  C   UNL     1      32.449  -8.504 -22.375  0.00  0.00    +0.007 C 
ATOM      9  C   UNL     1      31.912  -8.908 -19.674  0.00  0.00    +0.032 C 
ATOM     10  C   UNL     1      32.329  -7.409 -21.520  0.00  0.00    +0.039 C 
ATOM     11  C   UNL     1      32.061  -7.612 -20.168  0.00  0.00    +0.006 C 
ATOM     12  H   UNL     1      31.902 -14.386 -20.836  0.00  0.00    +0.146 HD
ATOM     13  H   UNL     1      31.635 -13.709 -19.294  0.00  0.00    +0.146 HD
ENDROOT
BRANCH  10  15
ATOM     14  O   UNL     1      31.956  -5.101 -21.453  0.00  0.00    -0.287 OA
ATOM     15  C   UNL     1      32.484  -6.060 -22.037  0.00  0.00    +0.196 C 
BRANCH  15  16
ATOM     16  C   UNL     1      33.271  -5.761 -23.272  0.00  0.00    +0.039 C 
ATOM     17  C   UNL     1      34.491  -6.399 -23.493  0.00  0.00    +0.003 C 
ATOM     18  C   UNL     1      32.784  -4.845 -24.204  0.00  0.00    +0.003 C 
ATOM     19  C   UNL     1      35.225  -6.120 -24.645  0.00  0.00    +0.000 C 
ATOM     20  C   UNL     1      33.518  -4.566 -25.357  0.00  0.00    +0.000 C 
ATOM     21  C   UNL     1      34.739  -5.204 -25.577  0.00  0.00    +0.000 C 
ENDBRANCH  15  16
ENDBRANCH  10  15
BRANCH   1  22
ATOM     22  C   UNL     1      32.360 -13.435 -23.016  0.00  0.00    +0.109 C 
BRANCH  22  23
ATOM     23  C   UNL     1      33.802 -13.617 -23.480  0.00  0.00    +0.107 C 
BRANCH  23  26
ATOM     24  O   UNL     1      35.044 -14.750 -21.766  0.00  0.00    -0.275 OA
ATOM     25  N   UNL     1      34.461 -16.006 -23.625  0.00  0.00    -0.279 N 
ATOM     26  C   UNL     1      34.495 -14.830 -22.868  0.00  0.00    +0.227 C 
ATOM     27  C   UNL     1      33.805 -16.080 -24.929  0.00  0.00    +0.115 C 
BRANCH  25  28
ATOM     28  C   UNL     1      35.071 -17.234 -23.175  0.00  0.00    +0.075 C 
ATOM     29  C   UNL     1      34.344 -18.443 -23.769  0.00  0.00    +0.020 C 
ATOM     30  C   UNL     1      35.098 -17.297 -21.645  0.00  0.00    +0.020 C 
ATOM     31  C   UNL     1      34.935 -19.758 -23.268  0.00  0.00    +0.002 C 
ATOM     32  C   UNL     1      35.690 -18.614 -21.147  0.00  0.00    +0.002 C 
ATOM     33  C   UNL     1      34.965 -19.817 -21.743  0.00  0.00    +0.000 C 
ENDBRANCH  25  28
ENDBRANCH  23  26
ENDBRANCH  22  23
ENDBRANCH   1  22
TORSDOF 6
ENDMDL
MODEL 9
REMARK VINA RESULT:     -11.5      5.857     10.508
REMARK  Name = 16741238
REMARK  6 active torsions:
REMARK  status: ('A' for Active; 'I' for Inactive)
REMARK    1  A    between atoms: N_1  and  C_22
REMARK    2  A    between atoms: C_10  and  C_15
REMARK    3  A    between atoms: C_15  and  C_16
REMARK    4  A    between atoms: C_22  and  C_23
REMARK    5  A    between atoms: C_23  and  C_26
REMARK    6  A    between atoms: N_25  and  C_28
REMARK                            x       y       z     vdW  Elec       q    Type
REMARK                         _______ _______ _______ _____ _____    ______ ____
ROOT
ATOM      1  N   UNL     1      34.674 -22.811 -17.844  0.00  0.00    -0.249 N 
ATOM      2  N   UNL     1      34.854 -22.980 -15.452  0.00  0.00    -0.373 NA
ATOM      3  N   UNL     1      36.708 -22.427 -16.718  0.00  0.00    -0.321 N 
ATOM      4  C   UNL     1      33.248 -23.143 -17.878  0.00  0.00    +0.071 C 
ATOM      5  C   UNL     1      32.680 -23.404 -16.511  0.00  0.00    +0.045 C 
ATOM      6  C   UNL     1      35.372 -22.753 -16.634  0.00  0.00    +0.239 C 
ATOM      7  C   UNL     1      33.492 -23.313 -15.373  0.00  0.00    +0.136 C 
ATOM      8  C   UNL     1      31.325 -23.740 -16.376  0.00  0.00    +0.007 C 
ATOM      9  C   UNL     1      32.934 -23.561 -14.112  0.00  0.00    +0.032 C 
ATOM     10  C   UNL     1      30.780 -23.985 -15.116  0.00  0.00    +0.039 C 
ATOM     11  C   UNL     1      31.586 -23.895 -13.983  0.00  0.00    +0.006 C 
ATOM     12  H   UNL     1      37.118 -22.251 -17.596  0.00  0.00    +0.146 HD
ATOM     13  H   UNL     1      37.253 -22.370 -15.900  0.00  0.00    +0.146 HD
ENDROOT
BRANCH  10  15
ATOM     14  O   UNL     1      29.035 -25.312 -14.301  0.00  0.00    -0.287 OA
ATOM     15  C   UNL     1      29.376 -24.334 -14.984  0.00  0.00    +0.196 C 
BRANCH  15  16
ATOM     16  C   UNL     1      28.291 -23.550 -15.648  0.00  0.00    +0.039 C 
ATOM     17  C   UNL     1      28.099 -23.651 -17.025  0.00  0.00    +0.003 C 
ATOM     18  C   UNL     1      27.467 -22.717 -14.889  0.00  0.00    +0.003 C 
ATOM     19  C   UNL     1      27.086 -22.920 -17.645  0.00  0.00    +0.000 C 
ATOM     20  C   UNL     1      26.454 -21.986 -15.508  0.00  0.00    +0.000 C 
ATOM     21  C   UNL     1      26.263 -22.087 -16.886  0.00  0.00    +0.000 C 
ENDBRANCH  15  16
ENDBRANCH  10  15
BRANCH   1  22
ATOM     22  C   UNL     1      35.281 -22.551 -19.145  0.00  0.00    +0.109 C 
BRANCH  22  23
ATOM     23  C   UNL     1      35.642 -21.074 -19.281  0.00  0.00    +0.107 C 
BRANCH  23  26
ATOM     24  O   UNL     1      33.565 -20.568 -20.374  0.00  0.00    -0.275 OA
ATOM     25  N   UNL     1      35.417 -19.351 -21.053  0.00  0.00    -0.279 N 
ATOM     26  C   UNL     1      34.769 -20.319 -20.279  0.00  0.00    +0.227 C 
ATOM     27  C   UNL     1      36.846 -19.071 -20.925  0.00  0.00    +0.115 C 
BRANCH  25  28
ATOM     28  C   UNL     1      34.722 -18.555 -22.037  0.00  0.00    +0.075 C 
ATOM     29  C   UNL     1      34.692 -19.278 -23.386  0.00  0.00    +0.020 C 
ATOM     30  C   UNL     1      35.361 -17.169 -22.162  0.00  0.00    +0.020 C 
ATOM     31  C   UNL     1      34.010 -18.436 -24.461  0.00  0.00    +0.002 C 
ATOM     32  C   UNL     1      34.675 -16.329 -23.237  0.00  0.00    +0.002 C 
ATOM     33  C   UNL     1      34.645 -17.053 -24.580  0.00  0.00    +0.000 C 
ENDBRANCH  25  28
ENDBRANCH  23  26
ENDBRANCH  22  23
ENDBRANCH   1  22
TORSDOF 6
ENDMDL
