MODEL 1
REMARK VINA RESULT:     -11.8      0.000      0.000
REMARK  Name = 11677589
REMARK  7 active torsions:
REMARK  status: ('A' for Active; 'I' for Inactive)
REMARK    1  A    between atoms: C_1  and  N_7
REMARK    2  A    between atoms: C_2  and  C_20
REMARK    3  A    between atoms: C_11  and  C_18
REMARK    4  A    between atoms: C_20  and  C_21
REMARK    5  A    between atoms: C_21  and  N_23
REMARK    6  A    between atoms: N_24  and  S_28
REMARK    7  A    between atoms: S_28  and  C_31
REMARK                            x       y       z     vdW  Elec       q    Type
REMARK                         _______ _______ _______ _____ _____    ______ ____
ROOT
ATOM      1  C   UNL     1      32.616  -9.002 -22.973  0.00  0.00    +0.058 C 
ATOM      2  C   UNL     1      32.781 -11.760 -22.692  0.00  0.00    -0.020 C 
ATOM      3  C   UNL     1      33.803  -9.653 -23.285  0.00  0.00    +0.015 C 
ATOM      4  C   UNL     1      31.510  -9.712 -22.522  0.00  0.00    +0.015 C 
ATOM      5  C   UNL     1      33.885 -11.038 -23.143  0.00  0.00    -0.003 C 
ATOM      6  C   UNL     1      31.593 -11.097 -22.381  0.00  0.00    -0.003 C 
ENDROOT
BRANCH   1   7
ATOM      7  N   UNL     1      32.533  -7.616 -23.113  0.00  0.00    -0.242 N 
ATOM      8  N   UNL     1      32.125  -5.492 -22.598  0.00  0.00    -0.387 NA
ATOM      9  N   UNL     1      33.366  -4.897 -26.037  0.00  0.00    -0.408 NA
ATOM     10  C   UNL     1      32.882  -6.896 -24.226  0.00  0.00    +0.091 C 
ATOM     11  C   UNL     1      32.087  -6.734 -22.168  0.00  0.00    +0.168 C 
ATOM     12  C   UNL     1      32.618  -5.574 -23.879  0.00  0.00    +0.172 C 
ATOM     13  C   UNL     1      33.387  -7.269 -25.464  0.00  0.00    +0.045 C 
ATOM     14  C   UNL     1      32.873  -4.573 -24.816  0.00  0.00    +0.140 C 
ATOM     15  C   UNL     1      33.605  -6.201 -26.323  0.00  0.00    +0.110 C 
ATOM     16  C   UNL     1      32.628  -3.126 -24.551  0.00  0.00    +0.069 C 
ATOM     17  C   UNL     1      34.149  -6.483 -27.686  0.00  0.00    +0.066 C 
BRANCH  11  18
ATOM     18  C   UNL     1      31.624  -7.164 -20.831  0.00  0.00    +0.075 C 
ATOM     19  C   UNL     1      32.779  -7.392 -19.851  0.00  0.00    +0.009 C 
ENDBRANCH  11  18
ENDBRANCH   1   7
BRANCH   2  20
ATOM     20  C   UNL     1      32.869 -13.241 -22.540  0.00  0.00    +0.048 C 
BRANCH  20  21
ATOM     21  C   UNL     1      34.272 -13.736 -22.168  0.00  0.00    +0.096 C 
BRANCH  21  23
ATOM     22  O   UNL     1      35.663 -15.964 -23.333  0.00  0.00    -0.251 OA
ATOM     23  N   UNL     1      34.266 -15.098 -21.705  0.00  0.00    -0.287 N 
ATOM     24  N   UNL     1      34.801 -17.382 -21.687  0.00  0.00    -0.169 N 
ATOM     25  C   UNL     1      34.969 -16.114 -22.331  0.00  0.00    +0.319 C 
ATOM     26  H   UNL     1      33.735 -15.319 -20.906  0.00  0.00    +0.151 HD
ATOM     27  H   UNL     1      34.223 -17.411 -20.891  0.00  0.00    +0.178 HD
BRANCH  24  28
ATOM     28  S   UNL     1      35.521 -18.848 -22.189  0.00  0.00    +0.077 S 
ATOM     29  O   UNL     1      34.988 -19.228 -23.483  0.00  0.00    -0.150 OA
ATOM     30  O   UNL     1      36.954 -18.775 -21.977  0.00  0.00    -0.150 OA
BRANCH  28  31
ATOM     31  C   UNL     1      34.883 -19.969 -20.980  0.00  0.00    +0.125 C 
ATOM     32  C   UNL     1      33.513 -20.063 -20.801  0.00  0.00    +0.020 C 
ATOM     33  C   UNL     1      35.764 -20.733 -20.235  0.00  0.00    +0.020 C 
ATOM     34  C   UNL     1      33.883 -21.725 -19.088  0.00  0.00    -0.022 C 
ATOM     35  C   UNL     1      33.010 -20.948 -19.847  0.00  0.00    -0.003 C 
ATOM     36  C   UNL     1      35.261 -21.618 -19.281  0.00  0.00    -0.003 C 
ATOM     37  C   UNL     1      33.345 -22.672 -18.070  0.00  0.00    +0.031 C 
ENDBRANCH  28  31
ENDBRANCH  24  28
ENDBRANCH  21  23
ENDBRANCH  20  21
ENDBRANCH   2  20
TORSDOF 7
ENDMDL
MODEL 2
REMARK VINA RESULT:     -11.7      5.456     14.394
REMARK  Name = 11677589
REMARK  7 active torsions:
REMARK  status: ('A' for Active; 'I' for Inactive)
REMARK    1  A    between atoms: C_1  and  N_7
REMARK    2  A    between atoms: C_2  and  C_20
REMARK    3  A    between atoms: C_11  and  C_18
REMARK    4  A    between atoms: C_20  and  C_21
REMARK    5  A    between atoms: C_21  and  N_23
REMARK    6  A    between atoms: N_24  and  S_28
REMARK    7  A    between atoms: S_28  and  C_31
REMARK                            x       y       z     vdW  Elec       q    Type
REMARK                         _______ _______ _______ _____ _____    ______ ____
ROOT
ATOM      1  C   UNL     1      34.467 -22.957 -16.915  0.00  0.00    +0.058 C 
ATOM      2  C   UNL     1      35.699 -21.644 -19.029  0.00  0.00    -0.020 C 
ATOM      3  C   UNL     1      35.760 -22.474 -16.762  0.00  0.00    +0.015 C 
ATOM      4  C   UNL     1      33.781 -22.792 -18.112  0.00  0.00    +0.015 C 
ATOM      5  C   UNL     1      36.379 -21.815 -17.824  0.00  0.00    -0.003 C 
ATOM      6  C   UNL     1      34.400 -22.133 -19.174  0.00  0.00    -0.003 C 
ENDROOT
BRANCH   1   7
ATOM      7  N   UNL     1      33.847 -23.617 -15.853  0.00  0.00    -0.242 N 
ATOM      8  N   UNL     1      33.618 -24.849 -14.017  0.00  0.00    -0.387 NA
ATOM      9  N   UNL     1      30.022 -24.125 -14.531  0.00  0.00    -0.408 NA
ATOM     10  C   UNL     1      32.500 -23.650 -15.600  0.00  0.00    +0.091 C 
ATOM     11  C   UNL     1      34.472 -24.347 -14.880  0.00  0.00    +0.168 C 
ATOM     12  C   UNL     1      32.384 -24.425 -14.449  0.00  0.00    +0.172 C 
ATOM     13  C   UNL     1      31.409 -23.092 -16.252  0.00  0.00    +0.045 C 
ATOM     14  C   UNL     1      31.113 -24.653 -13.923  0.00  0.00    +0.140 C 
ATOM     15  C   UNL     1      30.192 -23.378 -15.650  0.00  0.00    +0.110 C 
ATOM     16  C   UNL     1      30.872 -25.467 -12.696  0.00  0.00    +0.069 C 
ATOM     17  C   UNL     1      28.946 -22.828 -16.265  0.00  0.00    +0.066 C 
BRANCH  11  18
ATOM     18  C   UNL     1      35.940 -24.528 -14.839  0.00  0.00    +0.075 C 
ATOM     19  C   UNL     1      36.350 -26.000 -14.726  0.00  0.00    +0.009 C 
ENDBRANCH  11  18
ENDBRANCH   1   7
BRANCH   2  20
ATOM     20  C   UNL     1      36.361 -20.940 -20.165  0.00  0.00    +0.048 C 
BRANCH  20  21
ATOM     21  C   UNL     1      35.400 -20.575 -21.303  0.00  0.00    +0.096 C 
BRANCH  21  23
ATOM     22  O   UNL     1      33.867 -19.192 -23.301  0.00  0.00    -0.251 OA
ATOM     23  N   UNL     1      35.649 -19.259 -21.827  0.00  0.00    -0.287 N 
ATOM     24  N   UNL     1      35.307 -17.357 -23.158  0.00  0.00    -0.169 N 
ATOM     25  C   UNL     1      34.854 -18.666 -22.795  0.00  0.00    +0.319 C 
ATOM     26  H   UNL     1      36.422 -18.756 -21.483  0.00  0.00    +0.151 HD
ATOM     27  H   UNL     1      36.111 -17.016 -22.704  0.00  0.00    +0.178 HD
BRANCH  24  28
ATOM     28  S   UNL     1      34.568 -16.341 -24.316  0.00  0.00    +0.077 S 
ATOM     29  O   UNL     1      35.592 -15.707 -25.124  0.00  0.00    -0.150 OA
ATOM     30  O   UNL     1      33.470 -17.052 -24.946  0.00  0.00    -0.150 OA
BRANCH  28  31
ATOM     31  C   UNL     1      33.847 -15.109 -23.274  0.00  0.00    +0.125 C 
ATOM     32  C   UNL     1      33.008 -14.159 -23.830  0.00  0.00    +0.020 C 
ATOM     33  C   UNL     1      34.135 -15.117 -21.920  0.00  0.00    +0.020 C 
ATOM     34  C   UNL     1      32.718 -13.180 -21.641  0.00  0.00    -0.022 C 
ATOM     35  C   UNL     1      32.439 -13.187 -23.007  0.00  0.00    -0.003 C 
ATOM     36  C   UNL     1      33.566 -14.145 -21.097  0.00  0.00    -0.003 C 
ATOM     37  C   UNL     1      32.109 -12.142 -20.761  0.00  0.00    +0.031 C 
ENDBRANCH  28  31
ENDBRANCH  24  28
ENDBRANCH  21  23
ENDBRANCH  20  21
ENDBRANCH   2  20
TORSDOF 7
ENDMDL
MODEL 3
REMARK VINA RESULT:     -11.7      5.172     14.976
REMARK  Name = 11677589
REMARK  7 active torsions:
REMARK  status: ('A' for Active; 'I' for Inactive)
REMARK    1  A    between atoms: C_1  and  N_7
REMARK    2  A    between atoms: C_2  and  C_20
REMARK    3  A    between atoms: C_11  and  C_18
REMARK    4  A    between atoms: C_20  and  C_21
REMARK    5  A    between atoms: C_21  and  N_23
REMARK    6  A    between atoms: N_24  and  S_28
REMARK    7  A    between atoms: S_28  and  C_31
REMARK                            x       y       z     vdW  Elec       q    Type
REMARK                         _______ _______ _______ _____ _____    ______ ____
ROOT
ATOM      1  C   UNL     1      35.368 -22.990 -16.462  0.00  0.00    +0.058 C 
ATOM      2  C   UNL     1      35.333 -21.749 -18.945  0.00  0.00    -0.020 C 
ATOM      3  C   UNL     1      36.472 -22.257 -16.877  0.00  0.00    +0.015 C 
ATOM      4  C   UNL     1      34.246 -23.110 -17.272  0.00  0.00    +0.015 C 
ATOM      5  C   UNL     1      36.455 -21.634 -18.125  0.00  0.00    -0.003 C 
ATOM      6  C   UNL     1      34.229 -22.487 -18.520  0.00  0.00    -0.003 C 
ENDROOT
BRANCH   1   7
ATOM      7  N   UNL     1      35.384 -23.614 -15.213  0.00  0.00    -0.242 N 
ATOM      8  N   UNL     1      34.655 -24.367 -13.253  0.00  0.00    -0.387 NA
ATOM      9  N   UNL     1      38.147 -25.561 -12.930  0.00  0.00    -0.408 NA
ATOM     10  C   UNL     1      36.465 -24.223 -14.630  0.00  0.00    +0.091 C 
ATOM     11  C   UNL     1      34.327 -23.726 -14.353  0.00  0.00    +0.168 C 
ATOM     12  C   UNL     1      35.984 -24.684 -13.409  0.00  0.00    +0.172 C 
ATOM     13  C   UNL     1      37.776 -24.405 -15.047  0.00  0.00    +0.045 C 
ATOM     14  C   UNL     1      36.857 -25.363 -12.559  0.00  0.00    +0.140 C 
ATOM     15  C   UNL     1      38.563 -25.091 -14.132  0.00  0.00    +0.110 C 
ATOM     16  C   UNL     1      36.450 -25.900 -11.229  0.00  0.00    +0.069 C 
ATOM     17  C   UNL     1      39.995 -25.346 -14.474  0.00  0.00    +0.066 C 
BRANCH  11  18
ATOM     18  C   UNL     1      32.988 -23.177 -14.658  0.00  0.00    +0.075 C 
ATOM     19  C   UNL     1      31.902 -23.715 -13.721  0.00  0.00    +0.009 C 
ENDBRANCH  11  18
ENDBRANCH   1   7
BRANCH   2  20
ATOM     20  C   UNL     1      35.315 -21.083 -20.280  0.00  0.00    +0.048 C 
BRANCH  20  21
ATOM     21  C   UNL     1      36.366 -19.976 -20.427  0.00  0.00    +0.096 C 
BRANCH  21  23
ATOM     22  O   UNL     1      35.844 -18.655 -22.924  0.00  0.00    -0.251 OA
ATOM     23  N   UNL     1      35.772 -18.680 -20.612  0.00  0.00    -0.287 N 
ATOM     24  N   UNL     1      34.957 -16.818 -21.784  0.00  0.00    -0.169 N 
ATOM     25  C   UNL     1      35.556 -18.116 -21.859  0.00  0.00    +0.319 C 
ATOM     26  H   UNL     1      35.506 -18.167 -19.814  0.00  0.00    +0.151 HD
ATOM     27  H   UNL     1      34.764 -16.461 -20.888  0.00  0.00    +0.178 HD
BRANCH  24  28
ATOM     28  S   UNL     1      34.553 -15.837 -23.124  0.00  0.00    +0.077 S 
ATOM     29  O   UNL     1      35.761 -15.247 -23.669  0.00  0.00    -0.150 OA
ATOM     30  O   UNL     1      33.633 -16.556 -23.984  0.00  0.00    -0.150 OA
BRANCH  28  31
ATOM     31  C   UNL     1      33.622 -14.557 -22.337  0.00  0.00    +0.125 C 
ATOM     32  C   UNL     1      33.077 -13.545 -23.109  0.00  0.00    +0.020 C 
ATOM     33  C   UNL     1      33.456 -14.589 -20.964  0.00  0.00    +0.020 C 
ATOM     34  C   UNL     1      32.164 -12.553 -21.104  0.00  0.00    -0.022 C 
ATOM     35  C   UNL     1      32.341 -12.535 -22.487  0.00  0.00    -0.003 C 
ATOM     36  C   UNL     1      32.720 -13.580 -20.342  0.00  0.00    -0.003 C 
ATOM     37  C   UNL     1      31.377 -11.474 -20.441  0.00  0.00    +0.031 C 
ENDBRANCH  28  31
ENDBRANCH  24  28
ENDBRANCH  21  23
ENDBRANCH  20  21
ENDBRANCH   2  20
TORSDOF 7
ENDMDL
MODEL 4
REMARK VINA RESULT:     -11.5      6.548     10.298
REMARK  Name = 11677589
REMARK  7 active torsions:
REMARK  status: ('A' for Active; 'I' for Inactive)
REMARK    1  A    between atoms: C_1  and  N_7
REMARK    2  A    between atoms: C_2  and  C_20
REMARK    3  A    between atoms: C_11  and  C_18
REMARK    4  A    between atoms: C_20  and  C_21
REMARK    5  A    between atoms: C_21  and  N_23
REMARK    6  A    between atoms: N_24  and  S_28
REMARK    7  A    between atoms: S_28  and  C_31
REMARK                            x       y       z     vdW  Elec       q    Type
REMARK                         _______ _______ _______ _____ _____    ______ ____
ROOT
ATOM      1  C   UNL     1      35.383 -19.220 -21.405  0.00  0.00    +0.058 C 
ATOM      2  C   UNL     1      36.086 -21.051 -19.440  0.00  0.00    -0.020 C 
ATOM      3  C   UNL     1      34.418 -20.076 -20.891  0.00  0.00    +0.015 C 
ATOM      4  C   UNL     1      36.694 -19.266 -20.951  0.00  0.00    +0.015 C 
ATOM      5  C   UNL     1      34.772 -20.997 -19.904  0.00  0.00    -0.003 C 
ATOM      6  C   UNL     1      37.048 -20.187 -19.964  0.00  0.00    -0.003 C 
ENDROOT
BRANCH   1   7
ATOM      7  N   UNL     1      35.030 -18.299 -22.393  0.00  0.00    -0.242 N 
ATOM      8  N   UNL     1      34.541 -17.489 -24.405  0.00  0.00    -0.387 NA
ATOM      9  N   UNL     1      34.163 -14.316 -22.532  0.00  0.00    -0.408 NA
ATOM     10  C   UNL     1      34.777 -16.966 -22.200  0.00  0.00    +0.091 C 
ATOM     11  C   UNL     1      34.876 -18.563 -23.726  0.00  0.00    +0.168 C 
ATOM     12  C   UNL     1      34.475 -16.484 -23.470  0.00  0.00    +0.172 C 
ATOM     13  C   UNL     1      34.786 -16.164 -21.067  0.00  0.00    +0.045 C 
ATOM     14  C   UNL     1      34.165 -15.131 -23.616  0.00  0.00    +0.140 C 
ATOM     15  C   UNL     1      34.465 -14.838 -21.318  0.00  0.00    +0.110 C 
ATOM     16  C   UNL     1      33.826 -14.508 -24.928  0.00  0.00    +0.069 C 
ATOM     17  C   UNL     1      34.443 -13.880 -20.170  0.00  0.00    +0.066 C 
BRANCH  11  18
ATOM     18  C   UNL     1      35.073 -19.913 -24.299  0.00  0.00    +0.075 C 
ATOM     19  C   UNL     1      33.773 -20.521 -24.836  0.00  0.00    +0.009 C 
ENDBRANCH  11  18
ENDBRANCH   1   7
BRANCH   2  20
ATOM     20  C   UNL     1      36.464 -22.036 -18.385  0.00  0.00    +0.048 C 
BRANCH  20  21
ATOM     21  C   UNL     1      36.987 -21.385 -17.100  0.00  0.00    +0.096 C 
BRANCH  21  23
ATOM     22  O   UNL     1      36.399 -23.926 -15.895  0.00  0.00    -0.251 OA
ATOM     23  N   UNL     1      36.126 -21.630 -15.974  0.00  0.00    -0.287 N 
ATOM     24  N   UNL     1      35.001 -22.883 -14.341  0.00  0.00    -0.169 N 
ATOM     25  C   UNL     1      35.898 -22.894 -15.456  0.00  0.00    +0.319 C 
ATOM     26  H   UNL     1      35.676 -20.863 -15.552  0.00  0.00    +0.151 HD
ATOM     27  H   UNL     1      34.643 -22.010 -14.058  0.00  0.00    +0.178 HD
BRANCH  24  28
ATOM     28  S   UNL     1      34.499 -24.259 -13.461  0.00  0.00    +0.077 S 
ATOM     29  O   UNL     1      35.193 -25.430 -13.962  0.00  0.00    -0.150 OA
ATOM     30  O   UNL     1      34.507 -23.951 -12.043  0.00  0.00    -0.150 OA
BRANCH  28  31
ATOM     31  C   UNL     1      32.804 -24.373 -13.948  0.00  0.00    +0.125 C 
ATOM     32  C   UNL     1      31.999 -25.344 -13.378  0.00  0.00    +0.020 C 
ATOM     33  C   UNL     1      32.312 -23.488 -14.892  0.00  0.00    +0.020 C 
ATOM     34  C   UNL     1      30.149 -24.550 -14.713  0.00  0.00    -0.022 C 
ATOM     35  C   UNL     1      30.661 -25.434 -13.764  0.00  0.00    -0.003 C 
ATOM     36  C   UNL     1      30.974 -23.577 -15.277  0.00  0.00    -0.003 C 
ATOM     37  C   UNL     1      28.719 -24.645 -15.123  0.00  0.00    +0.031 C 
ENDBRANCH  28  31
ENDBRANCH  24  28
ENDBRANCH  21  23
ENDBRANCH  20  21
ENDBRANCH   2  20
TORSDOF 7
ENDMDL
MODEL 5
REMARK VINA RESULT:     -11.5      4.538     13.860
REMARK  Name = 11677589
REMARK  7 active torsions:
REMARK  status: ('A' for Active; 'I' for Inactive)
REMARK    1  A    between atoms: C_1  and  N_7
REMARK    2  A    between atoms: C_2  and  C_20
REMARK    3  A    between atoms: C_11  and  C_18
REMARK    4  A    between atoms: C_20  and  C_21
REMARK    5  A    between atoms: C_21  and  N_23
REMARK    6  A    between atoms: N_24  and  S_28
REMARK    7  A    between atoms: S_28  and  C_31
REMARK                            x       y       z     vdW  Elec       q    Type
REMARK                         _______ _______ _______ _____ _____    ______ ____
ROOT
ATOM      1  C   UNL     1      34.383 -21.972 -18.304  0.00  0.00    +0.058 C 
ATOM      2  C   UNL     1      34.654 -20.556 -20.677  0.00  0.00    -0.020 C 
ATOM      3  C   UNL     1      33.247 -21.551 -18.984  0.00  0.00    +0.015 C 
ATOM      4  C   UNL     1      35.652 -21.694 -18.794  0.00  0.00    +0.015 C 
ATOM      5  C   UNL     1      33.384 -20.840 -20.176  0.00  0.00    -0.003 C 
ATOM      6  C   UNL     1      35.789 -20.982 -19.986  0.00  0.00    -0.003 C 
ENDROOT
BRANCH   1   7
ATOM      7  N   UNL     1      34.247 -22.684 -17.111  0.00  0.00    -0.242 N 
ATOM      8  N   UNL     1      34.822 -23.765 -15.255  0.00  0.00    -0.387 NA
ATOM      9  N   UNL     1      31.155 -24.125 -14.876  0.00  0.00    -0.408 NA
ATOM     10  C   UNL     1      33.066 -23.070 -16.532  0.00  0.00    +0.091 C 
ATOM     11  C   UNL     1      35.267 -23.121 -16.311  0.00  0.00    +0.168 C 
ATOM     12  C   UNL     1      33.452 -23.743 -15.376  0.00  0.00    +0.172 C 
ATOM     13  C   UNL     1      31.740 -22.899 -16.903  0.00  0.00    +0.045 C 
ATOM     14  C   UNL     1      32.462 -24.271 -14.548  0.00  0.00    +0.140 C 
ATOM     15  C   UNL     1      30.834 -23.460 -16.014  0.00  0.00    +0.110 C 
ATOM     16  C   UNL     1      32.761 -25.009 -13.287  0.00  0.00    +0.069 C 
ATOM     17  C   UNL     1      29.375 -23.338 -16.311  0.00  0.00    +0.066 C 
BRANCH  11  18
ATOM     18  C   UNL     1      36.690 -22.880 -16.631  0.00  0.00    +0.075 C 
ATOM     19  C   UNL     1      37.594 -22.957 -15.396  0.00  0.00    +0.009 C 
ENDBRANCH  11  18
ENDBRANCH   1   7
BRANCH   2  20
ATOM     20  C   UNL     1      34.800 -19.795 -21.952  0.00  0.00    +0.048 C 
BRANCH  20  21
ATOM     21  C   UNL     1      35.837 -18.667 -21.877  0.00  0.00    +0.096 C 
BRANCH  21  23
ATOM     22  O   UNL     1      34.980 -16.850 -23.929  0.00  0.00    -0.251 OA
ATOM     23  N   UNL     1      35.229 -17.378 -21.691  0.00  0.00    -0.287 N 
ATOM     24  N   UNL     1      34.269 -15.327 -22.306  0.00  0.00    -0.169 N 
ATOM     25  C   UNL     1      34.845 -16.562 -22.743  0.00  0.00    +0.319 C 
ATOM     26  H   UNL     1      35.079 -17.058 -20.772  0.00  0.00    +0.151 HD
ATOM     27  H   UNL     1      34.203 -15.179 -21.335  0.00  0.00    +0.178 HD
BRANCH  24  28
ATOM     28  S   UNL     1      33.687 -14.089 -23.331  0.00  0.00    +0.077 S 
ATOM     29  O   UNL     1      34.810 -13.371 -23.902  0.00  0.00    -0.150 OA
ATOM     30  O   UNL     1      32.646 -14.625 -24.186  0.00  0.00    -0.150 OA
BRANCH  28  31
ATOM     31  C   UNL     1      32.892 -13.028 -22.162  0.00  0.00    +0.125 C 
ATOM     32  C   UNL     1      32.431 -11.790 -22.576  0.00  0.00    +0.020 C 
ATOM     33  C   UNL     1      32.744 -13.454 -20.854  0.00  0.00    +0.020 C 
ATOM     34  C   UNL     1      31.646 -11.367 -20.331  0.00  0.00    -0.022 C 
ATOM     35  C   UNL     1      31.803 -10.953 -21.654  0.00  0.00    -0.003 C 
ATOM     36  C   UNL     1      32.116 -12.617 -19.931  0.00  0.00    -0.003 C 
ATOM     37  C   UNL     1      30.974 -10.473 -19.346  0.00  0.00    +0.031 C 
ENDBRANCH  28  31
ENDBRANCH  24  28
ENDBRANCH  21  23
ENDBRANCH  20  21
ENDBRANCH   2  20
TORSDOF 7
ENDMDL
MODEL 6
REMARK VINA RESULT:     -11.3      3.543      6.363
REMARK  Name = 11677589
REMARK  7 active torsions:
REMARK  status: ('A' for Active; 'I' for Inactive)
REMARK    1  A    between atoms: C_1  and  N_7
REMARK    2  A    between atoms: C_2  and  C_20
REMARK    3  A    between atoms: C_11  and  C_18
REMARK    4  A    between atoms: C_20  and  C_21
REMARK    5  A    between atoms: C_21  and  N_23
REMARK    6  A    between atoms: N_24  and  S_28
REMARK    7  A    between atoms: S_28  and  C_31
REMARK                            x       y       z     vdW  Elec       q    Type
REMARK                         _______ _______ _______ _____ _____    ______ ____
ROOT
ATOM      1  C   UNL     1      33.932 -14.195 -22.129  0.00  0.00    +0.058 C 
ATOM      2  C   UNL     1      35.060 -16.608 -21.346  0.00  0.00    -0.020 C 
ATOM      3  C   UNL     1      34.411 -15.072 -23.094  0.00  0.00    +0.015 C 
ATOM      4  C   UNL     1      34.009 -14.508 -20.779  0.00  0.00    +0.015 C 
ATOM      5  C   UNL     1      34.978 -16.284 -22.700  0.00  0.00    -0.003 C 
ATOM      6  C   UNL     1      34.576 -15.720 -20.385  0.00  0.00    -0.003 C 
ENDROOT
BRANCH   1   7
ATOM      7  N   UNL     1      33.365 -12.981 -22.522  0.00  0.00    -0.242 N 
ATOM      8  N   UNL     1      32.744 -11.305 -23.844  0.00  0.00    -0.387 NA
ATOM      9  N   UNL     1      31.370  -9.932 -20.690  0.00  0.00    -0.408 NA
ATOM     10  C   UNL     1      32.723 -12.089 -21.704  0.00  0.00    +0.091 C 
ATOM     11  C   UNL     1      33.352 -12.469 -23.790  0.00  0.00    +0.168 C 
ATOM     12  C   UNL     1      32.345 -11.052 -22.553  0.00  0.00    +0.172 C 
ATOM     13  C   UNL     1      32.448 -12.093 -20.344  0.00  0.00    +0.045 C 
ATOM     14  C   UNL     1      31.657  -9.965 -22.015  0.00  0.00    +0.140 C 
ATOM     15  C   UNL     1      31.761 -10.969 -19.909  0.00  0.00    +0.110 C 
ATOM     16  C   UNL     1      31.204  -8.801 -22.830  0.00  0.00    +0.069 C 
ATOM     17  C   UNL     1      31.410 -10.865 -18.460  0.00  0.00    +0.066 C 
BRANCH  11  18
ATOM     18  C   UNL     1      33.961 -13.172 -24.941  0.00  0.00    +0.075 C 
ATOM     19  C   UNL     1      32.916 -13.783 -25.880  0.00  0.00    +0.009 C 
ENDBRANCH  11  18
ENDBRANCH   1   7
BRANCH   2  20
ATOM     20  C   UNL     1      35.667 -17.904 -20.925  0.00  0.00    +0.048 C 
BRANCH  20  21
ATOM     21  C   UNL     1      34.766 -19.117 -21.189  0.00  0.00    +0.096 C 
BRANCH  21  23
ATOM     22  O   UNL     1      32.814 -20.886 -20.042  0.00  0.00    -0.251 OA
ATOM     23  N   UNL     1      35.009 -20.190 -20.263  0.00  0.00    -0.287 N 
ATOM     24  N   UNL     1      34.494 -21.991 -18.850  0.00  0.00    -0.169 N 
ATOM     25  C   UNL     1      34.003 -20.998 -19.757  0.00  0.00    +0.319 C 
ATOM     26  H   UNL     1      35.935 -20.358 -19.973  0.00  0.00    +0.151 HD
ATOM     27  H   UNL     1      35.462 -22.005 -18.677  0.00  0.00    +0.178 HD
BRANCH  24  28
ATOM     28  S   UNL     1      33.534 -23.152 -18.043  0.00  0.00    +0.077 S 
ATOM     29  O   UNL     1      32.218 -22.598 -17.793  0.00  0.00    -0.150 OA
ATOM     30  O   UNL     1      33.678 -24.435 -18.705  0.00  0.00    -0.150 OA
BRANCH  28  31
ATOM     31  C   UNL     1      34.382 -23.277 -16.498  0.00  0.00    +0.125 C 
ATOM     32  C   UNL     1      33.731 -23.835 -15.411  0.00  0.00    +0.020 C 
ATOM     33  C   UNL     1      35.683 -22.814 -16.402  0.00  0.00    +0.020 C 
ATOM     34  C   UNL     1      35.712 -23.472 -14.077  0.00  0.00    -0.022 C 
ATOM     35  C   UNL     1      34.401 -23.933 -14.192  0.00  0.00    -0.003 C 
ATOM     36  C   UNL     1      36.354 -22.912 -15.182  0.00  0.00    -0.003 C 
ATOM     37  C   UNL     1      36.428 -23.578 -12.774  0.00  0.00    +0.031 C 
ENDBRANCH  28  31
ENDBRANCH  24  28
ENDBRANCH  21  23
ENDBRANCH  20  21
ENDBRANCH   2  20
TORSDOF 7
ENDMDL
MODEL 7
REMARK VINA RESULT:     -11.0      4.746     14.833
REMARK  Name = 11677589
REMARK  7 active torsions:
REMARK  status: ('A' for Active; 'I' for Inactive)
REMARK    1  A    between atoms: C_1  and  N_7
REMARK    2  A    between atoms: C_2  and  C_20
REMARK    3  A    between atoms: C_11  and  C_18
REMARK    4  A    between atoms: C_20  and  C_21
REMARK    5  A    between atoms: C_21  and  N_23
REMARK    6  A    between atoms: N_24  and  S_28
REMARK    7  A    between atoms: S_28  and  C_31
REMARK                            x       y       z     vdW  Elec       q    Type
REMARK                         _______ _______ _______ _____ _____    ______ ____
ROOT
ATOM      1  C   UNL     1      35.662 -22.760 -16.673  0.00  0.00    +0.058 C 
ATOM      2  C   UNL     1      35.327 -21.584 -19.165  0.00  0.00    -0.020 C 
ATOM      3  C   UNL     1      34.487 -22.978 -17.380  0.00  0.00    +0.015 C 
ATOM      4  C   UNL     1      36.672 -21.962 -17.195  0.00  0.00    +0.015 C 
ATOM      5  C   UNL     1      34.319 -22.386 -18.632  0.00  0.00    -0.003 C 
ATOM      6  C   UNL     1      36.504 -21.371 -18.447  0.00  0.00    -0.003 C 
ENDROOT
BRANCH   1   7
ATOM      7  N   UNL     1      35.832 -23.351 -15.420  0.00  0.00    -0.242 N 
ATOM      8  N   UNL     1      36.853 -24.281 -13.677  0.00  0.00    -0.387 NA
ATOM      9  N   UNL     1      33.409 -24.439 -12.324  0.00  0.00    -0.408 NA
ATOM     10  C   UNL     1      34.838 -23.629 -14.518  0.00  0.00    +0.091 C 
ATOM     11  C   UNL     1      37.017 -23.758 -14.872  0.00  0.00    +0.168 C 
ATOM     12  C   UNL     1      35.501 -24.208 -13.440  0.00  0.00    +0.172 C 
ATOM     13  C   UNL     1      33.464 -23.434 -14.547  0.00  0.00    +0.045 C 
ATOM     14  C   UNL     1      34.754 -24.612 -12.334  0.00  0.00    +0.140 C 
ATOM     15  C   UNL     1      32.813 -23.869 -13.401  0.00  0.00    +0.110 C 
ATOM     16  C   UNL     1      35.359 -25.243 -11.125  0.00  0.00    +0.069 C 
ATOM     17  C   UNL     1      31.330 -23.709 -13.319  0.00  0.00    +0.066 C 
BRANCH  11  18
ATOM     18  C   UNL     1      38.311 -23.612 -15.573  0.00  0.00    +0.075 C 
ATOM     19  C   UNL     1      39.354 -24.632 -15.106  0.00  0.00    +0.009 C 
ENDBRANCH  11  18
ENDBRANCH   1   7
BRANCH   2  20
ATOM     20  C   UNL     1      35.146 -20.951 -20.504  0.00  0.00    +0.048 C 
BRANCH  20  21
ATOM     21  C   UNL     1      36.256 -19.956 -20.866  0.00  0.00    +0.096 C 
BRANCH  21  23
ATOM     22  O   UNL     1      35.310 -19.387 -23.518  0.00  0.00    -0.251 OA
ATOM     23  N   UNL     1      35.733 -18.706 -21.348  0.00  0.00    -0.287 N 
ATOM     24  N   UNL     1      34.826 -17.189 -22.891  0.00  0.00    -0.169 N 
ATOM     25  C   UNL     1      35.297 -18.519 -22.650  0.00  0.00    +0.319 C 
ATOM     26  H   UNL     1      35.683 -17.947 -20.724  0.00  0.00    +0.151 HD
ATOM     27  H   UNL     1      34.856 -16.556 -22.137  0.00  0.00    +0.178 HD
BRANCH  24  28
ATOM     28  S   UNL     1      34.217 -16.610 -24.379  0.00  0.00    +0.077 S 
ATOM     29  O   UNL     1      35.299 -16.528 -25.341  0.00  0.00    -0.150 OA
ATOM     30  O   UNL     1      32.995 -17.319 -24.705  0.00  0.00    -0.150 OA
BRANCH  28  31
ATOM     31  C   UNL     1      33.750 -14.964 -23.936  0.00  0.00    +0.125 C 
ATOM     32  C   UNL     1      33.409 -14.066 -24.932  0.00  0.00    +0.020 C 
ATOM     33  C   UNL     1      33.733 -14.603 -22.600  0.00  0.00    +0.020 C 
ATOM     34  C   UNL     1      33.017 -12.386 -23.240  0.00  0.00    -0.022 C 
ATOM     35  C   UNL     1      33.040 -12.767 -24.582  0.00  0.00    -0.003 C 
ATOM     36  C   UNL     1      33.363 -13.304 -22.249  0.00  0.00    -0.003 C 
ATOM     37  C   UNL     1      32.621 -10.999 -22.866  0.00  0.00    +0.031 C 
ENDBRANCH  28  31
ENDBRANCH  24  28
ENDBRANCH  21  23
ENDBRANCH  20  21
ENDBRANCH   2  20
TORSDOF 7
ENDMDL
MODEL 8
REMARK VINA RESULT:     -11.0      6.521     10.269
REMARK  Name = 11677589
REMARK  7 active torsions:
REMARK  status: ('A' for Active; 'I' for Inactive)
REMARK    1  A    between atoms: C_1  and  N_7
REMARK    2  A    between atoms: C_2  and  C_20
REMARK    3  A    between atoms: C_11  and  C_18
REMARK    4  A    between atoms: C_20  and  C_21
REMARK    5  A    between atoms: C_21  and  N_23
REMARK    6  A    between atoms: N_24  and  S_28
REMARK    7  A    between atoms: S_28  and  C_31
REMARK                            x       y       z     vdW  Elec       q    Type
REMARK                         _______ _______ _______ _____ _____    ______ ____
ROOT
ATOM      1  C   UNL     1      35.002 -19.228 -21.725  0.00  0.00    +0.058 C 
ATOM      2  C   UNL     1      35.740 -20.905 -19.639  0.00  0.00    -0.020 C 
ATOM      3  C   UNL     1      36.333 -19.289 -21.333  0.00  0.00    +0.015 C 
ATOM      4  C   UNL     1      34.035 -19.995 -21.088  0.00  0.00    +0.015 C 
ATOM      5  C   UNL     1      36.703 -20.131 -20.285  0.00  0.00    -0.003 C 
ATOM      6  C   UNL     1      34.405 -20.837 -20.040  0.00  0.00    -0.003 C 
ENDROOT
BRANCH   1   7
ATOM      7  N   UNL     1      34.630 -18.385 -22.774  0.00  0.00    -0.242 N 
ATOM      8  N   UNL     1      33.978 -17.749 -24.802  0.00  0.00    -0.387 NA
ATOM      9  N   UNL     1      34.211 -14.364 -23.314  0.00  0.00    -0.408 NA
ATOM     10  C   UNL     1      34.558 -17.018 -22.723  0.00  0.00    +0.091 C 
ATOM     11  C   UNL     1      34.275 -18.775 -24.036  0.00  0.00    +0.168 C 
ATOM     12  C   UNL     1      34.149 -16.645 -24.000  0.00  0.00    +0.172 C 
ATOM     13  C   UNL     1      34.806 -16.103 -21.709  0.00  0.00    +0.045 C 
ATOM     14  C   UNL     1      33.979 -15.289 -24.279  0.00  0.00    +0.140 C 
ATOM     15  C   UNL     1      34.608 -14.782 -22.087  0.00  0.00    +0.110 C 
ATOM     16  C   UNL     1      33.544 -14.778 -25.610  0.00  0.00    +0.069 C 
ATOM     17  C   UNL     1      34.845 -13.708 -21.075  0.00  0.00    +0.066 C 
BRANCH  11  18
ATOM     18  C   UNL     1      34.240 -20.193 -24.452  0.00  0.00    +0.075 C 
ATOM     19  C   UNL     1      35.633 -20.831 -24.493  0.00  0.00    +0.009 C 
ENDBRANCH  11  18
ENDBRANCH   1   7
BRANCH   2  20
ATOM     20  C   UNL     1      36.136 -21.805 -18.517  0.00  0.00    +0.048 C 
BRANCH  20  21
ATOM     21  C   UNL     1      35.037 -22.791 -18.105  0.00  0.00    +0.096 C 
BRANCH  21  23
ATOM     22  O   UNL     1      33.127 -24.381 -16.665  0.00  0.00    -0.251 OA
ATOM     23  N   UNL     1      34.781 -22.765 -16.690  0.00  0.00    -0.287 N 
ATOM     24  N   UNL     1      33.762 -23.358 -14.662  0.00  0.00    -0.169 N 
ATOM     25  C   UNL     1      33.836 -23.570 -16.076  0.00  0.00    +0.319 C 
ATOM     26  H   UNL     1      35.301 -22.144 -16.132  0.00  0.00    +0.151 HD
ATOM     27  H   UNL     1      34.366 -22.684 -14.275  0.00  0.00    +0.178 HD
BRANCH  24  28
ATOM     28  S   UNL     1      32.710 -24.178 -13.593  0.00  0.00    +0.077 S 
ATOM     29  O   UNL     1      33.021 -25.594 -13.604  0.00  0.00    -0.150 OA
ATOM     30  O   UNL     1      32.639 -23.450 -12.340  0.00  0.00    -0.150 OA
BRANCH  28  31
ATOM     31  C   UNL     1      31.157 -23.949 -14.405  0.00  0.00    +0.125 C 
ATOM     32  C   UNL     1      30.717 -22.664 -14.674  0.00  0.00    +0.020 C 
ATOM     33  C   UNL     1      30.409 -25.058 -14.758  0.00  0.00    +0.020 C 
ATOM     34  C   UNL     1      28.724 -23.591 -15.677  0.00  0.00    -0.022 C 
ATOM     35  C   UNL     1      29.491 -22.484 -15.315  0.00  0.00    -0.003 C 
ATOM     36  C   UNL     1      29.183 -24.878 -15.399  0.00  0.00    -0.003 C 
ATOM     37  C   UNL     1      27.415 -23.398 -16.364  0.00  0.00    +0.031 C 
ENDBRANCH  28  31
ENDBRANCH  24  28
ENDBRANCH  21  23
ENDBRANCH  20  21
ENDBRANCH   2  20
TORSDOF 7
ENDMDL
MODEL 9
REMARK VINA RESULT:     -10.9      2.747      3.996
REMARK  Name = 11677589
REMARK  7 active torsions:
REMARK  status: ('A' for Active; 'I' for Inactive)
REMARK    1  A    between atoms: C_1  and  N_7
REMARK    2  A    between atoms: C_2  and  C_20
REMARK    3  A    between atoms: C_11  and  C_18
REMARK    4  A    between atoms: C_20  and  C_21
REMARK    5  A    between atoms: C_21  and  N_23
REMARK    6  A    between atoms: N_24  and  S_28
REMARK    7  A    between atoms: S_28  and  C_31
REMARK                            x       y       z     vdW  Elec       q    Type
REMARK                         _______ _______ _______ _____ _____    ______ ____
ROOT
ATOM      1  C   UNL     1      32.285  -6.489 -22.439  0.00  0.00    +0.058 C 
ATOM      2  C   UNL     1      31.904  -8.771 -20.903  0.00  0.00    -0.020 C 
ATOM      3  C   UNL     1      33.034  -6.670 -21.284  0.00  0.00    +0.015 C 
ATOM      4  C   UNL     1      31.348  -7.434 -22.838  0.00  0.00    +0.015 C 
ATOM      5  C   UNL     1      32.842  -7.816 -20.512  0.00  0.00    -0.003 C 
ATOM      6  C   UNL     1      31.156  -8.580 -22.066  0.00  0.00    -0.003 C 
ENDROOT
BRANCH   1   7
ATOM      7  N   UNL     1      32.476  -5.343 -23.212  0.00  0.00    -0.242 N 
ATOM      8  N   UNL     1      32.331  -3.220 -23.858  0.00  0.00    -0.387 NA
ATOM      9  N   UNL     1      34.421  -4.414 -26.675  0.00  0.00    -0.408 NA
ATOM     10  C   UNL     1      33.193  -5.265 -24.377  0.00  0.00    +0.091 C 
ATOM     11  C   UNL     1      31.981  -4.096 -22.943  0.00  0.00    +0.168 C 
ATOM     12  C   UNL     1      33.086  -3.932 -24.760  0.00  0.00    +0.172 C 
ATOM     13  C   UNL     1      33.900  -6.210 -25.108  0.00  0.00    +0.045 C 
ATOM     14  C   UNL     1      33.720  -3.520 -25.933  0.00  0.00    +0.140 C 
ATOM     15  C   UNL     1      34.492  -5.702 -26.255  0.00  0.00    +0.110 C 
ATOM     16  C   UNL     1      33.673  -2.118 -26.437  0.00  0.00    +0.069 C 
ATOM     17  C   UNL     1      35.280  -6.629 -27.121  0.00  0.00    +0.066 C 
BRANCH  11  18
ATOM     18  C   UNL     1      31.153  -3.807 -21.752  0.00  0.00    +0.075 C 
ATOM     19  C   UNL     1      30.580  -2.386 -21.763  0.00  0.00    +0.009 C 
ENDBRANCH  11  18
ENDBRANCH   1   7
BRANCH   2  20
ATOM     20  C   UNL     1      31.698  -9.996 -20.078  0.00  0.00    +0.048 C 
BRANCH  20  21
ATOM     21  C   UNL     1      30.671 -10.969 -20.670  0.00  0.00    +0.096 C 
BRANCH  21  23
ATOM     22  O   UNL     1      32.415 -11.392 -22.913  0.00  0.00    -0.251 OA
ATOM     23  N   UNL     1      31.268 -12.212 -21.079  0.00  0.00    -0.287 N 
ATOM     24  N   UNL     1      32.566 -13.664 -22.387  0.00  0.00    -0.169 N 
ATOM     25  C   UNL     1      32.101 -12.326 -22.180  0.00  0.00    +0.319 C 
ATOM     26  H   UNL     1      31.074 -13.020 -20.552  0.00  0.00    +0.151 HD
ATOM     27  H   UNL     1      32.260 -14.351 -21.752  0.00  0.00    +0.178 HD
BRANCH  24  28
ATOM     28  S   UNL     1      33.606 -14.166 -23.647  0.00  0.00    +0.077 S 
ATOM     29  O   UNL     1      32.813 -14.586 -24.786  0.00  0.00    -0.150 OA
ATOM     30  O   UNL     1      34.667 -13.190 -23.809  0.00  0.00    -0.150 OA
BRANCH  28  31
ATOM     31  C   UNL     1      34.340 -15.603 -22.927  0.00  0.00    +0.125 C 
ATOM     32  C   UNL     1      34.650 -16.682 -23.737  0.00  0.00    +0.020 C 
ATOM     33  C   UNL     1      34.590 -15.625 -21.566  0.00  0.00    +0.020 C 
ATOM     34  C   UNL     1      35.489 -17.855 -21.798  0.00  0.00    -0.022 C 
ATOM     35  C   UNL     1      35.230 -17.817 -23.168  0.00  0.00    -0.003 C 
ATOM     36  C   UNL     1      35.170 -16.759 -20.997  0.00  0.00    -0.003 C 
ATOM     37  C   UNL     1      36.110 -19.067 -21.191  0.00  0.00    +0.031 C 
ENDBRANCH  28  31
ENDBRANCH  24  28
ENDBRANCH  21  23
ENDBRANCH  20  21
ENDBRANCH   2  20
TORSDOF 7
ENDMDL
