MODEL 1
REMARK VINA RESULT:     -12.6      0.000      0.000
REMARK  Name = 5326868
REMARK  6 active torsions:
REMARK  status: ('A' for Active; 'I' for Inactive)
REMARK    1  A    between atoms: C_2  and  C_28
REMARK    2  A    between atoms: C_7  and  N_12
REMARK    3  A    between atoms: C_13  and  C_18
REMARK    4  A    between atoms: C_16  and  N_23
REMARK    5  A    between atoms: C_28  and  C_29
REMARK    6  A    between atoms: C_29  and  C_31
REMARK                            x       y       z     vdW  Elec       q    Type
REMARK                         _______ _______ _______ _____ _____    ______ ____
ROOT
ATOM      1  N   UNL     1      34.581 -17.412 -24.906  0.00  0.00    -0.312 N 
ATOM      2  C   UNL     1      35.010 -17.360 -22.728  0.00  0.00    -0.006 C 
ATOM      3  C   UNL     1      34.399 -16.127 -23.091  0.00  0.00    +0.012 C 
ATOM      4  C   UNL     1      34.141 -16.185 -24.462  0.00  0.00    +0.048 C 
ATOM      5  C   UNL     1      35.108 -18.129 -23.865  0.00  0.00    +0.058 C 
ATOM      6  C   UNL     1      34.042 -14.962 -22.382  0.00  0.00    +0.016 C 
ATOM      7  C   UNL     1      33.439 -13.903 -23.070  0.00  0.00    +0.051 C 
ATOM      8  C   UNL     1      33.539 -15.133 -25.163  0.00  0.00    +0.016 C 
ATOM      9  C   UNL     1      33.192 -13.989 -24.439  0.00  0.00    +0.016 C 
ATOM     10  H   UNL     1      34.525 -17.727 -25.836  0.00  0.00    +0.152 HD
ENDROOT
BRANCH   7  12
ATOM     11  O   UNL     1      31.627 -13.542 -20.709  0.00  0.00    -0.270 OA
ATOM     12  N   UNL     1      33.082 -12.745 -22.375  0.00  0.00    -0.280 N 
ATOM     13  C   UNL     1      32.226 -12.632 -21.273  0.00  0.00    +0.250 C 
ATOM     14  H   UNL     1      33.481 -11.906 -22.701  0.00  0.00    +0.155 HD
BRANCH  13  18
ATOM     15  F   UNL     1      31.662  -9.524 -17.611  0.00  0.00    -0.204 F 
ATOM     16  C   UNL     1      31.728  -8.919 -21.198  0.00  0.00    +0.050 C 
ATOM     17  C   UNL     1      31.921 -10.216 -21.675  0.00  0.00    +0.019 C 
ATOM     18  C   UNL     1      32.020 -11.249 -20.767  0.00  0.00    +0.057 C 
ATOM     19  C   UNL     1      31.641  -8.685 -19.826  0.00  0.00    +0.044 C 
ATOM     20  C   UNL     1      31.937 -11.045 -19.405  0.00  0.00    +0.034 C 
ATOM     21  C   UNL     1      31.745  -9.749 -18.929  0.00  0.00    +0.142 C 
BRANCH  16  23
ATOM     22  O   UNL     1      31.145  -5.761 -23.914  0.00  0.00    -0.350 OA
ATOM     23  N   UNL     1      31.625  -7.852 -22.097  0.00  0.00    -0.303 N 
ATOM     24  C   UNL     1      31.257  -6.518 -21.610  0.00  0.00    +0.123 C 
ATOM     25  C   UNL     1      31.222  -8.146 -23.479  0.00  0.00    +0.123 C 
ATOM     26  C   UNL     1      31.684  -5.463 -22.626  0.00  0.00    +0.164 C 
ATOM     27  C   UNL     1      31.652  -7.006 -24.395  0.00  0.00    +0.164 C 
ENDBRANCH  16  23
ENDBRANCH  13  18
ENDBRANCH   7  12
BRANCH   2  28
ATOM     28  C   UNL     1      35.460 -17.753 -21.378  0.00  0.00    +0.032 C 
BRANCH  28  29
ATOM     29  C   UNL     1      36.127 -19.145 -21.305  0.00  0.00    +0.031 C 
BRANCH  29  31
ATOM     30  N   UNL     1      33.827 -22.009 -19.097  0.00  0.00    -0.242 NA
ATOM     31  C   UNL     1      35.317 -20.153 -20.528  0.00  0.00    -0.019 C 
ATOM     32  C   UNL     1      35.965 -21.071 -19.726  0.00  0.00    +0.016 C 
ATOM     33  C   UNL     1      33.940 -20.143 -20.631  0.00  0.00    +0.016 C 
ATOM     34  C   UNL     1      35.177 -21.976 -19.032  0.00  0.00    +0.099 C 
ATOM     35  C   UNL     1      33.242 -21.089 -19.897  0.00  0.00    +0.099 C 
ENDBRANCH  29  31
ENDBRANCH  28  29
ENDBRANCH   2  28
TORSDOF 6
ENDMDL
MODEL 2
REMARK VINA RESULT:     -12.4      4.661     11.668
REMARK  Name = 5326868
REMARK  6 active torsions:
REMARK  status: ('A' for Active; 'I' for Inactive)
REMARK    1  A    between atoms: C_2  and  C_28
REMARK    2  A    between atoms: C_7  and  N_12
REMARK    3  A    between atoms: C_13  and  C_18
REMARK    4  A    between atoms: C_16  and  N_23
REMARK    5  A    between atoms: C_28  and  C_29
REMARK    6  A    between atoms: C_29  and  C_31
REMARK                            x       y       z     vdW  Elec       q    Type
REMARK                         _______ _______ _______ _____ _____    ______ ____
ROOT
ATOM      1  N   UNL     1      34.941 -16.962 -24.312  0.00  0.00    -0.312 N 
ATOM      2  C   UNL     1      34.879 -16.001 -22.311  0.00  0.00    -0.006 C 
ATOM      3  C   UNL     1      34.866 -17.412 -22.128  0.00  0.00    +0.012 C 
ATOM      4  C   UNL     1      34.905 -17.991 -23.398  0.00  0.00    +0.048 C 
ATOM      5  C   UNL     1      34.925 -15.755 -23.664  0.00  0.00    +0.058 C 
ATOM      6  C   UNL     1      34.823 -18.256 -21.000  0.00  0.00    +0.016 C 
ATOM      7  C   UNL     1      34.823 -19.642 -21.184  0.00  0.00    +0.051 C 
ATOM      8  C   UNL     1      34.905 -19.377 -23.598  0.00  0.00    +0.016 C 
ATOM      9  C   UNL     1      34.864 -20.193 -22.463  0.00  0.00    +0.016 C 
ATOM     10  H   UNL     1      34.972 -17.077 -25.289  0.00  0.00    +0.152 HD
ENDROOT
BRANCH   7  12
ATOM     11  O   UNL     1      32.585 -21.327 -20.113  0.00  0.00    -0.270 OA
ATOM     12  N   UNL     1      34.781 -20.485 -20.070  0.00  0.00    -0.280 N 
ATOM     13  C   UNL     1      33.703 -21.253 -19.612  0.00  0.00    +0.250 C 
ATOM     14  H   UNL     1      35.609 -20.546 -19.543  0.00  0.00    +0.155 HD
BRANCH  13  18
ATOM     15  F   UNL     1      36.759 -23.146 -16.379  0.00  0.00    -0.204 F 
ATOM     16  C   UNL     1      33.125 -23.271 -16.509  0.00  0.00    +0.050 C 
ATOM     17  C   UNL     1      32.884 -22.540 -17.673  0.00  0.00    +0.019 C 
ATOM     18  C   UNL     1      33.958 -22.033 -18.373  0.00  0.00    +0.057 C 
ATOM     19  C   UNL     1      34.434 -23.475 -16.072  0.00  0.00    +0.044 C 
ATOM     20  C   UNL     1      35.262 -22.220 -17.962  0.00  0.00    +0.034 C 
ATOM     21  C   UNL     1      35.503 -22.950 -16.799  0.00  0.00    +0.142 C 
BRANCH  16  23
ATOM     22  O   UNL     1      29.914 -24.624 -14.155  0.00  0.00    -0.350 OA
ATOM     23  N   UNL     1      32.054 -23.797 -15.778  0.00  0.00    -0.303 N 
ATOM     24  C   UNL     1      30.681 -23.394 -16.101  0.00  0.00    +0.123 C 
ATOM     25  C   UNL     1      32.285 -24.162 -14.374  0.00  0.00    +0.123 C 
ATOM     26  C   UNL     1      29.700 -24.424 -15.551  0.00  0.00    +0.164 C 
ATOM     27  C   UNL     1      31.220 -25.152 -13.918  0.00  0.00    +0.164 C 
ENDBRANCH  16  23
ENDBRANCH  13  18
ENDBRANCH   7  12
BRANCH   2  28
ATOM     28  C   UNL     1      34.848 -14.977 -21.248  0.00  0.00    +0.032 C 
BRANCH  28  29
ATOM     29  C   UNL     1      33.449 -14.716 -20.650  0.00  0.00    +0.031 C 
BRANCH  29  31
ATOM     30  N   UNL     1      31.712 -11.021 -21.955  0.00  0.00    -0.242 NA
ATOM     31  C   UNL     1      32.837 -13.416 -21.109  0.00  0.00    -0.019 C 
ATOM     32  C   UNL     1      32.033 -12.700 -20.244  0.00  0.00    +0.016 C 
ATOM     33  C   UNL     1      33.091 -12.960 -22.388  0.00  0.00    +0.016 C 
ATOM     34  C   UNL     1      31.496 -11.512 -20.714  0.00  0.00    +0.099 C 
ATOM     35  C   UNL     1      32.506 -11.760 -22.763  0.00  0.00    +0.099 C 
ENDBRANCH  29  31
ENDBRANCH  28  29
ENDBRANCH   2  28
TORSDOF 6
ENDMDL
MODEL 3
REMARK VINA RESULT:     -11.9      4.925      9.302
REMARK  Name = 5326868
REMARK  6 active torsions:
REMARK  status: ('A' for Active; 'I' for Inactive)
REMARK    1  A    between atoms: C_2  and  C_28
REMARK    2  A    between atoms: C_7  and  N_12
REMARK    3  A    between atoms: C_13  and  C_18
REMARK    4  A    between atoms: C_16  and  N_23
REMARK    5  A    between atoms: C_28  and  C_29
REMARK    6  A    between atoms: C_29  and  C_31
REMARK                            x       y       z     vdW  Elec       q    Type
REMARK                         _______ _______ _______ _____ _____    ______ ____
ROOT
ATOM      1  N   UNL     1      36.034 -23.473 -15.279  0.00  0.00    -0.312 N 
ATOM      2  C   UNL     1      33.964 -23.611 -16.071  0.00  0.00    -0.006 C 
ATOM      3  C   UNL     1      34.740 -22.847 -16.986  0.00  0.00    +0.012 C 
ATOM      4  C   UNL     1      36.034 -22.774 -16.466  0.00  0.00    +0.048 C 
ATOM      5  C   UNL     1      34.787 -23.982 -15.032  0.00  0.00    +0.058 C 
ATOM      6  C   UNL     1      34.465 -22.205 -18.211  0.00  0.00    +0.016 C 
ATOM      7  C   UNL     1      35.492 -21.519 -18.868  0.00  0.00    +0.051 C 
ATOM      8  C   UNL     1      37.071 -22.091 -17.112  0.00  0.00    +0.016 C 
ATOM      9  C   UNL     1      36.775 -21.464 -18.326  0.00  0.00    +0.016 C 
ATOM     10  H   UNL     1      36.816 -23.589 -14.694  0.00  0.00    +0.152 HD
ENDROOT
BRANCH   7  12
ATOM     11  O   UNL     1      36.766 -19.103 -20.104  0.00  0.00    -0.270 OA
ATOM     12  N   UNL     1      35.227 -20.881 -20.082  0.00  0.00    -0.280 N 
ATOM     13  C   UNL     1      35.856 -19.748 -20.614  0.00  0.00    +0.250 C 
ATOM     14  H   UNL     1      34.511 -21.275 -20.629  0.00  0.00    +0.155 HD
BRANCH  13  18
ATOM     15  F   UNL     1      34.424 -20.661 -25.142  0.00  0.00    -0.204 F 
ATOM     16  C   UNL     1      34.562 -17.511 -23.326  0.00  0.00    +0.050 C 
ATOM     17  C   UNL     1      35.057 -17.944 -22.096  0.00  0.00    +0.019 C 
ATOM     18  C   UNL     1      35.329 -19.285 -21.925  0.00  0.00    +0.057 C 
ATOM     19  C   UNL     1      34.348 -18.428 -24.355  0.00  0.00    +0.044 C 
ATOM     20  C   UNL     1      35.126 -20.213 -22.925  0.00  0.00    +0.034 C 
ATOM     21  C   UNL     1      34.631 -19.780 -24.154  0.00  0.00    +0.142 C 
BRANCH  16  23
ATOM     22  O   UNL     1      33.975 -13.400 -23.991  0.00  0.00    -0.350 OA
ATOM     23  N   UNL     1      34.277 -16.156 -23.528  0.00  0.00    -0.303 N 
ATOM     24  C   UNL     1      34.017 -15.657 -24.883  0.00  0.00    +0.123 C 
ATOM     25  C   UNL     1      34.869 -15.178 -22.604  0.00  0.00    +0.123 C 
ATOM     26  C   UNL     1      33.267 -14.331 -24.808  0.00  0.00    +0.164 C 
ATOM     27  C   UNL     1      34.071 -13.880 -22.649  0.00  0.00    +0.164 C 
ENDBRANCH  16  23
ENDBRANCH  13  18
ENDBRANCH   7  12
BRANCH   2  28
ATOM     28  C   UNL     1      32.533 -23.951 -16.202  0.00  0.00    +0.032 C 
BRANCH  28  29
ATOM     29  C   UNL     1      31.669 -23.573 -14.979  0.00  0.00    +0.031 C 
BRANCH  29  31
ATOM     30  N   UNL     1      27.462 -23.641 -15.793  0.00  0.00    -0.242 NA
ATOM     31  C   UNL     1      30.188 -23.596 -15.266  0.00  0.00    -0.019 C 
ATOM     32  C   UNL     1      29.628 -24.714 -15.853  0.00  0.00    +0.016 C 
ATOM     33  C   UNL     1      29.414 -22.500 -14.937  0.00  0.00    +0.016 C 
ATOM     34  C   UNL     1      28.264 -24.686 -16.095  0.00  0.00    +0.099 C 
ATOM     35  C   UNL     1      28.059 -22.571 -15.220  0.00  0.00    +0.099 C 
ENDBRANCH  29  31
ENDBRANCH  28  29
ENDBRANCH   2  28
TORSDOF 6
ENDMDL
MODEL 4
REMARK VINA RESULT:     -11.8      4.777     11.921
REMARK  Name = 5326868
REMARK  6 active torsions:
REMARK  status: ('A' for Active; 'I' for Inactive)
REMARK    1  A    between atoms: C_2  and  C_28
REMARK    2  A    between atoms: C_7  and  N_12
REMARK    3  A    between atoms: C_13  and  C_18
REMARK    4  A    between atoms: C_16  and  N_23
REMARK    5  A    between atoms: C_28  and  C_29
REMARK    6  A    between atoms: C_29  and  C_31
REMARK                            x       y       z     vdW  Elec       q    Type
REMARK                         _______ _______ _______ _____ _____    ______ ____
ROOT
ATOM      1  N   UNL     1      34.999 -16.935 -24.402  0.00  0.00    -0.312 N 
ATOM      2  C   UNL     1      34.876 -15.955 -22.414  0.00  0.00    -0.006 C 
ATOM      3  C   UNL     1      34.775 -17.362 -22.224  0.00  0.00    +0.012 C 
ATOM      4  C   UNL     1      34.854 -17.953 -23.487  0.00  0.00    +0.048 C 
ATOM      5  C   UNL     1      35.013 -15.724 -23.763  0.00  0.00    +0.058 C 
ATOM      6  C   UNL     1      34.620 -18.192 -21.095  0.00  0.00    +0.016 C 
ATOM      7  C   UNL     1      34.553 -19.578 -21.272  0.00  0.00    +0.051 C 
ATOM      8  C   UNL     1      34.788 -19.338 -23.678  0.00  0.00    +0.016 C 
ATOM      9  C   UNL     1      34.636 -20.141 -22.544  0.00  0.00    +0.016 C 
ATOM     10  H   UNL     1      35.081 -17.060 -25.375  0.00  0.00    +0.152 HD
ENDROOT
BRANCH   7  12
ATOM     11  O   UNL     1      36.542 -21.338 -19.879  0.00  0.00    -0.270 OA
ATOM     12  N   UNL     1      34.400 -20.407 -20.158  0.00  0.00    -0.280 N 
ATOM     13  C   UNL     1      35.368 -21.213 -19.545  0.00  0.00    +0.250 C 
ATOM     14  H   UNL     1      33.503 -20.429 -19.756  0.00  0.00    +0.155 HD
BRANCH  13  18
ATOM     15  F   UNL     1      31.811 -23.423 -17.128  0.00  0.00    -0.204 F 
ATOM     16  C   UNL     1      35.351 -23.145 -16.335  0.00  0.00    +0.050 C 
ATOM     17  C   UNL     1      35.800 -22.396 -17.423  0.00  0.00    +0.019 C 
ATOM     18  C   UNL     1      34.890 -22.010 -18.385  0.00  0.00    +0.057 C 
ATOM     19  C   UNL     1      34.003 -23.492 -16.236  0.00  0.00    +0.044 C 
ATOM     20  C   UNL     1      33.553 -22.340 -18.311  0.00  0.00    +0.034 C 
ATOM     21  C   UNL     1      33.104 -23.089 -17.224  0.00  0.00    +0.142 C 
BRANCH  16  23
ATOM     22  O   UNL     1      38.117 -24.095 -13.314  0.00  0.00    -0.350 OA
ATOM     23  N   UNL     1      36.252 -23.550 -15.345  0.00  0.00    -0.303 N 
ATOM     24  C   UNL     1      35.828 -23.588 -13.941  0.00  0.00    +0.123 C 
ATOM     25  C   UNL     1      37.682 -23.289 -15.560  0.00  0.00    +0.123 C 
ATOM     26  C   UNL     1      36.758 -24.498 -13.146  0.00  0.00    +0.164 C 
ATOM     27  C   UNL     1      38.512 -24.217 -14.681  0.00  0.00    +0.164 C 
ENDBRANCH  16  23
ENDBRANCH  13  18
ENDBRANCH   7  12
BRANCH   2  28
ATOM     28  C   UNL     1      34.842 -14.921 -21.360  0.00  0.00    +0.032 C 
BRANCH  28  29
ATOM     29  C   UNL     1      33.427 -14.580 -20.843  0.00  0.00    +0.031 C 
BRANCH  29  31
ATOM     30  N   UNL     1      31.802 -11.019 -22.589  0.00  0.00    -0.242 NA
ATOM     31  C   UNL     1      32.855 -13.327 -21.457  0.00  0.00    -0.019 C 
ATOM     32  C   UNL     1      33.405 -12.829 -22.622  0.00  0.00    +0.016 C 
ATOM     33  C   UNL     1      31.789 -12.695 -20.846  0.00  0.00    +0.016 C 
ATOM     34  C   UNL     1      32.844 -11.676 -23.147  0.00  0.00    +0.099 C 
ATOM     35  C   UNL     1      31.300 -11.547 -21.450  0.00  0.00    +0.099 C 
ENDBRANCH  29  31
ENDBRANCH  28  29
ENDBRANCH   2  28
TORSDOF 6
ENDMDL
MODEL 5
REMARK VINA RESULT:     -11.7      2.962      5.516
REMARK  Name = 5326868
REMARK  6 active torsions:
REMARK  status: ('A' for Active; 'I' for Inactive)
REMARK    1  A    between atoms: C_2  and  C_28
REMARK    2  A    between atoms: C_7  and  N_12
REMARK    3  A    between atoms: C_13  and  C_18
REMARK    4  A    between atoms: C_16  and  N_23
REMARK    5  A    between atoms: C_28  and  C_29
REMARK    6  A    between atoms: C_29  and  C_31
REMARK                            x       y       z     vdW  Elec       q    Type
REMARK                         _______ _______ _______ _____ _____    ______ ____
ROOT
ATOM      1  N   UNL     1      37.018 -21.569 -19.549  0.00  0.00    -0.312 N 
ATOM      2  C   UNL     1      34.808 -21.361 -19.485  0.00  0.00    -0.006 C 
ATOM      3  C   UNL     1      35.338 -20.264 -20.220  0.00  0.00    +0.012 C 
ATOM      4  C   UNL     1      36.726 -20.418 -20.245  0.00  0.00    +0.048 C 
ATOM      5  C   UNL     1      35.866 -22.146 -19.085  0.00  0.00    +0.058 C 
ATOM      6  C   UNL     1      34.768 -19.149 -20.868  0.00  0.00    +0.016 C 
ATOM      7  C   UNL     1      35.605 -18.235 -21.516  0.00  0.00    +0.051 C 
ATOM      8  C   UNL     1      37.575 -19.511 -20.889  0.00  0.00    +0.016 C 
ATOM      9  C   UNL     1      36.987 -18.414 -21.526  0.00  0.00    +0.016 C 
ATOM     10  H   UNL     1      37.924 -21.926 -19.405  0.00  0.00    +0.152 HD
ENDROOT
BRANCH   7  12
ATOM     11  O   UNL     1      34.738 -15.585 -20.411  0.00  0.00    -0.270 OA
ATOM     12  N   UNL     1      35.048 -17.127 -22.160  0.00  0.00    -0.280 N 
ATOM     13  C   UNL     1      34.659 -15.907 -21.593  0.00  0.00    +0.250 C 
ATOM     14  H   UNL     1      34.912 -17.216 -23.130  0.00  0.00    +0.155 HD
BRANCH  13  18
ATOM     15  F   UNL     1      33.373 -14.620 -26.073  0.00  0.00    -0.204 F 
ATOM     16  C   UNL     1      33.042 -12.806 -22.936  0.00  0.00    +0.050 C 
ATOM     17  C   UNL     1      33.598 -13.726 -22.047  0.00  0.00    +0.019 C 
ATOM     18  C   UNL     1      34.067 -14.926 -22.539  0.00  0.00    +0.057 C 
ATOM     19  C   UNL     1      32.965 -13.108 -24.296  0.00  0.00    +0.044 C 
ATOM     20  C   UNL     1      34.003 -15.249 -23.878  0.00  0.00    +0.034 C 
ATOM     21  C   UNL     1      33.447 -14.330 -24.767  0.00  0.00    +0.142 C 
BRANCH  16  23
ATOM     22  O   UNL     1      31.408  -9.125 -21.727  0.00  0.00    -0.350 OA
ATOM     23  N   UNL     1      32.558 -11.581 -22.464  0.00  0.00    -0.303 N 
ATOM     24  C   UNL     1      31.382 -11.548 -21.588  0.00  0.00    +0.123 C 
ATOM     25  C   UNL     1      32.746 -10.391 -23.305  0.00  0.00    +0.123 C 
ATOM     26  C   UNL     1      31.346 -10.228 -20.824  0.00  0.00    +0.164 C 
ATOM     27  C   UNL     1      32.640  -9.134 -22.449  0.00  0.00    +0.164 C 
ENDBRANCH  16  23
ENDBRANCH  13  18
ENDBRANCH   7  12
BRANCH   2  28
ATOM     28  C   UNL     1      33.384 -21.620 -19.196  0.00  0.00    +0.032 C 
BRANCH  28  29
ATOM     29  C   UNL     1      33.079 -23.053 -18.706  0.00  0.00    +0.031 C 
BRANCH  29  31
ATOM     30  N   UNL     1      32.539 -23.309 -14.462  0.00  0.00    -0.242 NA
ATOM     31  C   UNL     1      32.889 -23.143 -17.212  0.00  0.00    -0.019 C 
ATOM     32  C   UNL     1      31.619 -23.034 -16.681  0.00  0.00    +0.016 C 
ATOM     33  C   UNL     1      33.988 -23.332 -16.397  0.00  0.00    +0.016 C 
ATOM     34  C   UNL     1      31.497 -23.124 -15.304  0.00  0.00    +0.099 C 
ATOM     35  C   UNL     1      33.761 -23.409 -15.032  0.00  0.00    +0.099 C 
ENDBRANCH  29  31
ENDBRANCH  28  29
ENDBRANCH   2  28
TORSDOF 6
ENDMDL
MODEL 6
REMARK VINA RESULT:     -10.8      3.470     11.492
REMARK  Name = 5326868
REMARK  6 active torsions:
REMARK  status: ('A' for Active; 'I' for Inactive)
REMARK    1  A    between atoms: C_2  and  C_28
REMARK    2  A    between atoms: C_7  and  N_12
REMARK    3  A    between atoms: C_13  and  C_18
REMARK    4  A    between atoms: C_16  and  N_23
REMARK    5  A    between atoms: C_28  and  C_29
REMARK    6  A    between atoms: C_29  and  C_31
REMARK                            x       y       z     vdW  Elec       q    Type
REMARK                         _______ _______ _______ _____ _____    ______ ____
ROOT
ATOM      1  N   UNL     1      31.449  -8.620 -21.458  0.00  0.00    -0.312 N 
ATOM      2  C   UNL     1      33.153  -8.770 -22.873  0.00  0.00    -0.006 C 
ATOM      3  C   UNL     1      32.814 -10.084 -22.442  0.00  0.00    +0.012 C 
ATOM      4  C   UNL     1      31.743  -9.961 -21.554  0.00  0.00    +0.048 C 
ATOM      5  C   UNL     1      32.296  -7.892 -22.250  0.00  0.00    +0.058 C 
ATOM      6  C   UNL     1      33.320 -11.369 -22.721  0.00  0.00    +0.016 C 
ATOM      7  C   UNL     1      32.735 -12.481 -22.105  0.00  0.00    +0.051 C 
ATOM      8  C   UNL     1      31.148 -11.064 -20.931  0.00  0.00    +0.016 C 
ATOM      9  C   UNL     1      31.666 -12.329 -21.224  0.00  0.00    +0.016 C 
ATOM     10  H   UNL     1      30.733  -8.239 -20.899  0.00  0.00    +0.152 HD
ENDROOT
BRANCH   7  12
ATOM     11  O   UNL     1      34.679 -14.171 -20.571  0.00  0.00    -0.270 OA
ATOM     12  N   UNL     1      33.230 -13.759 -22.377  0.00  0.00    -0.280 N 
ATOM     13  C   UNL     1      34.142 -14.506 -21.622  0.00  0.00    +0.250 C 
ATOM     14  H   UNL     1      32.898 -14.185 -23.199  0.00  0.00    +0.155 HD
BRANCH  13  18
ATOM     15  F   UNL     1      34.700 -17.460 -25.410  0.00  0.00    -0.204 F 
ATOM     16  C   UNL     1      35.236 -18.082 -21.865  0.00  0.00    +0.050 C 
ATOM     17  C   UNL     1      34.899 -16.838 -21.332  0.00  0.00    +0.019 C 
ATOM     18  C   UNL     1      34.501 -15.833 -22.189  0.00  0.00    +0.057 C 
ATOM     19  C   UNL     1      35.169 -18.292 -23.242  0.00  0.00    +0.044 C 
ATOM     20  C   UNL     1      34.426 -16.015 -23.554  0.00  0.00    +0.034 C 
ATOM     21  C   UNL     1      34.763 -17.258 -24.087  0.00  0.00    +0.142 C 
BRANCH  16  23
ATOM     22  O   UNL     1      36.504 -21.353 -19.547  0.00  0.00    -0.350 OA
ATOM     23  N   UNL     1      35.644 -19.118 -21.019  0.00  0.00    -0.303 N 
ATOM     24  C   UNL     1      37.071 -19.319 -20.742  0.00  0.00    +0.123 C 
ATOM     25  C   UNL     1      34.820 -20.334 -20.964  0.00  0.00    +0.123 C 
ATOM     26  C   UNL     1      37.238 -20.133 -19.463  0.00  0.00    +0.164 C 
ATOM     27  C   UNL     1      35.105 -21.091 -19.673  0.00  0.00    +0.164 C 
ENDBRANCH  16  23
ENDBRANCH  13  18
ENDBRANCH   7  12
BRANCH   2  28
ATOM     28  C   UNL     1      34.228  -8.405 -23.817  0.00  0.00    +0.032 C 
BRANCH  28  29
ATOM     29  C   UNL     1      34.949  -7.079 -23.485  0.00  0.00    +0.031 C 
BRANCH  29  31
ATOM     30  N   UNL     1      34.090  -3.942 -26.276  0.00  0.00    -0.242 NA
ATOM     31  C   UNL     1      34.646  -5.975 -24.468  0.00  0.00    -0.019 C 
ATOM     32  C   UNL     1      33.500  -5.222 -24.311  0.00  0.00    +0.016 C 
ATOM     33  C   UNL     1      35.520  -5.734 -25.510  0.00  0.00    +0.016 C 
ATOM     34  C   UNL     1      33.268  -4.219 -25.239  0.00  0.00    +0.099 C 
ATOM     35  C   UNL     1      35.198  -4.709 -26.385  0.00  0.00    +0.099 C 
ENDBRANCH  29  31
ENDBRANCH  28  29
ENDBRANCH   2  28
TORSDOF 6
ENDMDL
MODEL 7
REMARK VINA RESULT:     -10.5      3.077      6.043
REMARK  Name = 5326868
REMARK  6 active torsions:
REMARK  status: ('A' for Active; 'I' for Inactive)
REMARK    1  A    between atoms: C_2  and  C_28
REMARK    2  A    between atoms: C_7  and  N_12
REMARK    3  A    between atoms: C_13  and  C_18
REMARK    4  A    between atoms: C_16  and  N_23
REMARK    5  A    between atoms: C_28  and  C_29
REMARK    6  A    between atoms: C_29  and  C_31
REMARK                            x       y       z     vdW  Elec       q    Type
REMARK                         _______ _______ _______ _____ _____    ______ ____
ROOT
ATOM      1  N   UNL     1      32.059 -13.193 -19.655  0.00  0.00    -0.312 N 
ATOM      2  C   UNL     1      32.377 -12.994 -21.844  0.00  0.00    -0.006 C 
ATOM      3  C   UNL     1      32.163 -11.695 -21.305  0.00  0.00    +0.012 C 
ATOM      4  C   UNL     1      31.965 -11.848 -19.931  0.00  0.00    +0.048 C 
ATOM      5  C   UNL     1      32.308 -13.894 -20.805  0.00  0.00    +0.058 C 
ATOM      6  C   UNL     1      32.115 -10.399 -21.857  0.00  0.00    +0.016 C 
ATOM      7  C   UNL     1      31.875  -9.307 -21.016  0.00  0.00    +0.051 C 
ATOM      8  C   UNL     1      31.723 -10.765 -19.078  0.00  0.00    +0.016 C 
ATOM      9  C   UNL     1      31.683  -9.489 -19.648  0.00  0.00    +0.016 C 
ATOM     10  H   UNL     1      31.962 -13.593 -18.762  0.00  0.00    +0.152 HD
ENDROOT
BRANCH   7  12
ATOM     11  O   UNL     1      34.095  -7.442 -21.779  0.00  0.00    -0.270 OA
ATOM     12  N   UNL     1      31.827  -8.020 -21.555  0.00  0.00    -0.280 N 
ATOM     13  C   UNL     1      32.901  -7.187 -21.895  0.00  0.00    +0.250 C 
ATOM     14  H   UNL     1      30.928  -7.652 -21.716  0.00  0.00    +0.155 HD
BRANCH  13  18
ATOM     15  F   UNL     1      31.144  -2.730 -21.236  0.00  0.00    -0.204 F 
ATOM     16  C   UNL     1      32.367  -4.334 -24.264  0.00  0.00    +0.050 C 
ATOM     17  C   UNL     1      32.717  -5.590 -23.767  0.00  0.00    +0.019 C 
ATOM     18  C   UNL     1      32.526  -5.850 -22.426  0.00  0.00    +0.057 C 
ATOM     19  C   UNL     1      31.836  -3.368 -23.409  0.00  0.00    +0.044 C 
ATOM     20  C   UNL     1      32.004  -4.913 -21.560  0.00  0.00    +0.034 C 
ATOM     21  C   UNL     1      31.654  -3.658 -22.056  0.00  0.00    +0.142 C 
BRANCH  16  23
ATOM     22  O   UNL     1      33.094  -3.257 -28.263  0.00  0.00    -0.350 OA
ATOM     23  N   UNL     1      32.550  -4.042 -25.620  0.00  0.00    -0.303 N 
ATOM     24  C   UNL     1      33.687  -4.621 -26.345  0.00  0.00    +0.123 C 
ATOM     25  C   UNL     1      32.088  -2.740 -26.118  0.00  0.00    +0.123 C 
ATOM     26  C   UNL     1      33.413  -4.584 -27.845  0.00  0.00    +0.164 C 
ATOM     27  C   UNL     1      31.897  -2.804 -27.629  0.00  0.00    +0.164 C 
ENDBRANCH  16  23
ENDBRANCH  13  18
ENDBRANCH   7  12
BRANCH   2  28
ATOM     28  C   UNL     1      32.630 -13.328 -23.260  0.00  0.00    +0.032 C 
BRANCH  28  29
ATOM     29  C   UNL     1      34.098 -13.684 -23.582  0.00  0.00    +0.031 C 
BRANCH  29  31
ATOM     30  N   UNL     1      34.889 -17.894 -23.447  0.00  0.00    -0.242 NA
ATOM     31  C   UNL     1      34.376 -15.166 -23.534  0.00  0.00    -0.019 C 
ATOM     32  C   UNL     1      34.084 -15.948 -24.635  0.00  0.00    +0.016 C 
ATOM     33  C   UNL     1      34.918 -15.719 -22.391  0.00  0.00    +0.016 C 
ATOM     34  C   UNL     1      34.358 -17.303 -24.541  0.00  0.00    +0.099 C 
ATOM     35  C   UNL     1      35.156 -17.085 -22.397  0.00  0.00    +0.099 C 
ENDBRANCH  29  31
ENDBRANCH  28  29
ENDBRANCH   2  28
TORSDOF 6
ENDMDL
MODEL 8
REMARK VINA RESULT:     -10.4      3.421     11.214
REMARK  Name = 5326868
REMARK  6 active torsions:
REMARK  status: ('A' for Active; 'I' for Inactive)
REMARK    1  A    between atoms: C_2  and  C_28
REMARK    2  A    between atoms: C_7  and  N_12
REMARK    3  A    between atoms: C_13  and  C_18
REMARK    4  A    between atoms: C_16  and  N_23
REMARK    5  A    between atoms: C_28  and  C_29
REMARK    6  A    between atoms: C_29  and  C_31
REMARK                            x       y       z     vdW  Elec       q    Type
REMARK                         _______ _______ _______ _____ _____    ______ ____
ROOT
ATOM      1  N   UNL     1      31.742  -6.053 -20.896  0.00  0.00    -0.312 N 
ATOM      2  C   UNL     1      32.595  -5.982 -22.944  0.00  0.00    -0.006 C 
ATOM      3  C   UNL     1      32.489  -7.346 -22.553  0.00  0.00    +0.012 C 
ATOM      4  C   UNL     1      31.952  -7.362 -21.264  0.00  0.00    +0.048 C 
ATOM      5  C   UNL     1      32.128  -5.211 -21.905  0.00  0.00    +0.058 C 
ATOM      6  C   UNL     1      32.802  -8.572 -23.173  0.00  0.00    +0.016 C 
ATOM      7  C   UNL     1      32.564  -9.766 -22.483  0.00  0.00    +0.051 C 
ATOM      8  C   UNL     1      31.710  -8.549 -20.562  0.00  0.00    +0.016 C 
ATOM      9  C   UNL     1      32.026  -9.753 -21.198  0.00  0.00    +0.016 C 
ATOM     10  H   UNL     1      31.369  -5.763 -20.032  0.00  0.00    +0.152 HD
ENDROOT
BRANCH   7  12
ATOM     11  O   UNL     1      32.347 -12.564 -21.428  0.00  0.00    -0.270 OA
ATOM     12  N   UNL     1      32.871 -10.986 -23.091  0.00  0.00    -0.280 N 
ATOM     13  C   UNL     1      32.751 -12.272 -22.550  0.00  0.00    +0.250 C 
ATOM     14  H   UNL     1      33.215 -10.935 -24.011  0.00  0.00    +0.155 HD
BRANCH  13  18
ATOM     15  F   UNL     1      33.540 -14.068 -26.969  0.00  0.00    -0.204 F 
ATOM     16  C   UNL     1      34.029 -15.599 -23.705  0.00  0.00    +0.050 C 
ATOM     17  C   UNL     1      33.617 -14.560 -22.869  0.00  0.00    +0.019 C 
ATOM     18  C   UNL     1      33.188 -13.380 -23.439  0.00  0.00    +0.057 C 
ATOM     19  C   UNL     1      34.002 -15.433 -25.090  0.00  0.00    +0.044 C 
ATOM     20  C   UNL     1      33.153 -13.189 -24.804  0.00  0.00    +0.034 C 
ATOM     21  C   UNL     1      33.564 -14.227 -25.640  0.00  0.00    +0.142 C 
BRANCH  16  23
ATOM     22  O   UNL     1      35.583 -19.206 -22.203  0.00  0.00    -0.350 OA
ATOM     23  N   UNL     1      34.469 -16.807 -23.154  0.00  0.00    -0.303 N 
ATOM     24  C   UNL     1      35.369 -16.798 -21.995  0.00  0.00    +0.123 C 
ATOM     25  C   UNL     1      34.612 -17.965 -24.047  0.00  0.00    +0.123 C 
ATOM     26  C   UNL     1      35.310 -18.147 -21.287  0.00  0.00    +0.164 C 
ATOM     27  C   UNL     1      34.591 -19.251 -23.230  0.00  0.00    +0.164 C 
ENDBRANCH  16  23
ENDBRANCH  13  18
ENDBRANCH   7  12
BRANCH   2  28
ATOM     28  C   UNL     1      33.111  -5.474 -24.231  0.00  0.00    +0.032 C 
BRANCH  28  29
ATOM     29  C   UNL     1      34.607  -5.763 -24.480  0.00  0.00    +0.031 C 
BRANCH  29  31
ATOM     30  N   UNL     1      35.618  -5.990 -28.640  0.00  0.00    -0.242 NA
ATOM     31  C   UNL     1      34.963  -5.843 -25.945  0.00  0.00    -0.019 C 
ATOM     32  C   UNL     1      36.109  -5.222 -26.400  0.00  0.00    +0.016 C 
ATOM     33  C   UNL     1      34.136  -6.535 -26.808  0.00  0.00    +0.016 C 
ATOM     34  C   UNL     1      36.392  -5.325 -27.753  0.00  0.00    +0.099 C 
ATOM     35  C   UNL     1      34.507  -6.579 -28.143  0.00  0.00    +0.099 C 
ENDBRANCH  29  31
ENDBRANCH  28  29
ENDBRANCH   2  28
TORSDOF 6
ENDMDL
MODEL 9
REMARK VINA RESULT:     -10.3      4.174      7.722
REMARK  Name = 5326868
REMARK  6 active torsions:
REMARK  status: ('A' for Active; 'I' for Inactive)
REMARK    1  A    between atoms: C_2  and  C_28
REMARK    2  A    between atoms: C_7  and  N_12
REMARK    3  A    between atoms: C_13  and  C_18
REMARK    4  A    between atoms: C_16  and  N_23
REMARK    5  A    between atoms: C_28  and  C_29
REMARK    6  A    between atoms: C_29  and  C_31
REMARK                            x       y       z     vdW  Elec       q    Type
REMARK                         _______ _______ _______ _____ _____    ______ ____
ROOT
ATOM      1  N   UNL     1      31.951  -9.376 -18.429  0.00  0.00    -0.312 N 
ATOM      2  C   UNL     1      31.660 -10.711 -20.179  0.00  0.00    -0.006 C 
ATOM      3  C   UNL     1      32.137  -9.456 -20.651  0.00  0.00    +0.012 C 
ATOM      4  C   UNL     1      32.310  -8.637 -19.534  0.00  0.00    +0.048 C 
ATOM      5  C   UNL     1      31.556 -10.631 -18.809  0.00  0.00    +0.058 C 
ATOM      6  C   UNL     1      32.436  -8.936 -21.927  0.00  0.00    +0.016 C 
ATOM      7  C   UNL     1      32.899  -7.620 -22.036  0.00  0.00    +0.051 C 
ATOM      8  C   UNL     1      32.771  -7.318 -19.628  0.00  0.00    +0.016 C 
ATOM      9  C   UNL     1      33.064  -6.825 -20.903  0.00  0.00    +0.016 C 
ATOM     10  H   UNL     1      31.974  -9.049 -17.502  0.00  0.00    +0.152 HD
ENDROOT
BRANCH   7  12
ATOM     11  O   UNL     1      35.302  -8.029 -23.781  0.00  0.00    -0.270 OA
ATOM     12  N   UNL     1      33.198  -7.098 -23.296  0.00  0.00    -0.280 N 
ATOM     13  C   UNL     1      34.342  -7.322 -24.072  0.00  0.00    +0.250 C 
ATOM     14  H   UNL     1      32.522  -6.498 -23.686  0.00  0.00    +0.155 HD
BRANCH  13  18
ATOM     15  F   UNL     1      36.173  -6.717 -28.506  0.00  0.00    -0.204 F 
ATOM     16  C   UNL     1      33.567  -4.854 -26.782  0.00  0.00    +0.050 C 
ATOM     17  C   UNL     1      33.527  -5.533 -25.564  0.00  0.00    +0.019 C 
ATOM     18  C   UNL     1      34.384  -6.596 -25.369  0.00  0.00    +0.057 C 
ATOM     19  C   UNL     1      34.460  -5.254 -27.776  0.00  0.00    +0.044 C 
ATOM     20  C   UNL     1      35.276  -7.012 -26.335  0.00  0.00    +0.034 C 
ATOM     21  C   UNL     1      35.316  -6.333 -27.552  0.00  0.00    +0.142 C 
BRANCH  16  23
ATOM     22  O   UNL     1      30.787  -1.786 -27.518  0.00  0.00    -0.350 OA
ATOM     23  N   UNL     1      32.709  -3.772 -27.008  0.00  0.00    -0.303 N 
ATOM     24  C   UNL     1      31.829  -3.300 -25.933  0.00  0.00    +0.123 C 
ATOM     25  C   UNL     1      32.199  -3.564 -28.370  0.00  0.00    +0.123 C 
ATOM     26  C   UNL     1      31.383  -1.871 -26.224  0.00  0.00    +0.164 C 
ATOM     27  C   UNL     1      31.735  -2.121 -28.531  0.00  0.00    +0.164 C 
ENDBRANCH  16  23
ENDBRANCH  13  18
ENDBRANCH   7  12
BRANCH   2  28
ATOM     28  C   UNL     1      31.333 -11.893 -21.002  0.00  0.00    +0.032 C 
BRANCH  28  29
ATOM     29  C   UNL     1      31.857 -13.232 -20.437  0.00  0.00    +0.031 C 
BRANCH  29  31
ATOM     30  N   UNL     1      34.896 -15.019 -22.873  0.00  0.00    -0.242 NA
ATOM     31  C   UNL     1      32.926 -13.861 -21.295  0.00  0.00    -0.019 C 
ATOM     32  C   UNL     1      32.996 -13.543 -22.637  0.00  0.00    +0.016 C 
ATOM     33  C   UNL     1      33.821 -14.747 -20.725  0.00  0.00    +0.016 C 
ATOM     34  C   UNL     1      33.997 -14.147 -23.381  0.00  0.00    +0.099 C 
ATOM     35  C   UNL     1      34.785 -15.298 -21.555  0.00  0.00    +0.099 C 
ENDBRANCH  29  31
ENDBRANCH  28  29
ENDBRANCH   2  28
TORSDOF 6
ENDMDL
