MODEL 1
REMARK VINA RESULT:     -12.3      0.000      0.000
REMARK  Name = 24755471
REMARK  13 active torsions:
REMARK  status: ('A' for Active; 'I' for Inactive)
REMARK    1  A    between atoms: C_1  and  S_11
REMARK    2  A    between atoms: C_9  and  O_27
REMARK    3  A    between atoms: S_11  and  N_14
REMARK    4  A    between atoms: N_14  and  C_16
REMARK    5  A    between atoms: C_16  and  C_18
REMARK    6  A    between atoms: C_16  and  C_21
REMARK    7  A    between atoms: C_18  and  O_19
REMARK    8  A    between atoms: C_21  and  C_22
REMARK    9  A    between atoms: C_22  and  C_24
REMARK   10  A    between atoms: C_24  and  O_25
REMARK   11  A    between atoms: O_27  and  C_28
REMARK   12  A    between atoms: C_28  and  C_29
REMARK   13  A    between atoms: C_34  and  C_36
REMARK                            x       y       z     vdW  Elec       q    Type
REMARK                         _______ _______ _______ _____ _____    ______ ____
ROOT
ATOM      1  C   UNL     1      35.736 -23.456 -15.379  0.00  0.00    +0.122 C 
ATOM      2  C   UNL     1      34.643 -22.668 -17.404  0.00  0.00    +0.002 C 
ATOM      3  C   UNL     1      34.600 -23.362 -16.184  0.00  0.00    +0.020 C 
ATOM      4  C   UNL     1      35.854 -22.060 -17.813  0.00  0.00    +0.003 C 
ATOM      5  C   UNL     1      36.927 -22.859 -15.781  0.00  0.00    +0.020 C 
ATOM      6  C   UNL     1      36.987 -22.165 -16.990  0.00  0.00    +0.001 C 
ATOM      7  C   UNL     1      35.896 -21.366 -19.033  0.00  0.00    +0.037 C 
ATOM      8  C   UNL     1      33.509 -22.563 -18.228  0.00  0.00    +0.003 C 
ATOM      9  C   UNL     1      34.760 -21.272 -19.838  0.00  0.00    +0.139 C 
ATOM     10  C   UNL     1      33.570 -21.869 -19.437  0.00  0.00    +0.037 C 
ENDROOT
BRANCH   1  11
ATOM     11  S   UNL     1      35.661 -24.335 -13.846  0.00  0.00    +0.061 S 
ATOM     12  O   UNL     1      34.417 -23.982 -13.190  0.00  0.00    -0.153 OA
ATOM     13  O   UNL     1      35.965 -25.722 -14.140  0.00  0.00    -0.153 OA
BRANCH  11  14
ATOM     14  N   UNL     1      36.963 -23.655 -12.990  0.00  0.00    -0.170 NA
ATOM     15  H   UNL     1      36.589 -22.868 -12.462  0.00  0.00    +0.149 HD
BRANCH  14  16
ATOM     16  C   UNL     1      37.732 -24.485 -12.036  0.00  0.00    +0.174 C 
BRANCH  16  18
ATOM     17  O   UNL     1      36.413 -24.320  -9.999  0.00  0.00    -0.249 OA
ATOM     18  C   UNL     1      36.782 -24.972 -10.969  0.00  0.00    +0.330 C 
BRANCH  18  19
ATOM     19  O   UNL     1      36.348 -26.236 -11.208  0.00  0.00    -0.479 OA
ATOM     20  H   UNL     1      36.807 -26.782 -11.815  0.00  0.00    +0.295 HD
ENDBRANCH  18  19
ENDBRANCH  16  18
BRANCH  16  21
ATOM     21  C   UNL     1      38.483 -25.596 -12.778  0.00  0.00    +0.040 C 
BRANCH  21  22
ATOM     22  C   UNL     1      39.367 -25.157 -13.950  0.00  0.00    +0.111 C 
BRANCH  22  24
ATOM     23  O   UNL     1      41.041 -26.858 -13.574  0.00  0.00    -0.250 OA
ATOM     24  C   UNL     1      40.388 -26.186 -14.363  0.00  0.00    +0.314 C 
BRANCH  24  25
ATOM     25  O   UNL     1      40.522 -26.281 -15.710  0.00  0.00    -0.480 OA
ATOM     26  H   UNL     1      39.813 -26.606 -16.229  0.00  0.00    +0.295 HD
ENDBRANCH  24  25
ENDBRANCH  22  24
ENDBRANCH  21  22
ENDBRANCH  16  21
ENDBRANCH  14  16
ENDBRANCH  11  14
ENDBRANCH   1  11
BRANCH   9  27
ATOM     27  O   UNL     1      34.817 -20.594 -21.017  0.00  0.00    -0.471 OA
BRANCH  27  28
ATOM     28  C   UNL     1      35.718 -19.490 -21.089  0.00  0.00    +0.232 C 
BRANCH  28  29
ATOM     29  C   UNL     1      35.234 -18.529 -22.135  0.00  0.00    +0.021 C 
ATOM     30  C   UNL     1      35.351 -17.155 -21.927  0.00  0.00    -0.000 C 
ATOM     31  C   UNL     1      34.665 -19.010 -23.314  0.00  0.00    -0.000 C 
ATOM     32  C   UNL     1      34.900 -16.262 -22.899  0.00  0.00    +0.010 C 
ATOM     33  C   UNL     1      34.215 -18.118 -24.286  0.00  0.00    +0.010 C 
ATOM     34  C   UNL     1      34.332 -16.743 -24.078  0.00  0.00    +0.068 C 
BRANCH  34  36
ATOM     35  N   UNL     1      33.496 -15.084 -25.883  0.00  0.00    -0.191 NA
ATOM     36  C   UNL     1      33.871 -15.828 -25.074  0.00  0.00    +0.100 C 
ENDBRANCH  34  36
ENDBRANCH  28  29
ENDBRANCH  27  28
ENDBRANCH   9  27
TORSDOF 13
ENDMDL
MODEL 2
REMARK VINA RESULT:     -12.2      1.261      2.962
REMARK  Name = 24755471
REMARK  13 active torsions:
REMARK  status: ('A' for Active; 'I' for Inactive)
REMARK    1  A    between atoms: C_1  and  S_11
REMARK    2  A    between atoms: C_9  and  O_27
REMARK    3  A    between atoms: S_11  and  N_14
REMARK    4  A    between atoms: N_14  and  C_16
REMARK    5  A    between atoms: C_16  and  C_18
REMARK    6  A    between atoms: C_16  and  C_21
REMARK    7  A    between atoms: C_18  and  O_19
REMARK    8  A    between atoms: C_21  and  C_22
REMARK    9  A    between atoms: C_22  and  C_24
REMARK   10  A    between atoms: C_24  and  O_25
REMARK   11  A    between atoms: O_27  and  C_28
REMARK   12  A    between atoms: C_28  and  C_29
REMARK   13  A    between atoms: C_34  and  C_36
REMARK                            x       y       z     vdW  Elec       q    Type
REMARK                         _______ _______ _______ _____ _____    ______ ____
ROOT
ATOM      1  C   UNL     1      35.552 -23.387 -16.102  0.00  0.00    +0.122 C 
ATOM      2  C   UNL     1      34.429 -22.360 -18.001  0.00  0.00    +0.002 C 
ATOM      3  C   UNL     1      34.398 -23.175 -16.857  0.00  0.00    +0.020 C 
ATOM      4  C   UNL     1      35.647 -21.751 -18.384  0.00  0.00    +0.003 C 
ATOM      5  C   UNL     1      36.750 -22.788 -16.479  0.00  0.00    +0.020 C 
ATOM      6  C   UNL     1      36.799 -21.975 -17.612  0.00  0.00    +0.001 C 
ATOM      7  C   UNL     1      35.678 -20.936 -19.527  0.00  0.00    +0.037 C 
ATOM      8  C   UNL     1      33.276 -22.137 -18.773  0.00  0.00    +0.003 C 
ATOM      9  C   UNL     1      34.524 -20.725 -20.282  0.00  0.00    +0.139 C 
ATOM     10  C   UNL     1      33.325 -21.324 -19.906  0.00  0.00    +0.037 C 
ENDROOT
BRANCH   1  11
ATOM     11  S   UNL     1      35.492 -24.416 -14.666  0.00  0.00    +0.061 S 
ATOM     12  O   UNL     1      34.374 -23.980 -13.851  0.00  0.00    -0.153 OA
ATOM     13  O   UNL     1      35.568 -25.789 -15.127  0.00  0.00    -0.153 OA
BRANCH  11  14
ATOM     14  N   UNL     1      36.949 -24.015 -13.887  0.00  0.00    -0.170 NA
ATOM     15  H   UNL     1      36.728 -23.291 -13.204  0.00  0.00    +0.149 HD
BRANCH  14  16
ATOM     16  C   UNL     1      37.715 -25.059 -13.172  0.00  0.00    +0.174 C 
BRANCH  16  18
ATOM     17  O   UNL     1      40.103 -24.987 -13.629  0.00  0.00    -0.249 OA
ATOM     18  C   UNL     1      38.975 -25.335 -13.958  0.00  0.00    +0.330 C 
BRANCH  18  19
ATOM     19  O   UNL     1      38.729 -26.045 -15.088  0.00  0.00    -0.479 OA
ATOM     20  H   UNL     1      37.945 -25.891 -15.577  0.00  0.00    +0.295 HD
ENDBRANCH  18  19
ENDBRANCH  16  18
BRANCH  16  21
ATOM     21  C   UNL     1      37.949 -24.648 -11.714  0.00  0.00    +0.040 C 
BRANCH  21  22
ATOM     22  C   UNL     1      36.839 -23.826 -11.052  0.00  0.00    +0.111 C 
BRANCH  22  24
ATOM     23  O   UNL     1      35.484 -24.711  -9.258  0.00  0.00    -0.250 OA
ATOM     24  C   UNL     1      35.734 -24.662 -10.456  0.00  0.00    +0.314 C 
BRANCH  24  25
ATOM     25  O   UNL     1      35.051 -25.373 -11.388  0.00  0.00    -0.480 OA
ATOM     26  H   UNL     1      35.266 -25.281 -12.296  0.00  0.00    +0.295 HD
ENDBRANCH  24  25
ENDBRANCH  22  24
ENDBRANCH  21  22
ENDBRANCH  16  21
ENDBRANCH  14  16
ENDBRANCH  11  14
ENDBRANCH   1  11
BRANCH   9  27
ATOM     27  O   UNL     1      34.570 -19.931 -21.387  0.00  0.00    -0.471 OA
BRANCH  27  28
ATOM     28  C   UNL     1      35.736 -19.129 -21.562  0.00  0.00    +0.232 C 
BRANCH  28  29
ATOM     29  C   UNL     1      35.322 -17.738 -21.942  0.00  0.00    +0.021 C 
ATOM     30  C   UNL     1      35.178 -17.397 -23.287  0.00  0.00    -0.000 C 
ATOM     31  C   UNL     1      35.082 -16.785 -20.952  0.00  0.00    -0.000 C 
ATOM     32  C   UNL     1      34.794 -16.105 -23.641  0.00  0.00    +0.010 C 
ATOM     33  C   UNL     1      34.698 -15.493 -21.306  0.00  0.00    +0.010 C 
ATOM     34  C   UNL     1      34.554 -15.152 -22.651  0.00  0.00    +0.068 C 
BRANCH  34  36
ATOM     35  N   UNL     1      33.839 -12.751 -23.309  0.00  0.00    -0.191 NA
ATOM     36  C   UNL     1      34.159 -13.827 -23.015  0.00  0.00    +0.100 C 
ENDBRANCH  34  36
ENDBRANCH  28  29
ENDBRANCH  27  28
ENDBRANCH   9  27
TORSDOF 13
ENDMDL
MODEL 3
REMARK VINA RESULT:     -12.2      3.952      6.157
REMARK  Name = 24755471
REMARK  13 active torsions:
REMARK  status: ('A' for Active; 'I' for Inactive)
REMARK    1  A    between atoms: C_1  and  S_11
REMARK    2  A    between atoms: C_9  and  O_27
REMARK    3  A    between atoms: S_11  and  N_14
REMARK    4  A    between atoms: N_14  and  C_16
REMARK    5  A    between atoms: C_16  and  C_18
REMARK    6  A    between atoms: C_16  and  C_21
REMARK    7  A    between atoms: C_18  and  O_19
REMARK    8  A    between atoms: C_21  and  C_22
REMARK    9  A    between atoms: C_22  and  C_24
REMARK   10  A    between atoms: C_24  and  O_25
REMARK   11  A    between atoms: O_27  and  C_28
REMARK   12  A    between atoms: C_28  and  C_29
REMARK   13  A    between atoms: C_34  and  C_36
REMARK                            x       y       z     vdW  Elec       q    Type
REMARK                         _______ _______ _______ _____ _____    ______ ____
ROOT
ATOM      1  C   UNL     1      34.108 -22.187 -18.652  0.00  0.00    +0.122 C 
ATOM      2  C   UNL     1      35.522 -20.683 -19.940  0.00  0.00    +0.002 C 
ATOM      3  C   UNL     1      35.373 -21.694 -18.977  0.00  0.00    +0.020 C 
ATOM      4  C   UNL     1      34.373 -20.166 -20.585  0.00  0.00    +0.003 C 
ATOM      5  C   UNL     1      32.979 -21.678 -19.285  0.00  0.00    +0.020 C 
ATOM      6  C   UNL     1      33.108 -20.674 -20.245  0.00  0.00    +0.001 C 
ATOM      7  C   UNL     1      34.522 -19.156 -21.548  0.00  0.00    +0.037 C 
ATOM      8  C   UNL     1      36.787 -20.175 -20.280  0.00  0.00    +0.003 C 
ATOM      9  C   UNL     1      35.786 -18.663 -21.873  0.00  0.00    +0.139 C 
ATOM     10  C   UNL     1      36.916 -19.171 -21.240  0.00  0.00    +0.037 C 
ENDROOT
BRANCH   1  11
ATOM     11  S   UNL     1      33.943 -23.459 -17.435  0.00  0.00    +0.061 S 
ATOM     12  O   UNL     1      33.501 -24.665 -18.109  0.00  0.00    -0.153 OA
ATOM     13  O   UNL     1      35.167 -23.463 -16.659  0.00  0.00    -0.153 OA
BRANCH  11  14
ATOM     14  N   UNL     1      32.679 -22.857 -16.470  0.00  0.00    -0.170 NA
ATOM     15  H   UNL     1      32.061 -22.334 -17.088  0.00  0.00    +0.149 HD
BRANCH  14  16
ATOM     16  C   UNL     1      31.827 -23.792 -15.703  0.00  0.00    +0.174 C 
BRANCH  16  18
ATOM     17  O   UNL     1      32.367 -25.157 -13.764  0.00  0.00    -0.249 OA
ATOM     18  C   UNL     1      32.551 -24.142 -14.424  0.00  0.00    +0.330 C 
BRANCH  18  19
ATOM     19  O   UNL     1      33.467 -23.201 -14.080  0.00  0.00    -0.479 OA
ATOM     20  H   UNL     1      33.184 -22.364 -13.769  0.00  0.00    +0.295 HD
ENDBRANCH  18  19
ENDBRANCH  16  18
BRANCH  16  21
ATOM     21  C   UNL     1      30.428 -23.198 -15.502  0.00  0.00    +0.040 C 
BRANCH  21  22
ATOM     22  C   UNL     1      29.249 -24.158 -15.684  0.00  0.00    +0.111 C 
BRANCH  22  24
ATOM     23  O   UNL     1      27.481 -24.331 -17.321  0.00  0.00    -0.250 OA
ATOM     24  C   UNL     1      28.165 -23.628 -16.588  0.00  0.00    +0.314 C 
BRANCH  24  25
ATOM     25  O   UNL     1      28.036 -22.279 -16.520  0.00  0.00    -0.480 OA
ATOM     26  H   UNL     1      27.558 -21.890 -15.813  0.00  0.00    +0.295 HD
ENDBRANCH  24  25
ENDBRANCH  22  24
ENDBRANCH  21  22
ENDBRANCH  16  21
ENDBRANCH  14  16
ENDBRANCH  11  14
ENDBRANCH   1  11
BRANCH   9  27
ATOM     27  O   UNL     1      35.914 -17.684 -22.810  0.00  0.00    -0.471 OA
BRANCH  27  28
ATOM     28  C   UNL     1      34.804 -17.469 -23.680  0.00  0.00    +0.232 C 
BRANCH  28  29
ATOM     29  C   UNL     1      34.393 -16.028 -23.604  0.00  0.00    +0.021 C 
ATOM     30  C   UNL     1      34.658 -15.288 -22.451  0.00  0.00    -0.000 C 
ATOM     31  C   UNL     1      33.746 -15.429 -24.684  0.00  0.00    -0.000 C 
ATOM     32  C   UNL     1      34.275 -13.949 -22.380  0.00  0.00    +0.010 C 
ATOM     33  C   UNL     1      33.364 -14.090 -24.613  0.00  0.00    +0.010 C 
ATOM     34  C   UNL     1      33.628 -13.350 -23.460  0.00  0.00    +0.068 C 
BRANCH  34  36
ATOM     35  N   UNL     1      32.919 -10.862 -23.327  0.00  0.00    -0.191 NA
ATOM     36  C   UNL     1      33.237 -11.977 -23.387  0.00  0.00    +0.100 C 
ENDBRANCH  34  36
ENDBRANCH  28  29
ENDBRANCH  27  28
ENDBRANCH   9  27
TORSDOF 13
ENDMDL
MODEL 4
REMARK VINA RESULT:     -12.1      1.763      2.501
REMARK  Name = 24755471
REMARK  13 active torsions:
REMARK  status: ('A' for Active; 'I' for Inactive)
REMARK    1  A    between atoms: C_1  and  S_11
REMARK    2  A    between atoms: C_9  and  O_27
REMARK    3  A    between atoms: S_11  and  N_14
REMARK    4  A    between atoms: N_14  and  C_16
REMARK    5  A    between atoms: C_16  and  C_18
REMARK    6  A    between atoms: C_16  and  C_21
REMARK    7  A    between atoms: C_18  and  O_19
REMARK    8  A    between atoms: C_21  and  C_22
REMARK    9  A    between atoms: C_22  and  C_24
REMARK   10  A    between atoms: C_24  and  O_25
REMARK   11  A    between atoms: O_27  and  C_28
REMARK   12  A    between atoms: C_28  and  C_29
REMARK   13  A    between atoms: C_34  and  C_36
REMARK                            x       y       z     vdW  Elec       q    Type
REMARK                         _______ _______ _______ _____ _____    ______ ____
ROOT
ATOM      1  C   UNL     1      34.342 -23.254 -16.438  0.00  0.00    +0.122 C 
ATOM      2  C   UNL     1      35.094 -21.965 -18.360  0.00  0.00    +0.002 C 
ATOM      3  C   UNL     1      35.372 -22.670 -17.178  0.00  0.00    +0.020 C 
ATOM      4  C   UNL     1      33.754 -21.852 -18.800  0.00  0.00    +0.003 C 
ATOM      5  C   UNL     1      33.025 -23.141 -16.870  0.00  0.00    +0.020 C 
ATOM      6  C   UNL     1      32.730 -22.445 -18.043  0.00  0.00    +0.001 C 
ATOM      7  C   UNL     1      33.476 -21.147 -19.983  0.00  0.00    +0.037 C 
ATOM      8  C   UNL     1      36.118 -21.371 -19.117  0.00  0.00    +0.003 C 
ATOM      9  C   UNL     1      34.506 -20.564 -20.722  0.00  0.00    +0.139 C 
ATOM     10  C   UNL     1      35.824 -20.675 -20.290  0.00  0.00    +0.037 C 
ENDROOT
BRANCH   1  11
ATOM     11  S   UNL     1      34.714 -24.136 -14.952  0.00  0.00    +0.061 S 
ATOM     12  O   UNL     1      35.098 -23.168 -13.943  0.00  0.00    -0.153 OA
ATOM     13  O   UNL     1      33.607 -25.042 -14.711  0.00  0.00    -0.153 OA
BRANCH  11  14
ATOM     14  N   UNL     1      36.077 -25.041 -15.414  0.00  0.00    -0.170 NA
ATOM     15  H   UNL     1      36.641 -24.438 -16.012  0.00  0.00    +0.149 HD
BRANCH  14  16
ATOM     16  C   UNL     1      36.982 -25.591 -14.382  0.00  0.00    +0.174 C 
BRANCH  16  18
ATOM     17  O   UNL     1      37.191 -27.902 -13.654  0.00  0.00    -0.249 OA
ATOM     18  C   UNL     1      37.037 -27.090 -14.558  0.00  0.00    +0.330 C 
BRANCH  18  19
ATOM     19  O   UNL     1      36.874 -27.459 -15.854  0.00  0.00    -0.479 OA
ATOM     20  H   UNL     1      36.507 -28.296 -16.061  0.00  0.00    +0.295 HD
ENDBRANCH  18  19
ENDBRANCH  16  18
BRANCH  16  21
ATOM     21  C   UNL     1      38.345 -24.891 -14.439  0.00  0.00    +0.040 C 
BRANCH  21  22
ATOM     22  C   UNL     1      39.441 -25.458 -13.531  0.00  0.00    +0.111 C 
BRANCH  22  24
ATOM     23  O   UNL     1      41.302 -26.988 -13.702  0.00  0.00    -0.250 OA
ATOM     24  C   UNL     1      40.470 -26.285 -14.260  0.00  0.00    +0.314 C 
BRANCH  24  25
ATOM     25  O   UNL     1      40.390 -26.154 -15.608  0.00  0.00    -0.480 OA
ATOM     26  H   UNL     1      40.161 -26.893 -16.137  0.00  0.00    +0.295 HD
ENDBRANCH  24  25
ENDBRANCH  22  24
ENDBRANCH  21  22
ENDBRANCH  16  21
ENDBRANCH  14  16
ENDBRANCH  11  14
ENDBRANCH   1  11
BRANCH   9  27
ATOM     27  O   UNL     1      34.220 -19.886 -21.867  0.00  0.00    -0.471 OA
BRANCH  27  28
ATOM     28  C   UNL     1      35.315 -19.283 -22.555  0.00  0.00    +0.232 C 
BRANCH  28  29
ATOM     29  C   UNL     1      35.017 -17.829 -22.773  0.00  0.00    +0.021 C 
ATOM     30  C   UNL     1      35.108 -16.931 -21.709  0.00  0.00    -0.000 C 
ATOM     31  C   UNL     1      34.646 -17.375 -24.039  0.00  0.00    -0.000 C 
ATOM     32  C   UNL     1      34.830 -15.580 -21.912  0.00  0.00    +0.010 C 
ATOM     33  C   UNL     1      34.368 -16.024 -24.241  0.00  0.00    +0.010 C 
ATOM     34  C   UNL     1      34.459 -15.126 -23.177  0.00  0.00    +0.068 C 
BRANCH  34  36
ATOM     35  N   UNL     1      33.944 -12.616 -23.553  0.00  0.00    -0.191 NA
ATOM     36  C   UNL     1      34.175 -13.741 -23.384  0.00  0.00    +0.100 C 
ENDBRANCH  34  36
ENDBRANCH  28  29
ENDBRANCH  27  28
ENDBRANCH   9  27
TORSDOF 13
ENDMDL
MODEL 5
REMARK VINA RESULT:     -12.0      2.626      4.880
REMARK  Name = 24755471
REMARK  13 active torsions:
REMARK  status: ('A' for Active; 'I' for Inactive)
REMARK    1  A    between atoms: C_1  and  S_11
REMARK    2  A    between atoms: C_9  and  O_27
REMARK    3  A    between atoms: S_11  and  N_14
REMARK    4  A    between atoms: N_14  and  C_16
REMARK    5  A    between atoms: C_16  and  C_18
REMARK    6  A    between atoms: C_16  and  C_21
REMARK    7  A    between atoms: C_18  and  O_19
REMARK    8  A    between atoms: C_21  and  C_22
REMARK    9  A    between atoms: C_22  and  C_24
REMARK   10  A    between atoms: C_24  and  O_25
REMARK   11  A    between atoms: O_27  and  C_28
REMARK   12  A    between atoms: C_28  and  C_29
REMARK   13  A    between atoms: C_34  and  C_36
REMARK                            x       y       z     vdW  Elec       q    Type
REMARK                         _______ _______ _______ _____ _____    ______ ____
ROOT
ATOM      1  C   UNL     1      35.362 -23.279 -15.781  0.00  0.00    +0.122 C 
ATOM      2  C   UNL     1      34.496 -22.385 -17.872  0.00  0.00    +0.002 C 
ATOM      3  C   UNL     1      34.307 -23.097 -16.676  0.00  0.00    +0.020 C 
ATOM      4  C   UNL     1      35.773 -21.849 -18.164  0.00  0.00    +0.003 C 
ATOM      5  C   UNL     1      36.618 -22.752 -16.069  0.00  0.00    +0.020 C 
ATOM      6  C   UNL     1      36.824 -22.042 -17.252  0.00  0.00    +0.001 C 
ATOM      7  C   UNL     1      35.962 -21.137 -19.360  0.00  0.00    +0.037 C 
ATOM      8  C   UNL     1      33.445 -22.193 -18.785  0.00  0.00    +0.003 C 
ATOM      9  C   UNL     1      34.907 -20.956 -20.254  0.00  0.00    +0.139 C 
ATOM     10  C   UNL     1      33.651 -21.483 -19.968  0.00  0.00    +0.037 C 
ENDROOT
BRANCH   1  11
ATOM     11  S   UNL     1      35.103 -24.178 -14.281  0.00  0.00    +0.061 S 
ATOM     12  O   UNL     1      34.967 -25.581 -14.621  0.00  0.00    -0.153 OA
ATOM     13  O   UNL     1      36.127 -23.748 -13.349  0.00  0.00    -0.153 OA
BRANCH  11  14
ATOM     14  N   UNL     1      33.600 -23.573 -13.767  0.00  0.00    -0.170 NA
ATOM     15  H   UNL     1      33.600 -22.574 -13.971  0.00  0.00    +0.149 HD
BRANCH  14  16
ATOM     16  C   UNL     1      32.349 -24.126 -14.331  0.00  0.00    +0.174 C 
BRANCH  16  18
ATOM     17  O   UNL     1      30.500 -25.020 -13.029  0.00  0.00    -0.249 OA
ATOM     18  C   UNL     1      31.700 -24.986 -13.273  0.00  0.00    +0.330 C 
BRANCH  18  19
ATOM     19  O   UNL     1      32.603 -25.756 -12.614  0.00  0.00    -0.479 OA
ATOM     20  H   UNL     1      32.312 -26.480 -12.096  0.00  0.00    +0.295 HD
ENDBRANCH  18  19
ENDBRANCH  16  18
BRANCH  16  21
ATOM     21  C   UNL     1      31.461 -22.999 -14.871  0.00  0.00    +0.040 C 
BRANCH  21  22
ATOM     22  C   UNL     1      30.739 -23.275 -16.193  0.00  0.00    +0.111 C 
BRANCH  22  24
ATOM     23  O   UNL     1      28.549 -22.355 -16.630  0.00  0.00    -0.250 OA
ATOM     24  C   UNL     1      29.236 -23.213 -16.091  0.00  0.00    +0.314 C 
BRANCH  24  25
ATOM     25  O   UNL     1      28.721 -24.205 -15.321  0.00  0.00    -0.480 OA
ATOM     26  H   UNL     1      27.793 -24.277 -15.211  0.00  0.00    +0.295 HD
ENDBRANCH  24  25
ENDBRANCH  22  24
ENDBRANCH  21  22
ENDBRANCH  16  21
ENDBRANCH  14  16
ENDBRANCH  11  14
ENDBRANCH   1  11
BRANCH   9  27
ATOM     27  O   UNL     1      35.106 -20.262 -21.408  0.00  0.00    -0.471 OA
BRANCH  27  28
ATOM     28  C   UNL     1      35.821 -19.031 -21.311  0.00  0.00    +0.232 C 
BRANCH  28  29
ATOM     29  C   UNL     1      35.278 -18.068 -22.325  0.00  0.00    +0.021 C 
ATOM     30  C   UNL     1      34.805 -18.538 -23.550  0.00  0.00    -0.000 C 
ATOM     31  C   UNL     1      35.248 -16.702 -22.043  0.00  0.00    -0.000 C 
ATOM     32  C   UNL     1      34.301 -17.642 -24.492  0.00  0.00    +0.010 C 
ATOM     33  C   UNL     1      34.744 -15.806 -22.986  0.00  0.00    +0.010 C 
ATOM     34  C   UNL     1      34.271 -16.276 -24.211  0.00  0.00    +0.068 C 
BRANCH  34  36
ATOM     35  N   UNL     1      33.335 -14.613 -25.962  0.00  0.00    -0.191 NA
ATOM     36  C   UNL     1      33.754 -15.359 -25.177  0.00  0.00    +0.100 C 
ENDBRANCH  34  36
ENDBRANCH  28  29
ENDBRANCH  27  28
ENDBRANCH   9  27
TORSDOF 13
ENDMDL
MODEL 6
REMARK VINA RESULT:     -11.8      0.967      1.865
REMARK  Name = 24755471
REMARK  13 active torsions:
REMARK  status: ('A' for Active; 'I' for Inactive)
REMARK    1  A    between atoms: C_1  and  S_11
REMARK    2  A    between atoms: C_9  and  O_27
REMARK    3  A    between atoms: S_11  and  N_14
REMARK    4  A    between atoms: N_14  and  C_16
REMARK    5  A    between atoms: C_16  and  C_18
REMARK    6  A    between atoms: C_16  and  C_21
REMARK    7  A    between atoms: C_18  and  O_19
REMARK    8  A    between atoms: C_21  and  C_22
REMARK    9  A    between atoms: C_22  and  C_24
REMARK   10  A    between atoms: C_24  and  O_25
REMARK   11  A    between atoms: O_27  and  C_28
REMARK   12  A    between atoms: C_28  and  C_29
REMARK   13  A    between atoms: C_34  and  C_36
REMARK                            x       y       z     vdW  Elec       q    Type
REMARK                         _______ _______ _______ _____ _____    ______ ____
ROOT
ATOM      1  C   UNL     1      34.441 -23.703 -15.911  0.00  0.00    +0.122 C 
ATOM      2  C   UNL     1      35.311 -22.345 -17.734  0.00  0.00    +0.002 C 
ATOM      3  C   UNL     1      35.511 -23.074 -16.550  0.00  0.00    +0.020 C 
ATOM      4  C   UNL     1      34.007 -22.252 -18.277  0.00  0.00    +0.003 C 
ATOM      5  C   UNL     1      33.160 -23.611 -16.445  0.00  0.00    +0.020 C 
ATOM      6  C   UNL     1      32.942 -22.891 -17.620  0.00  0.00    +0.001 C 
ATOM      7  C   UNL     1      33.807 -21.523 -19.460  0.00  0.00    +0.037 C 
ATOM      8  C   UNL     1      36.376 -21.706 -18.390  0.00  0.00    +0.003 C 
ATOM      9  C   UNL     1      34.876 -20.895 -20.099  0.00  0.00    +0.139 C 
ATOM     10  C   UNL     1      36.158 -20.986 -19.565  0.00  0.00    +0.037 C 
ENDROOT
BRANCH   1  11
ATOM     11  S   UNL     1      34.716 -24.616 -14.422  0.00  0.00    +0.061 S 
ATOM     12  O   UNL     1      33.483 -24.605 -13.659  0.00  0.00    -0.153 OA
ATOM     13  O   UNL     1      35.327 -25.874 -14.805  0.00  0.00    -0.153 OA
BRANCH  11  14
ATOM     14  N   UNL     1      35.877 -23.657 -13.633  0.00  0.00    -0.170 NA
ATOM     15  H   UNL     1      35.376 -22.873 -13.215  0.00  0.00    +0.149 HD
BRANCH  14  16
ATOM     16  C   UNL     1      36.719 -24.244 -12.569  0.00  0.00    +0.174 C 
BRANCH  16  18
ATOM     17  O   UNL     1      35.931 -25.778 -10.853  0.00  0.00    -0.249 OA
ATOM     18  C   UNL     1      35.809 -24.721 -11.462  0.00  0.00    +0.330 C 
BRANCH  18  19
ATOM     19  O   UNL     1      34.825 -23.827 -11.187  0.00  0.00    -0.479 OA
ATOM     20  H   UNL     1      33.991 -24.126 -10.886  0.00  0.00    +0.295 HD
ENDBRANCH  18  19
ENDBRANCH  16  18
BRANCH  16  21
ATOM     21  C   UNL     1      37.639 -25.325 -13.150  0.00  0.00    +0.040 C 
BRANCH  21  22
ATOM     22  C   UNL     1      38.599 -24.879 -14.256  0.00  0.00    +0.111 C 
BRANCH  22  24
ATOM     23  O   UNL     1      41.004 -25.101 -14.182  0.00  0.00    -0.250 OA
ATOM     24  C   UNL     1      39.905 -25.634 -14.271  0.00  0.00    +0.314 C 
BRANCH  24  25
ATOM     25  O   UNL     1      39.737 -26.973 -14.410  0.00  0.00    -0.480 OA
ATOM     26  H   UNL     1      39.119 -27.425 -13.870  0.00  0.00    +0.295 HD
ENDBRANCH  24  25
ENDBRANCH  22  24
ENDBRANCH  21  22
ENDBRANCH  16  21
ENDBRANCH  14  16
ENDBRANCH  11  14
ENDBRANCH   1  11
BRANCH   9  27
ATOM     27  O   UNL     1      34.666 -20.194 -21.246  0.00  0.00    -0.471 OA
BRANCH  27  28
ATOM     28  C   UNL     1      35.741 -19.385 -21.720  0.00  0.00    +0.232 C 
BRANCH  28  29
ATOM     29  C   UNL     1      35.195 -18.328 -22.634  0.00  0.00    +0.021 C 
ATOM     30  C   UNL     1      34.541 -18.695 -23.810  0.00  0.00    -0.000 C 
ATOM     31  C   UNL     1      35.342 -16.980 -22.309  0.00  0.00    -0.000 C 
ATOM     32  C   UNL     1      34.033 -17.713 -24.660  0.00  0.00    +0.010 C 
ATOM     33  C   UNL     1      34.835 -15.998 -23.159  0.00  0.00    +0.010 C 
ATOM     34  C   UNL     1      34.181 -16.365 -24.335  0.00  0.00    +0.068 C 
BRANCH  34  36
ATOM     35  N   UNL     1      33.236 -14.541 -25.914  0.00  0.00    -0.191 NA
ATOM     36  C   UNL     1      33.659 -15.358 -25.207  0.00  0.00    +0.100 C 
ENDBRANCH  34  36
ENDBRANCH  28  29
ENDBRANCH  27  28
ENDBRANCH   9  27
TORSDOF 13
ENDMDL
MODEL 7
REMARK VINA RESULT:     -11.6      1.749      3.391
REMARK  Name = 24755471
REMARK  13 active torsions:
REMARK  status: ('A' for Active; 'I' for Inactive)
REMARK    1  A    between atoms: C_1  and  S_11
REMARK    2  A    between atoms: C_9  and  O_27
REMARK    3  A    between atoms: S_11  and  N_14
REMARK    4  A    between atoms: N_14  and  C_16
REMARK    5  A    between atoms: C_16  and  C_18
REMARK    6  A    between atoms: C_16  and  C_21
REMARK    7  A    between atoms: C_18  and  O_19
REMARK    8  A    between atoms: C_21  and  C_22
REMARK    9  A    between atoms: C_22  and  C_24
REMARK   10  A    between atoms: C_24  and  O_25
REMARK   11  A    between atoms: O_27  and  C_28
REMARK   12  A    between atoms: C_28  and  C_29
REMARK   13  A    between atoms: C_34  and  C_36
REMARK                            x       y       z     vdW  Elec       q    Type
REMARK                         _______ _______ _______ _____ _____    ______ ____
ROOT
ATOM      1  C   UNL     1      35.843 -22.760 -16.684  0.00  0.00    +0.122 C 
ATOM      2  C   UNL     1      36.041 -21.402 -18.693  0.00  0.00    +0.002 C 
ATOM      3  C   UNL     1      36.605 -21.955 -17.533  0.00  0.00    +0.020 C 
ATOM      4  C   UNL     1      34.685 -21.668 -18.999  0.00  0.00    +0.003 C 
ATOM      5  C   UNL     1      34.510 -23.022 -16.985  0.00  0.00    +0.020 C 
ATOM      6  C   UNL     1      33.933 -22.481 -18.134  0.00  0.00    +0.001 C 
ATOM      7  C   UNL     1      34.121 -21.115 -20.160  0.00  0.00    +0.037 C 
ATOM      8  C   UNL     1      36.793 -20.588 -19.558  0.00  0.00    +0.003 C 
ATOM      9  C   UNL     1      34.883 -20.310 -21.007  0.00  0.00    +0.139 C 
ATOM     10  C   UNL     1      36.216 -20.047 -20.707  0.00  0.00    +0.037 C 
ENDROOT
BRANCH   1  11
ATOM     11  S   UNL     1      36.572 -23.447 -15.228  0.00  0.00    +0.061 S 
ATOM     12  O   UNL     1      38.009 -23.280 -15.327  0.00  0.00    -0.153 OA
ATOM     13  O   UNL     1      35.850 -22.900 -14.096  0.00  0.00    -0.153 OA
BRANCH  11  14
ATOM     14  N   UNL     1      36.183 -25.095 -15.386  0.00  0.00    -0.170 NA
ATOM     15  H   UNL     1      36.671 -25.434 -16.214  0.00  0.00    +0.149 HD
BRANCH  14  16
ATOM     16  C   UNL     1      36.497 -26.035 -14.288  0.00  0.00    +0.174 C 
BRANCH  16  18
ATOM     17  O   UNL     1      38.293 -27.673 -14.373  0.00  0.00    -0.249 OA
ATOM     18  C   UNL     1      37.285 -27.185 -14.869  0.00  0.00    +0.330 C 
BRANCH  18  19
ATOM     19  O   UNL     1      36.736 -27.653 -16.020  0.00  0.00    -0.479 OA
ATOM     20  H   UNL     1      36.284 -28.473 -16.024  0.00  0.00    +0.295 HD
ENDBRANCH  18  19
ENDBRANCH  16  18
BRANCH  16  21
ATOM     21  C   UNL     1      37.193 -25.301 -13.137  0.00  0.00    +0.040 C 
BRANCH  21  22
ATOM     22  C   UNL     1      36.632 -25.547 -11.733  0.00  0.00    +0.111 C 
BRANCH  22  24
ATOM     23  O   UNL     1      36.811 -23.726 -10.157  0.00  0.00    -0.250 OA
ATOM     24  C   UNL     1      36.171 -24.295 -11.032  0.00  0.00    +0.314 C 
BRANCH  24  25
ATOM     25  O   UNL     1      34.956 -23.870 -11.461  0.00  0.00    -0.480 OA
ATOM     26  H   UNL     1      34.846 -22.987 -11.754  0.00  0.00    +0.295 HD
ENDBRANCH  24  25
ENDBRANCH  22  24
ENDBRANCH  21  22
ENDBRANCH  16  21
ENDBRANCH  14  16
ENDBRANCH  11  14
ENDBRANCH   1  11
BRANCH   9  27
ATOM     27  O   UNL     1      34.322 -19.782 -22.130  0.00  0.00    -0.471 OA
BRANCH  27  28
ATOM     28  C   UNL     1      35.207 -19.206 -23.089  0.00  0.00    +0.232 C 
BRANCH  28  29
ATOM     29  C   UNL     1      34.897 -17.745 -23.227  0.00  0.00    +0.021 C 
ATOM     30  C   UNL     1      35.129 -16.879 -22.159  0.00  0.00    -0.000 C 
ATOM     31  C   UNL     1      34.373 -17.253 -24.423  0.00  0.00    -0.000 C 
ATOM     32  C   UNL     1      34.840 -15.521 -22.287  0.00  0.00    +0.010 C 
ATOM     33  C   UNL     1      34.084 -15.895 -24.551  0.00  0.00    +0.010 C 
ATOM     34  C   UNL     1      34.317 -15.029 -23.483  0.00  0.00    +0.068 C 
BRANCH  34  36
ATOM     35  N   UNL     1      33.782 -12.506 -23.721  0.00  0.00    -0.191 NA
ATOM     36  C   UNL     1      34.021 -13.636 -23.614  0.00  0.00    +0.100 C 
ENDBRANCH  34  36
ENDBRANCH  28  29
ENDBRANCH  27  28
ENDBRANCH   9  27
TORSDOF 13
ENDMDL
MODEL 8
REMARK VINA RESULT:     -11.6      3.083      5.116
REMARK  Name = 24755471
REMARK  13 active torsions:
REMARK  status: ('A' for Active; 'I' for Inactive)
REMARK    1  A    between atoms: C_1  and  S_11
REMARK    2  A    between atoms: C_9  and  O_27
REMARK    3  A    between atoms: S_11  and  N_14
REMARK    4  A    between atoms: N_14  and  C_16
REMARK    5  A    between atoms: C_16  and  C_18
REMARK    6  A    between atoms: C_16  and  C_21
REMARK    7  A    between atoms: C_18  and  O_19
REMARK    8  A    between atoms: C_21  and  C_22
REMARK    9  A    between atoms: C_22  and  C_24
REMARK   10  A    between atoms: C_24  and  O_25
REMARK   11  A    between atoms: O_27  and  C_28
REMARK   12  A    between atoms: C_28  and  C_29
REMARK   13  A    between atoms: C_34  and  C_36
REMARK                            x       y       z     vdW  Elec       q    Type
REMARK                         _______ _______ _______ _____ _____    ______ ____
ROOT
ATOM      1  C   UNL     1      34.686 -22.977 -16.818  0.00  0.00    +0.122 C 
ATOM      2  C   UNL     1      35.367 -21.615 -18.716  0.00  0.00    +0.002 C 
ATOM      3  C   UNL     1      35.675 -22.290 -17.523  0.00  0.00    +0.020 C 
ATOM      4  C   UNL     1      34.038 -21.637 -19.200  0.00  0.00    +0.003 C 
ATOM      5  C   UNL     1      33.379 -22.997 -17.294  0.00  0.00    +0.020 C 
ATOM      6  C   UNL     1      33.055 -22.333 -18.477  0.00  0.00    +0.001 C 
ATOM      7  C   UNL     1      33.730 -20.962 -20.393  0.00  0.00    +0.037 C 
ATOM      8  C   UNL     1      36.351 -20.919 -19.439  0.00  0.00    +0.003 C 
ATOM      9  C   UNL     1      34.719 -20.276 -21.098  0.00  0.00    +0.139 C 
ATOM     10  C   UNL     1      36.027 -20.254 -20.622  0.00  0.00    +0.037 C 
ENDROOT
BRANCH   1  11
ATOM     11  S   UNL     1      35.095 -23.820 -15.318  0.00  0.00    +0.061 S 
ATOM     12  O   UNL     1      34.974 -25.244 -15.560  0.00  0.00    -0.153 OA
ATOM     13  O   UNL     1      36.348 -23.262 -14.849  0.00  0.00    -0.153 OA
BRANCH  11  14
ATOM     14  N   UNL     1      33.845 -23.315 -14.282  0.00  0.00    -0.170 NA
ATOM     15  H   UNL     1      33.668 -22.333 -14.492  0.00  0.00    +0.149 HD
BRANCH  14  16
ATOM     16  C   UNL     1      32.536 -24.003 -14.315  0.00  0.00    +0.174 C 
BRANCH  16  18
ATOM     17  O   UNL     1      31.461 -25.476 -12.705  0.00  0.00    -0.249 OA
ATOM     18  C   UNL     1      32.480 -24.957 -13.146  0.00  0.00    +0.330 C 
BRANCH  18  19
ATOM     19  O   UNL     1      33.710 -25.205 -12.628  0.00  0.00    -0.479 OA
ATOM     20  H   UNL     1      34.252 -25.870 -13.004  0.00  0.00    +0.295 HD
ENDBRANCH  18  19
ENDBRANCH  16  18
BRANCH  16  21
ATOM     21  C   UNL     1      31.395 -22.980 -14.359  0.00  0.00    +0.040 C 
BRANCH  21  22
ATOM     22  C   UNL     1      29.980 -23.544 -14.523  0.00  0.00    +0.111 C 
BRANCH  22  24
ATOM     23  O   UNL     1      28.013 -22.423 -15.363  0.00  0.00    -0.250 OA
ATOM     24  C   UNL     1      29.152 -22.825 -15.558  0.00  0.00    +0.314 C 
BRANCH  24  25
ATOM     25  O   UNL     1      29.800 -22.684 -16.742  0.00  0.00    -0.480 OA
ATOM     26  H   UNL     1      30.708 -22.903 -16.808  0.00  0.00    +0.295 HD
ENDBRANCH  24  25
ENDBRANCH  22  24
ENDBRANCH  21  22
ENDBRANCH  16  21
ENDBRANCH  14  16
ENDBRANCH  11  14
ENDBRANCH   1  11
BRANCH   9  27
ATOM     27  O   UNL     1      34.405 -19.628 -22.253  0.00  0.00    -0.471 OA
BRANCH  27  28
ATOM     28  C   UNL     1      35.452 -18.903 -22.896  0.00  0.00    +0.232 C 
BRANCH  28  29
ATOM     29  C   UNL     1      35.020 -17.478 -23.080  0.00  0.00    +0.021 C 
ATOM     30  C   UNL     1      35.061 -16.593 -22.003  0.00  0.00    -0.000 C 
ATOM     31  C   UNL     1      34.577 -17.039 -24.327  0.00  0.00    -0.000 C 
ATOM     32  C   UNL     1      34.659 -15.269 -22.173  0.00  0.00    +0.010 C 
ATOM     33  C   UNL     1      34.175 -15.715 -24.498  0.00  0.00    +0.010 C 
ATOM     34  C   UNL     1      34.215 -14.830 -23.421  0.00  0.00    +0.068 C 
BRANCH  34  36
ATOM     35  N   UNL     1      33.470 -12.369 -23.737  0.00  0.00    -0.191 NA
ATOM     36  C   UNL     1      33.804 -13.472 -23.595  0.00  0.00    +0.100 C 
ENDBRANCH  34  36
ENDBRANCH  28  29
ENDBRANCH  27  28
ENDBRANCH   9  27
TORSDOF 13
ENDMDL
MODEL 9
REMARK VINA RESULT:     -11.5      3.464      5.390
REMARK  Name = 24755471
REMARK  13 active torsions:
REMARK  status: ('A' for Active; 'I' for Inactive)
REMARK    1  A    between atoms: C_1  and  S_11
REMARK    2  A    between atoms: C_9  and  O_27
REMARK    3  A    between atoms: S_11  and  N_14
REMARK    4  A    between atoms: N_14  and  C_16
REMARK    5  A    between atoms: C_16  and  C_18
REMARK    6  A    between atoms: C_16  and  C_21
REMARK    7  A    between atoms: C_18  and  O_19
REMARK    8  A    between atoms: C_21  and  C_22
REMARK    9  A    between atoms: C_22  and  C_24
REMARK   10  A    between atoms: C_24  and  O_25
REMARK   11  A    between atoms: O_27  and  C_28
REMARK   12  A    between atoms: C_28  and  C_29
REMARK   13  A    between atoms: C_34  and  C_36
REMARK                            x       y       z     vdW  Elec       q    Type
REMARK                         _______ _______ _______ _____ _____    ______ ____
ROOT
ATOM      1  C   UNL     1      33.781 -22.141 -18.737  0.00  0.00    +0.122 C 
ATOM      2  C   UNL     1      35.309 -20.700 -19.965  0.00  0.00    +0.002 C 
ATOM      3  C   UNL     1      35.079 -21.716 -19.024  0.00  0.00    +0.020 C 
ATOM      4  C   UNL     1      34.207 -20.106 -20.626  0.00  0.00    +0.003 C 
ATOM      5  C   UNL     1      32.698 -21.557 -19.386  0.00  0.00    +0.020 C 
ATOM      6  C   UNL     1      32.907 -20.546 -20.325  0.00  0.00    +0.001 C 
ATOM      7  C   UNL     1      34.436 -19.090 -21.568  0.00  0.00    +0.037 C 
ATOM      8  C   UNL     1      36.609 -20.259 -20.266  0.00  0.00    +0.003 C 
ATOM      9  C   UNL     1      35.734 -18.666 -21.854  0.00  0.00    +0.139 C 
ATOM     10  C   UNL     1      36.818 -19.249 -21.205  0.00  0.00    +0.037 C 
ENDROOT
BRANCH   1  11
ATOM     11  S   UNL     1      33.514 -23.422 -17.548  0.00  0.00    +0.061 S 
ATOM     12  O   UNL     1      33.657 -24.696 -18.225  0.00  0.00    -0.153 OA
ATOM     13  O   UNL     1      34.340 -23.109 -16.398  0.00  0.00    -0.153 OA
BRANCH  11  14
ATOM     14  N   UNL     1      31.882 -23.181 -17.136  0.00  0.00    -0.170 NA
ATOM     15  H   UNL     1      31.356 -23.946 -17.558  0.00  0.00    +0.149 HD
BRANCH  14  16
ATOM     16  C   UNL     1      31.482 -23.119 -15.713  0.00  0.00    +0.174 C 
BRANCH  16  18
ATOM     17  O   UNL     1      29.296 -23.294 -14.661  0.00  0.00    -0.249 OA
ATOM     18  C   UNL     1      29.974 -23.059 -15.653  0.00  0.00    +0.330 C 
BRANCH  18  19
ATOM     19  O   UNL     1      29.429 -22.686 -16.840  0.00  0.00    -0.479 OA
ATOM     20  H   UNL     1      29.209 -21.789 -16.994  0.00  0.00    +0.295 HD
ENDBRANCH  18  19
ENDBRANCH  16  18
BRANCH  16  21
ATOM     21  C   UNL     1      32.105 -24.282 -14.931  0.00  0.00    +0.040 C 
BRANCH  21  22
ATOM     22  C   UNL     1      32.538 -23.981 -13.493  0.00  0.00    +0.111 C 
BRANCH  22  24
ATOM     23  O   UNL     1      34.349 -24.529 -11.991  0.00  0.00    -0.250 OA
ATOM     24  C   UNL     1      33.853 -24.610 -13.108  0.00  0.00    +0.314 C 
BRANCH  24  25
ATOM     25  O   UNL     1      34.443 -25.267 -14.138  0.00  0.00    -0.480 OA
ATOM     26  H   UNL     1      34.095 -26.086 -14.432  0.00  0.00    +0.295 HD
ENDBRANCH  24  25
ENDBRANCH  22  24
ENDBRANCH  21  22
ENDBRANCH  16  21
ENDBRANCH  14  16
ENDBRANCH  11  14
ENDBRANCH   1  11
BRANCH   9  27
ATOM     27  O   UNL     1      35.940 -17.681 -22.771  0.00  0.00    -0.471 OA
BRANCH  27  28
ATOM     28  C   UNL     1      34.905 -17.455 -23.726  0.00  0.00    +0.232 C 
BRANCH  28  29
ATOM     29  C   UNL     1      34.454 -16.027 -23.632  0.00  0.00    +0.021 C 
ATOM     30  C   UNL     1      33.762 -15.443 -24.693  0.00  0.00    -0.000 C 
ATOM     31  C   UNL     1      34.729 -15.282 -22.485  0.00  0.00    -0.000 C 
ATOM     32  C   UNL     1      33.344 -14.116 -24.607  0.00  0.00    +0.010 C 
ATOM     33  C   UNL     1      34.311 -13.955 -22.398  0.00  0.00    +0.010 C 
ATOM     34  C   UNL     1      33.619 -13.371 -23.460  0.00  0.00    +0.068 C 
BRANCH  34  36
ATOM     35  N   UNL     1      32.841 -10.906 -23.300  0.00  0.00    -0.191 NA
ATOM     36  C   UNL     1      33.190 -12.011 -23.371  0.00  0.00    +0.100 C 
ENDBRANCH  34  36
ENDBRANCH  28  29
ENDBRANCH  27  28
ENDBRANCH   9  27
TORSDOF 13
ENDMDL
