MODEL 1
REMARK VINA RESULT:     -13.7      0.000      0.000
REMARK  Name = 25145656
REMARK  4 active torsions:
REMARK  status: ('A' for Active; 'I' for Inactive)
REMARK    1  A    between atoms: C_5  and  C_22
REMARK    2  A    between atoms: C_8  and  C_11
REMARK    3  A    between atoms: C_14  and  C_19
REMARK    4  A    between atoms: C_22  and  C_24
REMARK                            x       y       z     vdW  Elec       q    Type
REMARK                         _______ _______ _______ _____ _____    ______ ____
ROOT
ATOM      1  N   UNL     1      34.672 -17.394 -22.831  0.00  0.00    -0.134 N 
ATOM      2  N   UNL     1      34.683 -18.135 -21.701  0.00  0.00    -0.168 NA
ATOM      3  N   UNL     1      34.580 -16.870 -24.984  0.00  0.00    -0.178 NA
ATOM      4  N   UNL     1      34.497 -19.205 -24.353  0.00  0.00    -0.200 NA
ATOM      5  C   UNL     1      34.747 -16.029 -22.893  0.00  0.00    +0.086 C 
ATOM      6  C   UNL     1      34.573 -17.871 -24.123  0.00  0.00    +0.114 C 
ATOM      7  C   UNL     1      34.688 -15.730 -24.231  0.00  0.00    +0.124 C 
ATOM      8  C   UNL     1      34.588 -19.415 -21.899  0.00  0.00    +0.103 C 
ATOM      9  C   UNL     1      34.509 -19.961 -23.304  0.00  0.00    +0.184 C 
ENDROOT
BRANCH   8  11
ATOM     10  F   UNL     1      36.902 -22.116 -18.597  0.00  0.00    -0.204 F 
ATOM     11  C   UNL     1      34.566 -20.348 -20.748  0.00  0.00    +0.019 C 
ATOM     12  C   UNL     1      35.764 -20.805 -20.200  0.00  0.00    +0.031 C 
ATOM     13  C   UNL     1      33.348 -20.767 -20.213  0.00  0.00    +0.002 C 
ATOM     14  C   UNL     1      34.527 -22.103 -18.581  0.00  0.00    +0.081 C 
ATOM     15  C   UNL     1      35.744 -21.683 -19.117  0.00  0.00    +0.144 C 
ATOM     16  C   UNL     1      33.329 -21.645 -19.129  0.00  0.00    +0.007 C 
BRANCH  14  19
ATOM     17  O   UNL     1      33.759 -24.015 -17.460  0.00  0.00    -0.270 OA
ATOM     18  N   UNL     1      35.359 -22.730 -16.382  0.00  0.00    -0.299 N 
ATOM     19  C   UNL     1      34.502 -23.017 -17.450  0.00  0.00    +0.248 C 
ATOM     20  C   UNL     1      35.467 -23.554 -15.200  0.00  0.00    +0.111 C 
ATOM     21  H   UNL     1      35.920 -21.923 -16.438  0.00  0.00    +0.150 HD
ENDBRANCH  14  19
ENDBRANCH   8  11
BRANCH   5  22
ATOM     22  C   UNL     1      34.867 -15.143 -21.670  0.00  0.00    +0.068 C 
BRANCH  22  24
ATOM     23  N   UNL     1      30.909 -11.112 -21.343  0.00  0.00    -0.248 NA
ATOM     24  C   UNL     1      33.828 -14.076 -21.592  0.00  0.00    -0.038 C 
ATOM     25  C   UNL     1      33.860 -13.001 -22.476  0.00  0.00    +0.050 C 
ATOM     26  C   UNL     1      32.884 -11.994 -22.406  0.00  0.00    -0.004 C 
ATOM     27  C   UNL     1      32.822 -14.147 -20.636  0.00  0.00    -0.028 C 
ATOM     28  C   UNL     1      31.859 -12.060 -21.438  0.00  0.00    +0.060 C 
ATOM     29  C   UNL     1      31.851 -13.146 -20.567  0.00  0.00    +0.071 C 
ATOM     30  C   UNL     1      32.892 -10.902 -23.284  0.00  0.00    -0.001 C 
ATOM     31  C   UNL     1      31.913  -9.922 -23.188  0.00  0.00    +0.020 C 
ATOM     32  C   UNL     1      30.952 -10.073 -22.210  0.00  0.00    +0.098 C 
ENDBRANCH  22  24
ENDBRANCH   5  22
TORSDOF 4
ENDMDL
MODEL 2
REMARK VINA RESULT:     -13.5      0.833      1.202
REMARK  Name = 25145656
REMARK  4 active torsions:
REMARK  status: ('A' for Active; 'I' for Inactive)
REMARK    1  A    between atoms: C_5  and  C_22
REMARK    2  A    between atoms: C_8  and  C_11
REMARK    3  A    between atoms: C_14  and  C_19
REMARK    4  A    between atoms: C_22  and  C_24
REMARK                            x       y       z     vdW  Elec       q    Type
REMARK                         _______ _______ _______ _____ _____    ______ ____
ROOT
ATOM      1  N   UNL     1      34.672 -17.393 -22.959  0.00  0.00    -0.134 N 
ATOM      2  N   UNL     1      34.775 -18.104 -21.815  0.00  0.00    -0.168 NA
ATOM      3  N   UNL     1      34.413 -16.926 -25.113  0.00  0.00    -0.178 NA
ATOM      4  N   UNL     1      34.404 -19.245 -24.418  0.00  0.00    -0.200 NA
ATOM      5  C   UNL     1      34.727 -16.029 -23.062  0.00  0.00    +0.086 C 
ATOM      6  C   UNL     1      34.482 -17.905 -24.228  0.00  0.00    +0.114 C 
ATOM      7  C   UNL     1      34.565 -15.766 -24.399  0.00  0.00    +0.124 C 
ATOM      8  C   UNL     1      34.680 -19.390 -21.973  0.00  0.00    +0.103 C 
ATOM      9  C   UNL     1      34.503 -19.973 -23.354  0.00  0.00    +0.184 C 
ENDROOT
BRANCH   8  11
ATOM     10  F   UNL     1      32.524 -21.948 -18.458  0.00  0.00    -0.204 F 
ATOM     11  C   UNL     1      34.755 -20.292 -20.800  0.00  0.00    +0.019 C 
ATOM     12  C   UNL     1      33.585 -20.706 -20.165  0.00  0.00    +0.031 C 
ATOM     13  C   UNL     1      35.995 -20.726 -20.332  0.00  0.00    +0.002 C 
ATOM     14  C   UNL     1      34.895 -21.990 -18.592  0.00  0.00    +0.081 C 
ATOM     15  C   UNL     1      33.655 -21.556 -19.061  0.00  0.00    +0.144 C 
ATOM     16  C   UNL     1      36.065 -21.575 -19.228  0.00  0.00    +0.007 C 
BRANCH  14  19
ATOM     17  O   UNL     1      34.224 -23.865 -17.354  0.00  0.00    -0.270 OA
ATOM     18  N   UNL     1      35.934 -22.573 -16.471  0.00  0.00    -0.299 N 
ATOM     19  C   UNL     1      34.973 -22.876 -17.442  0.00  0.00    +0.248 C 
ATOM     20  C   UNL     1      36.150 -23.370 -15.284  0.00  0.00    +0.111 C 
ATOM     21  H   UNL     1      36.494 -21.775 -16.602  0.00  0.00    +0.150 HD
ENDBRANCH  14  19
ENDBRANCH   8  11
BRANCH   5  22
ATOM     22  C   UNL     1      34.929 -15.110 -21.874  0.00  0.00    +0.068 C 
BRANCH  22  24
ATOM     23  N   UNL     1      30.926 -11.148 -21.321  0.00  0.00    -0.248 NA
ATOM     24  C   UNL     1      33.878 -14.061 -21.736  0.00  0.00    -0.038 C 
ATOM     25  C   UNL     1      33.869 -12.963 -22.591  0.00  0.00    +0.050 C 
ATOM     26  C   UNL     1      32.881 -11.972 -22.465  0.00  0.00    -0.004 C 
ATOM     27  C   UNL     1      32.902 -14.173 -20.754  0.00  0.00    -0.028 C 
ATOM     28  C   UNL     1      31.886 -12.079 -21.469  0.00  0.00    +0.060 C 
ATOM     29  C   UNL     1      31.920 -13.188 -20.628  0.00  0.00    +0.071 C 
ATOM     30  C   UNL     1      32.847 -10.857 -23.313  0.00  0.00    -0.001 C 
ATOM     31  C   UNL     1      31.858  -9.895 -23.161  0.00  0.00    +0.020 C 
ATOM     32  C   UNL     1      30.929 -10.086 -22.160  0.00  0.00    +0.098 C 
ENDBRANCH  22  24
ENDBRANCH   5  22
TORSDOF 4
ENDMDL
MODEL 3
REMARK VINA RESULT:     -13.3      4.148      9.843
REMARK  Name = 25145656
REMARK  4 active torsions:
REMARK  status: ('A' for Active; 'I' for Inactive)
REMARK    1  A    between atoms: C_5  and  C_22
REMARK    2  A    between atoms: C_8  and  C_11
REMARK    3  A    between atoms: C_14  and  C_19
REMARK    4  A    between atoms: C_22  and  C_24
REMARK                            x       y       z     vdW  Elec       q    Type
REMARK                         _______ _______ _______ _____ _____    ______ ____
ROOT
ATOM      1  N   UNL     1      34.284 -16.016 -23.569  0.00  0.00    -0.134 N 
ATOM      2  N   UNL     1      34.004 -14.844 -22.957  0.00  0.00    -0.168 NA
ATOM      3  N   UNL     1      34.433 -17.562 -25.152  0.00  0.00    -0.178 NA
ATOM      4  N   UNL     1      33.391 -15.445 -25.691  0.00  0.00    -0.200 NA
ATOM      5  C   UNL     1      34.897 -17.094 -22.991  0.00  0.00    +0.086 C 
ATOM      6  C   UNL     1      34.014 -16.338 -24.884  0.00  0.00    +0.114 C 
ATOM      7  C   UNL     1      34.978 -18.034 -23.987  0.00  0.00    +0.124 C 
ATOM      8  C   UNL     1      33.427 -13.966 -23.721  0.00  0.00    +0.103 C 
ATOM      9  C   UNL     1      33.096 -14.307 -25.153  0.00  0.00    +0.184 C 
ENDROOT
BRANCH   8  11
ATOM     10  F   UNL     1      30.857 -11.136 -20.731  0.00  0.00    -0.204 F 
ATOM     11  C   UNL     1      33.082 -12.627 -23.188  0.00  0.00    +0.019 C 
ATOM     12  C   UNL     1      32.114 -12.503 -22.192  0.00  0.00    +0.031 C 
ATOM     13  C   UNL     1      33.725 -11.492 -23.682  0.00  0.00    +0.002 C 
ATOM     14  C   UNL     1      32.431 -10.108 -22.183  0.00  0.00    +0.081 C 
ATOM     15  C   UNL     1      31.789 -11.244 -21.689  0.00  0.00    +0.144 C 
ATOM     16  C   UNL     1      33.399 -10.233 -23.179  0.00  0.00    +0.007 C 
BRANCH  14  19
ATOM     17  O   UNL     1      31.144  -8.148 -22.136  0.00  0.00    -0.270 OA
ATOM     18  N   UNL     1      32.872  -8.314 -20.600  0.00  0.00    -0.299 N 
ATOM     19  C   UNL     1      32.096  -8.793 -21.661  0.00  0.00    +0.248 C 
ATOM     20  C   UNL     1      32.649  -7.038 -19.958  0.00  0.00    +0.111 C 
ATOM     21  H   UNL     1      33.611  -8.876 -20.272  0.00  0.00    +0.150 HD
ENDBRANCH  14  19
ENDBRANCH   8  11
BRANCH   5  22
ATOM     22  C   UNL     1      35.347 -17.122 -21.544  0.00  0.00    +0.068 C 
BRANCH  22  24
ATOM     23  N   UNL     1      35.650 -22.318 -19.323  0.00  0.00    -0.248 NA
ATOM     24  C   UNL     1      35.417 -18.491 -20.958  0.00  0.00    -0.038 C 
ATOM     25  C   UNL     1      34.248 -19.176 -20.637  0.00  0.00    +0.050 C 
ATOM     26  C   UNL     1      34.309 -20.466 -20.085  0.00  0.00    -0.004 C 
ATOM     27  C   UNL     1      36.648 -19.093 -20.730  0.00  0.00    -0.028 C 
ATOM     28  C   UNL     1      35.556 -21.083 -19.850  0.00  0.00    +0.060 C 
ATOM     29  C   UNL     1      36.709 -20.376 -20.182  0.00  0.00    +0.071 C 
ATOM     30  C   UNL     1      33.149 -21.178 -19.753  0.00  0.00    -0.001 C 
ATOM     31  C   UNL     1      33.243 -22.452 -19.209  0.00  0.00    +0.020 C 
ATOM     32  C   UNL     1      34.506 -22.971 -19.016  0.00  0.00    +0.098 C 
ENDBRANCH  22  24
ENDBRANCH   5  22
TORSDOF 4
ENDMDL
MODEL 4
REMARK VINA RESULT:     -12.2      6.820     12.468
REMARK  Name = 25145656
REMARK  4 active torsions:
REMARK  status: ('A' for Active; 'I' for Inactive)
REMARK    1  A    between atoms: C_5  and  C_22
REMARK    2  A    between atoms: C_8  and  C_11
REMARK    3  A    between atoms: C_14  and  C_19
REMARK    4  A    between atoms: C_22  and  C_24
REMARK                            x       y       z     vdW  Elec       q    Type
REMARK                         _______ _______ _______ _____ _____    ______ ____
ROOT
ATOM      1  N   UNL     1      32.006  -9.257 -20.556  0.00  0.00    -0.134 N 
ATOM      2  N   UNL     1      32.459  -8.813 -21.749  0.00  0.00    -0.168 NA
ATOM      3  N   UNL     1      31.560  -9.323 -18.384  0.00  0.00    -0.178 NA
ATOM      4  N   UNL     1      32.772  -7.421 -19.263  0.00  0.00    -0.200 NA
ATOM      5  C   UNL     1      31.333 -10.429 -20.341  0.00  0.00    +0.086 C 
ATOM      6  C   UNL     1      32.128  -8.611 -19.341  0.00  0.00    +0.114 C 
ATOM      7  C   UNL     1      31.069 -10.446 -18.995  0.00  0.00    +0.124 C 
ATOM      8  C   UNL     1      33.059  -7.662 -21.699  0.00  0.00    +0.103 C 
ATOM      9  C   UNL     1      33.231  -6.953 -20.377  0.00  0.00    +0.184 C 
ENDROOT
BRANCH   8  11
ATOM     10  F   UNL     1      32.372  -5.235 -25.845  0.00  0.00    -0.204 F 
ATOM     11  C   UNL     1      33.589  -7.044 -22.937  0.00  0.00    +0.019 C 
ATOM     12  C   UNL     1      32.719  -6.417 -23.829  0.00  0.00    +0.031 C 
ATOM     13  C   UNL     1      34.956  -7.088 -23.209  0.00  0.00    +0.002 C 
ATOM     14  C   UNL     1      34.584  -5.880 -25.268  0.00  0.00    +0.081 C 
ATOM     15  C   UNL     1      33.217  -5.835 -24.994  0.00  0.00    +0.144 C 
ATOM     16  C   UNL     1      35.453  -6.506 -24.375  0.00  0.00    +0.007 C 
BRANCH  14  19
ATOM     17  O   UNL     1      35.290  -4.044 -26.546  0.00  0.00    -0.270 OA
ATOM     18  N   UNL     1      35.412  -6.135 -27.542  0.00  0.00    -0.299 N 
ATOM     19  C   UNL     1      35.108  -5.273 -26.481  0.00  0.00    +0.248 C 
ATOM     20  C   UNL     1      35.961  -5.688 -28.802  0.00  0.00    +0.111 C 
ATOM     21  H   UNL     1      35.243  -7.097 -27.424  0.00  0.00    +0.150 HD
ENDBRANCH  14  19
ENDBRANCH   8  11
BRANCH   5  22
ATOM     22  C   UNL     1      31.006 -11.418 -21.442  0.00  0.00    +0.068 C 
BRANCH  22  24
ATOM     23  N   UNL     1      34.670 -15.716 -21.788  0.00  0.00    -0.248 NA
ATOM     24  C   UNL     1      31.971 -12.550 -21.544  0.00  0.00    -0.038 C 
ATOM     25  C   UNL     1      32.338 -13.048 -22.790  0.00  0.00    +0.050 C 
ATOM     26  C   UNL     1      33.246 -14.115 -22.890  0.00  0.00    -0.004 C 
ATOM     27  C   UNL     1      32.510 -13.115 -20.394  0.00  0.00    -0.028 C 
ATOM     28  C   UNL     1      33.798 -14.694 -21.727  0.00  0.00    +0.060 C 
ATOM     29  C   UNL     1      33.414 -14.175 -20.494  0.00  0.00    +0.071 C 
ATOM     30  C   UNL     1      33.634 -14.635 -24.133  0.00  0.00    -0.001 C 
ATOM     31  C   UNL     1      34.533 -15.690 -24.198  0.00  0.00    +0.020 C 
ATOM     32  C   UNL     1      35.018 -16.190 -23.007  0.00  0.00    +0.098 C 
ENDBRANCH  22  24
ENDBRANCH   5  22
TORSDOF 4
ENDMDL
MODEL 5
REMARK VINA RESULT:     -11.9      6.496     12.399
REMARK  Name = 25145656
REMARK  4 active torsions:
REMARK  status: ('A' for Active; 'I' for Inactive)
REMARK    1  A    between atoms: C_5  and  C_22
REMARK    2  A    between atoms: C_8  and  C_11
REMARK    3  A    between atoms: C_14  and  C_19
REMARK    4  A    between atoms: C_22  and  C_24
REMARK                            x       y       z     vdW  Elec       q    Type
REMARK                         _______ _______ _______ _____ _____    ______ ____
ROOT
ATOM      1  N   UNL     1      32.030  -9.292 -20.532  0.00  0.00    -0.134 N 
ATOM      2  N   UNL     1      32.281  -8.912 -21.804  0.00  0.00    -0.168 NA
ATOM      3  N   UNL     1      31.952  -9.248 -18.315  0.00  0.00    -0.178 NA
ATOM      4  N   UNL     1      33.019  -7.412 -19.476  0.00  0.00    -0.200 NA
ATOM      5  C   UNL     1      31.390 -10.440 -20.151  0.00  0.00    +0.086 C 
ATOM      6  C   UNL     1      32.359  -8.592 -19.388  0.00  0.00    +0.114 C 
ATOM      7  C   UNL     1      31.354 -10.390 -18.780  0.00  0.00    +0.124 C 
ATOM      8  C   UNL     1      32.893  -7.771 -21.911  0.00  0.00    +0.103 C 
ATOM      9  C   UNL     1      33.289  -7.004 -20.673  0.00  0.00    +0.184 C 
ENDROOT
BRANCH   8  11
ATOM     10  F   UNL     1      36.017  -5.708 -24.999  0.00  0.00    -0.204 F 
ATOM     11  C   UNL     1      33.215  -7.221 -23.248  0.00  0.00    +0.019 C 
ATOM     12  C   UNL     1      34.487  -6.712 -23.504  0.00  0.00    +0.031 C 
ATOM     13  C   UNL     1      32.245  -7.213 -24.251  0.00  0.00    +0.002 C 
ATOM     14  C   UNL     1      33.821  -6.185 -25.767  0.00  0.00    +0.081 C 
ATOM     15  C   UNL     1      34.790  -6.194 -24.764  0.00  0.00    +0.144 C 
ATOM     16  C   UNL     1      32.548  -6.695 -25.510  0.00  0.00    +0.007 C 
BRANCH  14  19
ATOM     17  O   UNL     1      34.119  -4.420 -27.281  0.00  0.00    -0.270 OA
ATOM     18  N   UNL     1      34.466  -6.569 -28.081  0.00  0.00    -0.299 N 
ATOM     19  C   UNL     1      34.133  -5.648 -27.081  0.00  0.00    +0.248 C 
ATOM     20  C   UNL     1      34.823  -6.190 -29.429  0.00  0.00    +0.111 C 
ATOM     21  H   UNL     1      34.457  -7.527 -27.855  0.00  0.00    +0.150 HD
ENDBRANCH  14  19
ENDBRANCH   8  11
BRANCH   5  22
ATOM     22  C   UNL     1      30.875 -11.474 -21.133  0.00  0.00    +0.068 C 
BRANCH  22  24
ATOM     23  N   UNL     1      34.796 -15.170 -22.860  0.00  0.00    -0.248 NA
ATOM     24  C   UNL     1      31.908 -12.452 -21.579  0.00  0.00    -0.038 C 
ATOM     25  C   UNL     1      32.392 -13.411 -20.694  0.00  0.00    +0.050 C 
ATOM     26  C   UNL     1      33.365 -14.335 -21.110  0.00  0.00    -0.004 C 
ATOM     27  C   UNL     1      32.394 -12.412 -22.880  0.00  0.00    -0.028 C 
ATOM     28  C   UNL     1      33.864 -14.300 -22.430  0.00  0.00    +0.060 C 
ATOM     29  C   UNL     1      33.362 -13.330 -23.293  0.00  0.00    +0.071 C 
ATOM     30  C   UNL     1      33.869 -15.312 -20.241  0.00  0.00    -0.001 C 
ATOM     31  C   UNL     1      34.831 -16.210 -20.682  0.00  0.00    +0.020 C 
ATOM     32  C   UNL     1      35.257 -16.098 -21.989  0.00  0.00    +0.098 C 
ENDBRANCH  22  24
ENDBRANCH   5  22
TORSDOF 4
ENDMDL
MODEL 6
REMARK VINA RESULT:     -11.8      1.560      2.142
REMARK  Name = 25145656
REMARK  4 active torsions:
REMARK  status: ('A' for Active; 'I' for Inactive)
REMARK    1  A    between atoms: C_5  and  C_22
REMARK    2  A    between atoms: C_8  and  C_11
REMARK    3  A    between atoms: C_14  and  C_19
REMARK    4  A    between atoms: C_22  and  C_24
REMARK                            x       y       z     vdW  Elec       q    Type
REMARK                         _______ _______ _______ _____ _____    ______ ____
ROOT
ATOM      1  N   UNL     1      34.051 -15.862 -23.580  0.00  0.00    -0.134 N 
ATOM      2  N   UNL     1      34.353 -16.653 -22.528  0.00  0.00    -0.168 NA
ATOM      3  N   UNL     1      33.662 -15.219 -25.668  0.00  0.00    -0.178 NA
ATOM      4  N   UNL     1      34.298 -17.519 -25.260  0.00  0.00    -0.200 NA
ATOM      5  C   UNL     1      33.726 -14.533 -23.516  0.00  0.00    +0.086 C 
ATOM      6  C   UNL     1      34.003 -16.243 -24.907  0.00  0.00    +0.114 C 
ATOM      7  C   UNL     1      33.491 -14.160 -24.815  0.00  0.00    +0.124 C 
ATOM      8  C   UNL     1      34.616 -17.886 -22.844  0.00  0.00    +0.103 C 
ATOM      9  C   UNL     1      34.600 -18.318 -24.290  0.00  0.00    +0.184 C 
ENDROOT
BRANCH   8  11
ATOM     10  F   UNL     1      37.825 -20.012 -19.889  0.00  0.00    -0.204 F 
ATOM     11  C   UNL     1      34.944 -18.871 -21.788  0.00  0.00    +0.019 C 
ATOM     12  C   UNL     1      36.254 -18.984 -21.323  0.00  0.00    +0.031 C 
ATOM     13  C   UNL     1      33.942 -19.685 -21.258  0.00  0.00    +0.002 C 
ATOM     14  C   UNL     1      35.562 -20.726 -19.798  0.00  0.00    +0.081 C 
ATOM     15  C   UNL     1      36.562 -19.912 -20.328  0.00  0.00    +0.144 C 
ATOM     16  C   UNL     1      34.252 -20.612 -20.263  0.00  0.00    +0.007 C 
BRANCH  14  19
ATOM     17  O   UNL     1      35.423 -22.850 -18.813  0.00  0.00    -0.270 OA
ATOM     18  N   UNL     1      36.727 -21.267 -17.732  0.00  0.00    -0.299 N 
ATOM     19  C   UNL     1      35.879 -21.694 -18.760  0.00  0.00    +0.248 C 
ATOM     20  C   UNL     1      37.154 -22.117 -16.643  0.00  0.00    +0.111 C 
ATOM     21  H   UNL     1      37.052 -20.338 -17.751  0.00  0.00    +0.150 HD
ENDBRANCH  14  19
ENDBRANCH   8  11
BRANCH   5  22
ATOM     22  C   UNL     1      33.672 -13.750 -22.219  0.00  0.00    +0.068 C 
BRANCH  22  24
ATOM     23  N   UNL     1      30.832  -8.870 -22.596  0.00  0.00    -0.248 NA
ATOM     24  C   UNL     1      32.932 -12.460 -22.323  0.00  0.00    -0.038 C 
ATOM     25  C   UNL     1      33.538 -11.349 -22.903  0.00  0.00    +0.050 C 
ATOM     26  C   UNL     1      32.844 -10.132 -23.003  0.00  0.00    -0.004 C 
ATOM     27  C   UNL     1      31.633 -12.358 -21.841  0.00  0.00    -0.028 C 
ATOM     28  C   UNL     1      31.525 -10.021 -22.516  0.00  0.00    +0.060 C 
ATOM     29  C   UNL     1      30.943 -11.148 -21.940  0.00  0.00    +0.071 C 
ATOM     30  C   UNL     1      33.430  -8.999 -23.584  0.00  0.00    -0.001 C 
ATOM     31  C   UNL     1      32.718  -7.810 -23.667  0.00  0.00    +0.020 C 
ATOM     32  C   UNL     1      31.434  -7.799 -23.163  0.00  0.00    +0.098 C 
ENDBRANCH  22  24
ENDBRANCH   5  22
TORSDOF 4
ENDMDL
MODEL 7
REMARK VINA RESULT:     -11.7      5.933     12.320
REMARK  Name = 25145656
REMARK  4 active torsions:
REMARK  status: ('A' for Active; 'I' for Inactive)
REMARK    1  A    between atoms: C_5  and  C_22
REMARK    2  A    between atoms: C_8  and  C_11
REMARK    3  A    between atoms: C_14  and  C_19
REMARK    4  A    between atoms: C_22  and  C_24
REMARK                            x       y       z     vdW  Elec       q    Type
REMARK                         _______ _______ _______ _____ _____    ______ ____
ROOT
ATOM      1  N   UNL     1      32.603 -11.338 -22.470  0.00  0.00    -0.134 N 
ATOM      2  N   UNL     1      33.031 -10.306 -23.230  0.00  0.00    -0.168 NA
ATOM      3  N   UNL     1      31.539 -12.463 -20.881  0.00  0.00    -0.178 NA
ATOM      4  N   UNL     1      31.291 -10.056 -20.966  0.00  0.00    -0.200 NA
ATOM      5  C   UNL     1      32.927 -12.655 -22.654  0.00  0.00    +0.086 C 
ATOM      6  C   UNL     1      31.758 -11.259 -21.380  0.00  0.00    +0.114 C 
ATOM      7  C   UNL     1      32.258 -13.328 -21.662  0.00  0.00    +0.124 C 
ATOM      8  C   UNL     1      32.575  -9.146 -22.862  0.00  0.00    +0.103 C 
ATOM      9  C   UNL     1      31.674  -9.033 -21.656  0.00  0.00    +0.184 C 
ENDROOT
BRANCH   8  11
ATOM     10  F   UNL     1      35.908  -5.981 -24.419  0.00  0.00    -0.204 F 
ATOM     11  C   UNL     1      32.945  -7.927 -23.618  0.00  0.00    +0.019 C 
ATOM     12  C   UNL     1      34.276  -7.515 -23.667  0.00  0.00    +0.031 C 
ATOM     13  C   UNL     1      31.962  -7.193 -24.282  0.00  0.00    +0.002 C 
ATOM     14  C   UNL     1      33.643  -5.632 -25.042  0.00  0.00    +0.081 C 
ATOM     15  C   UNL     1      34.625  -6.368 -24.379  0.00  0.00    +0.144 C 
ATOM     16  C   UNL     1      32.311  -6.046 -24.994  0.00  0.00    +0.007 C 
BRANCH  14  19
ATOM     17  O   UNL     1      34.860  -4.485 -26.686  0.00  0.00    -0.270 OA
ATOM     18  N   UNL     1      33.325  -3.256 -25.458  0.00  0.00    -0.299 N 
ATOM     19  C   UNL     1      34.002  -4.436 -25.787  0.00  0.00    +0.248 C 
ATOM     20  C   UNL     1      33.552  -1.993 -26.122  0.00  0.00    +0.111 C 
ATOM     21  H   UNL     1      32.658  -3.288 -24.735  0.00  0.00    +0.150 HD
ENDBRANCH  14  19
ENDBRANCH   8  11
BRANCH   5  22
ATOM     22  C   UNL     1      33.843 -13.143 -23.758  0.00  0.00    +0.068 C 
BRANCH  22  24
ATOM     23  N   UNL     1      34.608 -18.750 -23.818  0.00  0.00    -0.248 NA
ATOM     24  C   UNL     1      34.049 -14.620 -23.765  0.00  0.00    -0.038 C 
ATOM     25  C   UNL     1      34.661 -15.247 -22.683  0.00  0.00    +0.050 C 
ATOM     26  C   UNL     1      34.857 -16.637 -22.685  0.00  0.00    -0.004 C 
ATOM     27  C   UNL     1      33.632 -15.380 -24.851  0.00  0.00    -0.028 C 
ATOM     28  C   UNL     1      34.436 -17.416 -23.784  0.00  0.00    +0.060 C 
ATOM     29  C   UNL     1      33.827 -16.763 -24.853  0.00  0.00    +0.071 C 
ATOM     30  C   UNL     1      35.469 -17.294 -21.609  0.00  0.00    -0.001 C 
ATOM     31  C   UNL     1      35.649 -18.670 -21.641  0.00  0.00    +0.020 C 
ATOM     32  C   UNL     1      35.204 -19.345 -22.759  0.00  0.00    +0.098 C 
ENDBRANCH  22  24
ENDBRANCH   5  22
TORSDOF 4
ENDMDL
MODEL 8
REMARK VINA RESULT:     -11.5      3.363      6.403
REMARK  Name = 25145656
REMARK  4 active torsions:
REMARK  status: ('A' for Active; 'I' for Inactive)
REMARK    1  A    between atoms: C_5  and  C_22
REMARK    2  A    between atoms: C_8  and  C_11
REMARK    3  A    between atoms: C_14  and  C_19
REMARK    4  A    between atoms: C_22  and  C_24
REMARK                            x       y       z     vdW  Elec       q    Type
REMARK                         _______ _______ _______ _____ _____    ______ ____
ROOT
ATOM      1  N   UNL     1      34.020 -21.766 -18.747  0.00  0.00    -0.134 N 
ATOM      2  N   UNL     1      35.089 -22.220 -18.056  0.00  0.00    -0.168 NA
ATOM      3  N   UNL     1      31.912 -21.416 -19.342  0.00  0.00    -0.178 NA
ATOM      4  N   UNL     1      32.360 -22.834 -17.432  0.00  0.00    -0.200 NA
ATOM      5  C   UNL     1      34.065 -20.950 -19.845  0.00  0.00    +0.086 C 
ATOM      6  C   UNL     1      32.693 -22.031 -18.472  0.00  0.00    +0.114 C 
ATOM      7  C   UNL     1      32.753 -20.748 -20.192  0.00  0.00    +0.124 C 
ATOM      8  C   UNL     1      34.789 -22.974 -17.042  0.00  0.00    +0.103 C 
ATOM      9  C   UNL     1      33.346 -23.301 -16.740  0.00  0.00    +0.184 C 
ENDROOT
BRANCH   8  11
ATOM     10  F   UNL     1      36.387 -26.276 -13.864  0.00  0.00    -0.204 F 
ATOM     11  C   UNL     1      35.861 -23.525 -16.181  0.00  0.00    +0.019 C 
ATOM     12  C   UNL     1      35.620 -24.662 -15.410  0.00  0.00    +0.031 C 
ATOM     13  C   UNL     1      37.111 -22.908 -16.143  0.00  0.00    +0.002 C 
ATOM     14  C   UNL     1      37.880 -24.565 -14.561  0.00  0.00    +0.081 C 
ATOM     15  C   UNL     1      36.630 -25.182 -14.601  0.00  0.00    +0.144 C 
ATOM     16  C   UNL     1      38.120 -23.428 -15.332  0.00  0.00    +0.007 C 
BRANCH  14  19
ATOM     17  O   UNL     1      39.042 -24.746 -12.532  0.00  0.00    -0.270 OA
ATOM     18  N   UNL     1      39.792 -26.046 -14.299  0.00  0.00    -0.299 N 
ATOM     19  C   UNL     1      38.936 -25.104 -13.719  0.00  0.00    +0.248 C 
ATOM     20  C   UNL     1      40.873 -26.689 -13.587  0.00  0.00    +0.111 C 
ATOM     21  H   UNL     1      39.652 -26.284 -15.244  0.00  0.00    +0.150 HD
ENDBRANCH  14  19
ENDBRANCH   8  11
BRANCH   5  22
ATOM     22  C   UNL     1      35.356 -20.441 -20.455  0.00  0.00    +0.068 C 
BRANCH  22  24
ATOM     23  N   UNL     1      34.598 -16.857 -24.768  0.00  0.00    -0.248 NA
ATOM     24  C   UNL     1      35.157 -19.489 -21.585  0.00  0.00    -0.038 C 
ATOM     25  C   UNL     1      35.116 -18.118 -21.347  0.00  0.00    +0.050 C 
ATOM     26  C   UNL     1      34.929 -17.218 -22.408  0.00  0.00    -0.004 C 
ATOM     27  C   UNL     1      35.011 -19.964 -22.883  0.00  0.00    -0.028 C 
ATOM     28  C   UNL     1      34.780 -17.692 -23.729  0.00  0.00    +0.060 C 
ATOM     29  C   UNL     1      34.825 -19.068 -23.938  0.00  0.00    +0.071 C 
ATOM     30  C   UNL     1      34.884 -15.833 -22.197  0.00  0.00    -0.001 C 
ATOM     31  C   UNL     1      34.697 -14.969 -23.267  0.00  0.00    +0.020 C 
ATOM     32  C   UNL     1      34.561 -15.527 -24.521  0.00  0.00    +0.098 C 
ENDBRANCH  22  24
ENDBRANCH   5  22
TORSDOF 4
ENDMDL
MODEL 9
REMARK VINA RESULT:     -11.4      5.106     11.045
REMARK  Name = 25145656
REMARK  4 active torsions:
REMARK  status: ('A' for Active; 'I' for Inactive)
REMARK    1  A    between atoms: C_5  and  C_22
REMARK    2  A    between atoms: C_8  and  C_11
REMARK    3  A    between atoms: C_14  and  C_19
REMARK    4  A    between atoms: C_22  and  C_24
REMARK                            x       y       z     vdW  Elec       q    Type
REMARK                         _______ _______ _______ _____ _____    ______ ____
ROOT
ATOM      1  N   UNL     1      35.079 -24.077 -13.525  0.00  0.00    -0.134 N 
ATOM      2  N   UNL     1      34.867 -23.350 -14.644  0.00  0.00    -0.168 NA
ATOM      3  N   UNL     1      36.055 -25.442 -12.074  0.00  0.00    -0.178 NA
ATOM      4  N   UNL     1      37.139 -25.040 -14.200  0.00  0.00    -0.200 NA
ATOM      5  C   UNL     1      34.254 -24.125 -12.434  0.00  0.00    +0.086 C 
ATOM      6  C   UNL     1      36.164 -24.892 -13.270  0.00  0.00    +0.114 C 
ATOM      7  C   UNL     1      34.877 -24.973 -11.553  0.00  0.00    +0.124 C 
ATOM      8  C   UNL     1      35.802 -23.460 -15.539  0.00  0.00    +0.103 C 
ATOM      9  C   UNL     1      36.982 -24.370 -15.294  0.00  0.00    +0.184 C 
ENDROOT
BRANCH   8  11
ATOM     10  F   UNL     1      33.297 -22.024 -19.439  0.00  0.00    -0.204 F 
ATOM     11  C   UNL     1      35.711 -22.702 -16.808  0.00  0.00    +0.019 C 
ATOM     12  C   UNL     1      34.527 -22.717 -17.545  0.00  0.00    +0.031 C 
ATOM     13  C   UNL     1      36.809 -21.974 -17.267  0.00  0.00    +0.002 C 
ATOM     14  C   UNL     1      35.538 -21.275 -19.199  0.00  0.00    +0.081 C 
ATOM     15  C   UNL     1      34.441 -22.003 -18.740  0.00  0.00    +0.144 C 
ATOM     16  C   UNL     1      36.722 -21.261 -18.462  0.00  0.00    +0.007 C 
BRANCH  14  19
ATOM     17  O   UNL     1      34.650 -20.869 -21.331  0.00  0.00    -0.270 OA
ATOM     18  N   UNL     1      36.290 -19.415 -20.576  0.00  0.00    -0.299 N 
ATOM     19  C   UNL     1      35.452 -20.529 -20.444  0.00  0.00    +0.248 C 
ATOM     20  C   UNL     1      36.305 -18.560 -21.741  0.00  0.00    +0.111 C 
ATOM     21  H   UNL     1      36.903 -19.202 -19.835  0.00  0.00    +0.150 HD
ENDBRANCH  14  19
ENDBRANCH   8  11
BRANCH   5  22
ATOM     22  C   UNL     1      32.951 -23.357 -12.338  0.00  0.00    +0.068 C 
BRANCH  22  24
ATOM     23  N   UNL     1      28.871 -25.376 -15.700  0.00  0.00    -0.248 NA
ATOM     24  C   UNL     1      31.874 -23.880 -13.228  0.00  0.00    -0.038 C 
ATOM     25  C   UNL     1      31.167 -23.013 -14.056  0.00  0.00    +0.050 C 
ATOM     26  C   UNL     1      30.153 -23.501 -14.896  0.00  0.00    -0.004 C 
ATOM     27  C   UNL     1      31.569 -25.235 -13.235  0.00  0.00    -0.028 C 
ATOM     28  C   UNL     1      29.837 -24.876 -14.908  0.00  0.00    +0.060 C 
ATOM     29  C   UNL     1      30.560 -25.721 -14.070  0.00  0.00    +0.071 C 
ATOM     30  C   UNL     1      29.427 -22.650 -15.740  0.00  0.00    -0.001 C 
ATOM     31  C   UNL     1      28.429 -23.164 -16.558  0.00  0.00    +0.020 C 
ATOM     32  C   UNL     1      28.193 -24.521 -16.501  0.00  0.00    +0.098 C 
ENDBRANCH  22  24
ENDBRANCH   5  22
TORSDOF 4
ENDMDL
