MODEL 1
REMARK VINA RESULT:     -11.7      0.000      0.000
REMARK  Name = 44629554
REMARK  5 active torsions:
REMARK  status: ('A' for Active; 'I' for Inactive)
REMARK    1  A    between atoms: C_5  and  C_30
REMARK    2  A    between atoms: C_6  and  N_18
REMARK    3  A    between atoms: C_7  and  C_12
REMARK    4  A    between atoms: N_18  and  C_20
REMARK    5  A    between atoms: C_20  and  C_24
REMARK                            x       y       z     vdW  Elec       q    Type
REMARK                         _______ _______ _______ _____ _____    ______ ____
ROOT
ATOM      1  N   UNL     1      32.834 -23.405 -16.108  0.00  0.00    -0.152 N 
ATOM      2  N   UNL     1      35.190 -23.881 -15.958  0.00  0.00    -0.389 NA
ATOM      3  N   UNL     1      31.944 -22.829 -16.965  0.00  0.00    -0.174 NA
ATOM      4  C   UNL     1      34.128 -23.365 -16.632  0.00  0.00    +0.189 C 
ATOM      5  C   UNL     1      34.037 -22.742 -17.855  0.00  0.00    +0.112 C 
ATOM      6  C   UNL     1      32.572 -23.976 -14.852  0.00  0.00    +0.126 C 
ATOM      7  C   UNL     1      34.946 -24.424 -14.799  0.00  0.00    +0.140 C 
ATOM      8  C   UNL     1      33.597 -24.497 -14.156  0.00  0.00    +0.064 C 
ATOM      9  C   UNL     1      32.679 -22.439 -18.004  0.00  0.00    +0.100 C 
ENDROOT
BRANCH   7  12
ATOM     10  F   UNL     1      36.099 -26.921 -15.435  0.00  0.00    -0.204 F 
ATOM     11  F   UNL     1      36.112 -23.121 -12.584  0.00  0.00    -0.204 F 
ATOM     12  C   UNL     1      36.077 -25.006 -14.029  0.00  0.00    +0.085 C 
ATOM     13  C   UNL     1      36.605 -26.244 -14.393  0.00  0.00    +0.145 C 
ATOM     14  C   UNL     1      36.611 -24.313 -12.943  0.00  0.00    +0.145 C 
ATOM     15  C   UNL     1      37.666 -26.791 -13.671  0.00  0.00    +0.030 C 
ATOM     16  C   UNL     1      37.672 -24.858 -12.221  0.00  0.00    +0.030 C 
ATOM     17  C   UNL     1      38.199 -26.098 -12.585  0.00  0.00    +0.005 C 
ENDBRANCH   7  12
BRANCH   6  18
ATOM     18  N   UNL     1      31.280 -23.958 -14.408  0.00  0.00    -0.316 N 
ATOM     19  H   UNL     1      31.030 -23.296 -13.725  0.00  0.00    +0.148 HD
BRANCH  18  20
ATOM     20  C   UNL     1      30.267 -24.859 -14.890  0.00  0.00    +0.114 C 
BRANCH  20  24
ATOM     21  N   UNL     1      27.857 -22.097 -15.831  0.00  0.00    -0.181 NA
ATOM     22  N   UNL     1      27.456 -23.986 -17.271  0.00  0.00    -0.204 NA
ATOM     23  N   UNL     1      26.192 -22.022 -17.483  0.00  0.00    -0.303 N 
ATOM     24  C   UNL     1      29.173 -24.097 -15.586  0.00  0.00    +0.020 C 
ATOM     25  C   UNL     1      28.832 -22.809 -15.228  0.00  0.00    +0.106 C 
ATOM     26  C   UNL     1      28.444 -24.642 -16.624  0.00  0.00    +0.163 C 
ATOM     27  C   UNL     1      27.220 -22.737 -16.829  0.00  0.00    +0.084 C 
ATOM     28  H   UNL     1      25.976 -21.103 -17.202  0.00  0.00    +0.154 HD
ATOM     29  H   UNL     1      25.692 -22.441 -18.220  0.00  0.00    +0.154 HD
ENDBRANCH  20  24
ENDBRANCH  18  20
ENDBRANCH   6  18
BRANCH   5  30
ATOM     30  C   UNL     1      35.127 -22.459 -18.802  0.00  0.00    +0.015 C 
ATOM     31  C   UNL     1      34.833 -21.261 -19.714  0.00  0.00    +0.001 C 
ENDBRANCH   5  30
TORSDOF 5
ENDMDL
MODEL 2
REMARK VINA RESULT:     -11.2      2.521      7.449
REMARK  Name = 44629554
REMARK  5 active torsions:
REMARK  status: ('A' for Active; 'I' for Inactive)
REMARK    1  A    between atoms: C_5  and  C_30
REMARK    2  A    between atoms: C_6  and  N_18
REMARK    3  A    between atoms: C_7  and  C_12
REMARK    4  A    between atoms: N_18  and  C_20
REMARK    5  A    between atoms: C_20  and  C_24
REMARK                            x       y       z     vdW  Elec       q    Type
REMARK                         _______ _______ _______ _____ _____    ______ ____
ROOT
ATOM      1  N   UNL     1      32.674 -24.477 -13.709  0.00  0.00    -0.152 N 
ATOM      2  N   UNL     1      32.706 -23.244 -15.777  0.00  0.00    -0.389 NA
ATOM      3  N   UNL     1      31.780 -24.937 -12.788  0.00  0.00    -0.174 NA
ATOM      4  C   UNL     1      32.023 -23.795 -14.739  0.00  0.00    +0.189 C 
ATOM      5  C   UNL     1      30.680 -23.832 -14.446  0.00  0.00    +0.112 C 
ATOM      6  C   UNL     1      34.071 -24.619 -13.697  0.00  0.00    +0.126 C 
ATOM      7  C   UNL     1      34.000 -23.388 -15.775  0.00  0.00    +0.140 C 
ATOM      8  C   UNL     1      34.780 -24.089 -14.707  0.00  0.00    +0.064 C 
ATOM      9  C   UNL     1      30.593 -24.544 -13.244  0.00  0.00    +0.100 C 
ENDROOT
BRANCH   7  12
ATOM     10  F   UNL     1      36.620 -22.392 -15.439  0.00  0.00    -0.204 F 
ATOM     11  F   UNL     1      32.996 -23.192 -18.405  0.00  0.00    -0.204 F 
ATOM     12  C   UNL     1      34.788 -22.807 -16.894  0.00  0.00    +0.085 C 
ATOM     13  C   UNL     1      36.079 -22.332 -16.665  0.00  0.00    +0.145 C 
ATOM     14  C   UNL     1      34.237 -22.738 -18.173  0.00  0.00    +0.145 C 
ATOM     15  C   UNL     1      36.819 -21.787 -17.715  0.00  0.00    +0.030 C 
ATOM     16  C   UNL     1      34.976 -22.194 -19.223  0.00  0.00    +0.030 C 
ATOM     17  C   UNL     1      36.267 -21.718 -18.994  0.00  0.00    +0.005 C 
ENDBRANCH   7  12
BRANCH   6  18
ATOM     18  N   UNL     1      34.627 -25.288 -12.643  0.00  0.00    -0.316 N 
ATOM     19  H   UNL     1      34.241 -26.155 -12.384  0.00  0.00    +0.148 HD
BRANCH  18  20
ATOM     20  C   UNL     1      35.750 -24.788 -11.893  0.00  0.00    +0.114 C 
BRANCH  20  24
ATOM     21  N   UNL     1      38.305 -26.972 -13.632  0.00  0.00    -0.181 NA
ATOM     22  N   UNL     1      39.356 -24.887 -13.037  0.00  0.00    -0.204 NA
ATOM     23  N   UNL     1      40.560 -26.569 -14.144  0.00  0.00    -0.303 N 
ATOM     24  C   UNL     1      37.041 -25.266 -12.498  0.00  0.00    +0.020 C 
ATOM     25  C   UNL     1      37.163 -26.511 -13.081  0.00  0.00    +0.106 C 
ATOM     26  C   UNL     1      38.182 -24.490 -12.504  0.00  0.00    +0.163 C 
ATOM     27  C   UNL     1      39.346 -26.121 -13.577  0.00  0.00    +0.084 C 
ATOM     28  H   UNL     1      40.611 -27.464 -14.552  0.00  0.00    +0.154 HD
ATOM     29  H   UNL     1      41.354 -25.989 -14.131  0.00  0.00    +0.154 HD
ENDBRANCH  20  24
ENDBRANCH  18  20
ENDBRANCH   6  18
BRANCH   5  30
ATOM     30  C   UNL     1      29.573 -23.253 -15.226  0.00  0.00    +0.015 C 
ATOM     31  C   UNL     1      28.603 -24.310 -15.768  0.00  0.00    +0.001 C 
ENDBRANCH   5  30
TORSDOF 5
ENDMDL
MODEL 3
REMARK VINA RESULT:     -11.2      2.795      7.436
REMARK  Name = 44629554
REMARK  5 active torsions:
REMARK  status: ('A' for Active; 'I' for Inactive)
REMARK    1  A    between atoms: C_5  and  C_30
REMARK    2  A    between atoms: C_6  and  N_18
REMARK    3  A    between atoms: C_7  and  C_12
REMARK    4  A    between atoms: N_18  and  C_20
REMARK    5  A    between atoms: C_20  and  C_24
REMARK                            x       y       z     vdW  Elec       q    Type
REMARK                         _______ _______ _______ _____ _____    ______ ____
ROOT
ATOM      1  N   UNL     1      35.270 -23.227 -14.900  0.00  0.00    -0.152 N 
ATOM      2  N   UNL     1      33.255 -23.393 -16.207  0.00  0.00    -0.389 NA
ATOM      3  N   UNL     1      36.580 -22.879 -15.050  0.00  0.00    -0.174 NA
ATOM      4  C   UNL     1      34.580 -23.103 -16.107  0.00  0.00    +0.189 C 
ATOM      5  C   UNL     1      35.492 -22.665 -17.038  0.00  0.00    +0.112 C 
ATOM      6  C   UNL     1      34.626 -23.665 -13.732  0.00  0.00    +0.126 C 
ATOM      7  C   UNL     1      32.653 -23.786 -15.121  0.00  0.00    +0.140 C 
ATOM      8  C   UNL     1      33.317 -23.960 -13.792  0.00  0.00    +0.064 C 
ATOM      9  C   UNL     1      36.696 -22.545 -16.334  0.00  0.00    +0.100 C 
ENDROOT
BRANCH   7  12
ATOM     10  F   UNL     1      31.501 -25.906 -13.659  0.00  0.00    -0.204 F 
ATOM     11  F   UNL     1      30.832 -22.328 -16.710  0.00  0.00    -0.204 F 
ATOM     12  C   UNL     1      31.203 -24.109 -15.183  0.00  0.00    +0.085 C 
ATOM     13  C   UNL     1      30.693 -25.169 -14.435  0.00  0.00    +0.145 C 
ATOM     14  C   UNL     1      30.353 -23.350 -15.987  0.00  0.00    +0.145 C 
ATOM     15  C   UNL     1      29.332 -25.473 -14.491  0.00  0.00    +0.030 C 
ATOM     16  C   UNL     1      28.992 -23.653 -16.044  0.00  0.00    +0.030 C 
ATOM     17  C   UNL     1      28.482 -24.714 -15.296  0.00  0.00    +0.005 C 
ENDBRANCH   7  12
BRANCH   6  18
ATOM     18  N   UNL     1      35.381 -23.772 -12.598  0.00  0.00    -0.316 N 
ATOM     19  H   UNL     1      35.652 -22.946 -12.137  0.00  0.00    +0.148 HD
BRANCH  18  20
ATOM     20  C   UNL     1      35.800 -25.032 -12.043  0.00  0.00    +0.114 C 
BRANCH  20  24
ATOM     21  N   UNL     1      39.447 -25.094 -13.054  0.00  0.00    -0.181 NA
ATOM     22  N   UNL     1      38.368 -27.052 -13.954  0.00  0.00    -0.204 NA
ATOM     23  N   UNL     1      40.651 -26.658 -14.324  0.00  0.00    -0.303 N 
ATOM     24  C   UNL     1      37.102 -25.469 -12.655  0.00  0.00    +0.020 C 
ATOM     25  C   UNL     1      38.262 -24.733 -12.518  0.00  0.00    +0.106 C 
ATOM     26  C   UNL     1      37.216 -26.631 -13.392  0.00  0.00    +0.163 C 
ATOM     27  C   UNL     1      39.428 -26.247 -13.748  0.00  0.00    +0.084 C 
ATOM     28  H   UNL     1      41.459 -26.108 -14.206  0.00  0.00    +0.154 HD
ATOM     29  H   UNL     1      40.696 -27.492 -14.843  0.00  0.00    +0.154 HD
ENDBRANCH  20  24
ENDBRANCH  18  20
ENDBRANCH   6  18
BRANCH   5  30
ATOM     30  C   UNL     1      35.256 -22.381 -18.463  0.00  0.00    +0.015 C 
ATOM     31  C   UNL     1      36.371 -21.542 -19.100  0.00  0.00    +0.001 C 
ENDBRANCH   5  30
TORSDOF 5
ENDMDL
MODEL 4
REMARK VINA RESULT:     -11.1      2.481      5.822
REMARK  Name = 44629554
REMARK  5 active torsions:
REMARK  status: ('A' for Active; 'I' for Inactive)
REMARK    1  A    between atoms: C_5  and  C_30
REMARK    2  A    between atoms: C_6  and  N_18
REMARK    3  A    between atoms: C_7  and  C_12
REMARK    4  A    between atoms: N_18  and  C_20
REMARK    5  A    between atoms: C_20  and  C_24
REMARK                            x       y       z     vdW  Elec       q    Type
REMARK                         _______ _______ _______ _____ _____    ______ ____
ROOT
ATOM      1  N   UNL     1      32.842 -23.324 -16.301  0.00  0.00    -0.152 N 
ATOM      2  N   UNL     1      33.557 -24.528 -14.342  0.00  0.00    -0.389 NA
ATOM      3  N   UNL     1      31.694 -22.866 -16.876  0.00  0.00    -0.174 NA
ATOM      4  C   UNL     1      32.569 -23.983 -15.100  0.00  0.00    +0.189 C 
ATOM      5  C   UNL     1      31.206 -23.933 -14.926  0.00  0.00    +0.112 C 
ATOM      6  C   UNL     1      34.154 -23.200 -16.784  0.00  0.00    +0.126 C 
ATOM      7  C   UNL     1      34.777 -24.401 -14.781  0.00  0.00    +0.140 C 
ATOM      8  C   UNL     1      35.158 -23.725 -16.061  0.00  0.00    +0.064 C 
ATOM      9  C   UNL     1      30.726 -23.237 -16.041  0.00  0.00    +0.100 C 
ENDROOT
BRANCH   7  12
ATOM     10  F   UNL     1      35.835 -23.121 -12.500  0.00  0.00    -0.204 F 
ATOM     11  F   UNL     1      36.002 -26.861 -15.423  0.00  0.00    -0.204 F 
ATOM     12  C   UNL     1      35.890 -24.976 -13.982  0.00  0.00    +0.085 C 
ATOM     13  C   UNL     1      36.369 -24.296 -12.863  0.00  0.00    +0.145 C 
ATOM     14  C   UNL     1      36.454 -26.198 -14.349  0.00  0.00    +0.145 C 
ATOM     15  C   UNL     1      37.414 -24.836 -12.111  0.00  0.00    +0.030 C 
ATOM     16  C   UNL     1      37.499 -26.738 -13.599  0.00  0.00    +0.030 C 
ATOM     17  C   UNL     1      37.978 -26.057 -12.480  0.00  0.00    +0.005 C 
ENDBRANCH   7  12
BRANCH   6  18
ATOM     18  N   UNL     1      34.329 -22.553 -17.975  0.00  0.00    -0.316 N 
ATOM     19  H   UNL     1      33.530 -22.279 -18.479  0.00  0.00    +0.148 HD
BRANCH  18  20
ATOM     20  C   UNL     1      35.623 -22.254 -18.529  0.00  0.00    +0.114 C 
BRANCH  20  24
ATOM     21  N   UNL     1      34.227 -19.835 -21.082  0.00  0.00    -0.181 NA
ATOM     22  N   UNL     1      36.544 -19.295 -20.702  0.00  0.00    -0.204 NA
ATOM     23  N   UNL     1      35.253 -18.056 -22.218  0.00  0.00    -0.303 N 
ATOM     24  C   UNL     1      35.523 -21.127 -19.519  0.00  0.00    +0.020 C 
ATOM     25  C   UNL     1      34.352 -20.838 -20.188  0.00  0.00    +0.106 C 
ATOM     26  C   UNL     1      36.599 -20.315 -19.819  0.00  0.00    +0.163 C 
ATOM     27  C   UNL     1      35.346 -19.114 -21.288  0.00  0.00    +0.084 C 
ATOM     28  H   UNL     1      34.400 -17.877 -22.677  0.00  0.00    +0.154 HD
ATOM     29  H   UNL     1      36.040 -17.496 -22.407  0.00  0.00    +0.154 HD
ENDBRANCH  20  24
ENDBRANCH  18  20
ENDBRANCH   6  18
BRANCH   5  30
ATOM     30  C   UNL     1      30.421 -24.487 -13.810  0.00  0.00    +0.015 C 
ATOM     31  C   UNL     1      29.685 -25.781 -14.178  0.00  0.00    +0.001 C 
ENDBRANCH   5  30
TORSDOF 5
ENDMDL
MODEL 5
REMARK VINA RESULT:     -10.8      3.187      7.092
REMARK  Name = 44629554
REMARK  5 active torsions:
REMARK  status: ('A' for Active; 'I' for Inactive)
REMARK    1  A    between atoms: C_5  and  C_30
REMARK    2  A    between atoms: C_6  and  N_18
REMARK    3  A    between atoms: C_7  and  C_12
REMARK    4  A    between atoms: N_18  and  C_20
REMARK    5  A    between atoms: C_20  and  C_24
REMARK                            x       y       z     vdW  Elec       q    Type
REMARK                         _______ _______ _______ _____ _____    ______ ____
ROOT
ATOM      1  N   UNL     1      35.401 -23.171 -15.504  0.00  0.00    -0.152 N 
ATOM      2  N   UNL     1      33.563 -23.917 -14.139  0.00  0.00    -0.389 NA
ATOM      3  N   UNL     1      36.734 -22.903 -15.395  0.00  0.00    -0.174 NA
ATOM      4  C   UNL     1      34.875 -23.590 -14.280  0.00  0.00    +0.189 C 
ATOM      5  C   UNL     1      35.916 -23.580 -13.381  0.00  0.00    +0.112 C 
ATOM      6  C   UNL     1      34.594 -23.062 -16.647  0.00  0.00    +0.126 C 
ATOM      7  C   UNL     1      32.815 -23.830 -15.202  0.00  0.00    +0.140 C 
ATOM      8  C   UNL     1      33.291 -23.377 -16.546  0.00  0.00    +0.064 C 
ATOM      9  C   UNL     1      37.025 -23.153 -14.120  0.00  0.00    +0.100 C 
ENDROOT
BRANCH   7  12
ATOM     10  F   UNL     1      30.803 -22.468 -16.636  0.00  0.00    -0.204 F 
ATOM     11  F   UNL     1      31.875 -25.916 -13.550  0.00  0.00    -0.204 F 
ATOM     12  C   UNL     1      31.375 -24.183 -15.096  0.00  0.00    +0.085 C 
ATOM     13  C   UNL     1      30.427 -23.473 -15.831  0.00  0.00    +0.145 C 
ATOM     14  C   UNL     1      30.972 -25.226 -14.262  0.00  0.00    +0.145 C 
ATOM     15  C   UNL     1      29.075 -23.804 -15.733  0.00  0.00    +0.030 C 
ATOM     16  C   UNL     1      29.621 -25.558 -14.163  0.00  0.00    +0.030 C 
ATOM     17  C   UNL     1      28.673 -24.846 -14.898  0.00  0.00    +0.005 C 
ENDBRANCH   7  12
BRANCH   6  18
ATOM     18  N   UNL     1      35.187 -22.629 -17.799  0.00  0.00    -0.316 N 
ATOM     19  H   UNL     1      36.150 -22.431 -17.783  0.00  0.00    +0.148 HD
BRANCH  18  20
ATOM     20  C   UNL     1      34.473 -22.448 -19.036  0.00  0.00    +0.114 C 
BRANCH  20  24
ATOM     21  N   UNL     1      36.815 -19.763 -20.310  0.00  0.00    -0.181 NA
ATOM     22  N   UNL     1      34.643 -19.414 -21.292  0.00  0.00    -0.204 NA
ATOM     23  N   UNL     1      36.434 -17.984 -21.792  0.00  0.00    -0.303 N 
ATOM     24  C   UNL     1      35.000 -21.250 -19.776  0.00  0.00    +0.020 C 
ATOM     25  C   UNL     1      36.310 -20.833 -19.661  0.00  0.00    +0.106 C 
ATOM     26  C   UNL     1      34.203 -20.494 -20.613  0.00  0.00    +0.163 C 
ATOM     27  C   UNL     1      35.940 -19.109 -21.097  0.00  0.00    +0.084 C 
ATOM     28  H   UNL     1      37.375 -17.714 -21.687  0.00  0.00    +0.154 HD
ATOM     29  H   UNL     1      35.838 -17.468 -22.382  0.00  0.00    +0.154 HD
ENDBRANCH  20  24
ENDBRANCH  18  20
ENDBRANCH   6  18
BRANCH   5  30
ATOM     30  C   UNL     1      35.876 -23.942 -11.955  0.00  0.00    +0.015 C 
ATOM     31  C   UNL     1      37.116 -23.476 -11.182  0.00  0.00    +0.001 C 
ENDBRANCH   5  30
TORSDOF 5
ENDMDL
MODEL 6
REMARK VINA RESULT:     -10.5      2.610      5.748
REMARK  Name = 44629554
REMARK  5 active torsions:
REMARK  status: ('A' for Active; 'I' for Inactive)
REMARK    1  A    between atoms: C_5  and  C_30
REMARK    2  A    between atoms: C_6  and  N_18
REMARK    3  A    between atoms: C_7  and  C_12
REMARK    4  A    between atoms: N_18  and  C_20
REMARK    5  A    between atoms: C_20  and  C_24
REMARK                            x       y       z     vdW  Elec       q    Type
REMARK                         _______ _______ _______ _____ _____    ______ ____
ROOT
ATOM      1  N   UNL     1      32.238 -23.159 -16.761  0.00  0.00    -0.152 N 
ATOM      2  N   UNL     1      33.592 -23.891 -14.909  0.00  0.00    -0.389 NA
ATOM      3  N   UNL     1      30.943 -22.835 -17.036  0.00  0.00    -0.174 NA
ATOM      4  C   UNL     1      32.387 -23.526 -15.422  0.00  0.00    +0.189 C 
ATOM      5  C   UNL     1      31.141 -23.429 -14.847  0.00  0.00    +0.112 C 
ATOM      6  C   UNL     1      33.331 -23.156 -17.642  0.00  0.00    +0.126 C 
ATOM      7  C   UNL     1      34.609 -23.875 -15.722  0.00  0.00    +0.140 C 
ATOM      8  C   UNL     1      34.539 -23.510 -17.171  0.00  0.00    +0.064 C 
ATOM      9  C   UNL     1      30.301 -23.001 -15.881  0.00  0.00    +0.100 C 
ENDROOT
BRANCH   7  12
ATOM     10  F   UNL     1      35.186 -26.470 -14.774  0.00  0.00    -0.204 F 
ATOM     11  F   UNL     1      36.778 -22.072 -15.606  0.00  0.00    -0.204 F 
ATOM     12  C   UNL     1      35.948 -24.261 -15.203  0.00  0.00    +0.085 C 
ATOM     13  C   UNL     1      36.171 -25.561 -14.749  0.00  0.00    +0.145 C 
ATOM     14  C   UNL     1      36.981 -23.325 -15.172  0.00  0.00    +0.145 C 
ATOM     15  C   UNL     1      37.428 -25.924 -14.263  0.00  0.00    +0.030 C 
ATOM     16  C   UNL     1      38.237 -23.687 -14.686  0.00  0.00    +0.030 C 
ATOM     17  C   UNL     1      38.460 -24.987 -14.231  0.00  0.00    +0.005 C 
ENDBRANCH   7  12
BRANCH   6  18
ATOM     18  N   UNL     1      33.093 -22.798 -18.940  0.00  0.00    -0.316 N 
ATOM     19  H   UNL     1      33.071 -23.505 -19.623  0.00  0.00    +0.148 HD
BRANCH  18  20
ATOM     20  C   UNL     1      32.874 -21.438 -19.356  0.00  0.00    +0.114 C 
BRANCH  20  24
ATOM     21  N   UNL     1      35.335 -19.170 -21.123  0.00  0.00    -0.181 NA
ATOM     22  N   UNL     1      36.569 -20.725 -19.759  0.00  0.00    -0.204 NA
ATOM     23  N   UNL     1      37.679 -19.111 -21.049  0.00  0.00    -0.303 N 
ATOM     24  C   UNL     1      34.164 -20.813 -19.810  0.00  0.00    +0.020 C 
ATOM     25  C   UNL     1      34.196 -19.754 -20.695  0.00  0.00    +0.106 C 
ATOM     26  C   UNL     1      35.393 -21.262 -19.372  0.00  0.00    +0.163 C 
ATOM     27  C   UNL     1      36.467 -19.697 -20.623  0.00  0.00    +0.084 C 
ATOM     28  H   UNL     1      37.665 -18.356 -21.681  0.00  0.00    +0.154 HD
ATOM     29  H   UNL     1      38.538 -19.457 -20.715  0.00  0.00    +0.154 HD
ENDBRANCH  20  24
ENDBRANCH  18  20
ENDBRANCH   6  18
BRANCH   5  30
ATOM     30  C   UNL     1      30.771 -23.710 -13.450  0.00  0.00    +0.015 C 
ATOM     31  C   UNL     1      30.791 -25.206 -13.113  0.00  0.00    +0.001 C 
ENDBRANCH   5  30
TORSDOF 5
ENDMDL
MODEL 7
REMARK VINA RESULT:     -10.3     12.285     16.133
REMARK  Name = 44629554
REMARK  5 active torsions:
REMARK  status: ('A' for Active; 'I' for Inactive)
REMARK    1  A    between atoms: C_5  and  C_30
REMARK    2  A    between atoms: C_6  and  N_18
REMARK    3  A    between atoms: C_7  and  C_12
REMARK    4  A    between atoms: N_18  and  C_20
REMARK    5  A    between atoms: C_20  and  C_24
REMARK                            x       y       z     vdW  Elec       q    Type
REMARK                         _______ _______ _______ _____ _____    ______ ____
ROOT
ATOM      1  N   UNL     1      32.877 -11.880 -22.154  0.00  0.00    -0.152 N 
ATOM      2  N   UNL     1      32.432  -9.515 -22.055  0.00  0.00    -0.389 NA
ATOM      3  N   UNL     1      32.579 -13.022 -21.471  0.00  0.00    -0.174 NA
ATOM      4  C   UNL     1      32.280 -10.770 -21.553  0.00  0.00    +0.189 C 
ATOM      5  C   UNL     1      31.591 -11.239 -20.459  0.00  0.00    +0.112 C 
ATOM      6  C   UNL     1      33.669 -11.749 -23.306  0.00  0.00    +0.126 C 
ATOM      7  C   UNL     1      33.154  -9.394 -23.131  0.00  0.00    +0.140 C 
ATOM      8  C   UNL     1      33.841 -10.524 -23.832  0.00  0.00    +0.064 C 
ATOM      9  C   UNL     1      31.810 -12.622 -20.461  0.00  0.00    +0.100 C 
ENDROOT
BRANCH   7  12
ATOM     10  F   UNL     1      31.121  -8.054 -24.557  0.00  0.00    -0.204 F 
ATOM     11  F   UNL     1      35.575  -7.960 -22.910  0.00  0.00    -0.204 F 
ATOM     12  C   UNL     1      33.343  -8.041 -23.719  0.00  0.00    +0.085 C 
ATOM     13  C   UNL     1      32.299  -7.431 -24.412  0.00  0.00    +0.145 C 
ATOM     14  C   UNL     1      34.564  -7.382 -23.575  0.00  0.00    +0.145 C 
ATOM     15  C   UNL     1      32.475  -6.160 -24.963  0.00  0.00    +0.030 C 
ATOM     16  C   UNL     1      34.741  -6.113 -24.125  0.00  0.00    +0.030 C 
ATOM     17  C   UNL     1      33.696  -5.502 -24.820  0.00  0.00    +0.005 C 
ENDBRANCH   7  12
BRANCH   6  18
ATOM     18  N   UNL     1      34.227 -12.885 -23.820  0.00  0.00    -0.316 N 
ATOM     19  H   UNL     1      35.197 -13.016 -23.719  0.00  0.00    +0.148 HD
BRANCH  18  20
ATOM     20  C   UNL     1      33.468 -13.900 -24.502  0.00  0.00    +0.114 C 
BRANCH  20  24
ATOM     21  N   UNL     1      34.186 -17.614 -24.610  0.00  0.00    -0.181 NA
ATOM     22  N   UNL     1      35.079 -16.720 -22.559  0.00  0.00    -0.204 NA
ATOM     23  N   UNL     1      35.286 -19.000 -23.069  0.00  0.00    -0.303 N 
ATOM     24  C   UNL     1      33.956 -15.269 -24.118  0.00  0.00    +0.020 C 
ATOM     25  C   UNL     1      33.761 -16.372 -24.924  0.00  0.00    +0.106 C 
ATOM     26  C   UNL     1      34.627 -15.505 -22.935  0.00  0.00    +0.163 C 
ATOM     27  C   UNL     1      34.828 -17.714 -23.431  0.00  0.00    +0.084 C 
ATOM     28  H   UNL     1      35.130 -19.765 -23.669  0.00  0.00    +0.154 HD
ATOM     29  H   UNL     1      35.762 -19.132 -22.218  0.00  0.00    +0.154 HD
ENDBRANCH  20  24
ENDBRANCH  18  20
ENDBRANCH   6  18
BRANCH   5  30
ATOM     30  C   UNL     1      30.795 -10.460 -19.496  0.00  0.00    +0.015 C 
ATOM     31  C   UNL     1      31.562 -10.132 -18.209  0.00  0.00    +0.001 C 
ENDBRANCH   5  30
TORSDOF 5
ENDMDL
MODEL 8
REMARK VINA RESULT:     -10.3     12.299     16.143
REMARK  Name = 44629554
REMARK  5 active torsions:
REMARK  status: ('A' for Active; 'I' for Inactive)
REMARK    1  A    between atoms: C_5  and  C_30
REMARK    2  A    between atoms: C_6  and  N_18
REMARK    3  A    between atoms: C_7  and  C_12
REMARK    4  A    between atoms: N_18  and  C_20
REMARK    5  A    between atoms: C_20  and  C_24
REMARK                            x       y       z     vdW  Elec       q    Type
REMARK                         _______ _______ _______ _____ _____    ______ ____
ROOT
ATOM      1  N   UNL     1      32.881 -11.856 -22.147  0.00  0.00    -0.152 N 
ATOM      2  N   UNL     1      32.447  -9.488 -22.065  0.00  0.00    -0.389 NA
ATOM      3  N   UNL     1      32.580 -12.991 -21.456  0.00  0.00    -0.174 NA
ATOM      4  C   UNL     1      32.291 -10.739 -21.553  0.00  0.00    +0.189 C 
ATOM      5  C   UNL     1      31.602 -11.196 -20.454  0.00  0.00    +0.112 C 
ATOM      6  C   UNL     1      33.671 -11.737 -23.302  0.00  0.00    +0.126 C 
ATOM      7  C   UNL     1      33.167  -9.378 -23.144  0.00  0.00    +0.140 C 
ATOM      8  C   UNL     1      33.847 -10.517 -23.837  0.00  0.00    +0.064 C 
ATOM      9  C   UNL     1      31.814 -12.580 -20.447  0.00  0.00    +0.100 C 
ENDROOT
BRANCH   7  12
ATOM     10  F   UNL     1      35.587  -7.944 -22.920  0.00  0.00    -0.204 F 
ATOM     11  F   UNL     1      31.143  -8.050 -24.595  0.00  0.00    -0.204 F 
ATOM     12  C   UNL     1      33.360  -8.031 -23.742  0.00  0.00    +0.085 C 
ATOM     13  C   UNL     1      34.581  -7.373 -23.598  0.00  0.00    +0.145 C 
ATOM     14  C   UNL     1      32.322  -7.426 -24.449  0.00  0.00    +0.145 C 
ATOM     15  C   UNL     1      34.764  -6.108 -24.160  0.00  0.00    +0.030 C 
ATOM     16  C   UNL     1      32.503  -6.162 -25.011  0.00  0.00    +0.030 C 
ATOM     17  C   UNL     1      33.724  -5.504 -24.866  0.00  0.00    +0.005 C 
ENDBRANCH   7  12
BRANCH   6  18
ATOM     18  N   UNL     1      34.223 -12.879 -23.809  0.00  0.00    -0.316 N 
ATOM     19  H   UNL     1      35.191 -13.017 -23.701  0.00  0.00    +0.148 HD
BRANCH  18  20
ATOM     20  C   UNL     1      33.460 -13.890 -24.492  0.00  0.00    +0.114 C 
BRANCH  20  24
ATOM     21  N   UNL     1      35.076 -16.721 -22.569  0.00  0.00    -0.181 NA
ATOM     22  N   UNL     1      34.181 -17.603 -24.624  0.00  0.00    -0.204 NA
ATOM     23  N   UNL     1      35.283 -18.998 -23.095  0.00  0.00    -0.303 N 
ATOM     24  C   UNL     1      33.949 -15.261 -24.116  0.00  0.00    +0.020 C 
ATOM     25  C   UNL     1      34.623 -15.504 -22.937  0.00  0.00    +0.106 C 
ATOM     26  C   UNL     1      33.755 -16.360 -24.930  0.00  0.00    +0.163 C 
ATOM     27  C   UNL     1      34.824 -17.710 -23.447  0.00  0.00    +0.084 C 
ATOM     28  H   UNL     1      35.761 -19.136 -22.245  0.00  0.00    +0.154 HD
ATOM     29  H   UNL     1      35.127 -19.759 -23.700  0.00  0.00    +0.154 HD
ENDBRANCH  20  24
ENDBRANCH  18  20
ENDBRANCH   6  18
BRANCH   5  30
ATOM     30  C   UNL     1      30.811 -10.407 -19.496  0.00  0.00    +0.015 C 
ATOM     31  C   UNL     1      31.535 -10.183 -18.162  0.00  0.00    +0.001 C 
ENDBRANCH   5  30
TORSDOF 5
ENDMDL
MODEL 9
REMARK VINA RESULT:      -9.1     13.011     16.713
REMARK  Name = 44629554
REMARK  5 active torsions:
REMARK  status: ('A' for Active; 'I' for Inactive)
REMARK    1  A    between atoms: C_5  and  C_30
REMARK    2  A    between atoms: C_6  and  N_18
REMARK    3  A    between atoms: C_7  and  C_12
REMARK    4  A    between atoms: N_18  and  C_20
REMARK    5  A    between atoms: C_20  and  C_24
REMARK                            x       y       z     vdW  Elec       q    Type
REMARK                         _______ _______ _______ _____ _____    ______ ____
ROOT
ATOM      1  N   UNL     1      32.122 -11.143 -21.816  0.00  0.00    -0.152 N 
ATOM      2  N   UNL     1      31.742  -8.805 -21.380  0.00  0.00    -0.389 NA
ATOM      3  N   UNL     1      32.064 -12.343 -21.172  0.00  0.00    -0.174 NA
ATOM      4  C   UNL     1      31.761 -10.099 -20.962  0.00  0.00    +0.189 C 
ATOM      5  C   UNL     1      31.469 -10.671 -19.746  0.00  0.00    +0.112 C 
ATOM      6  C   UNL     1      32.491 -10.901 -23.149  0.00  0.00    +0.126 C 
ATOM      7  C   UNL     1      32.069  -8.581 -22.620  0.00  0.00    +0.140 C 
ATOM      8  C   UNL     1      32.483  -9.635 -23.599  0.00  0.00    +0.064 C 
ATOM      9  C   UNL     1      31.671 -12.043 -19.935  0.00  0.00    +0.100 C 
ENDROOT
BRANCH   7  12
ATOM     10  F   UNL     1      30.575  -7.785 -24.878  0.00  0.00    -0.204 F 
ATOM     11  F   UNL     1      33.539  -6.508 -21.392  0.00  0.00    -0.204 F 
ATOM     12  C   UNL     1      32.057  -7.182 -23.123  0.00  0.00    +0.085 C 
ATOM     13  C   UNL     1      31.297  -6.850 -24.243  0.00  0.00    +0.145 C 
ATOM     14  C   UNL     1      32.804  -6.200 -22.471  0.00  0.00    +0.145 C 
ATOM     15  C   UNL     1      31.285  -5.536 -24.715  0.00  0.00    +0.030 C 
ATOM     16  C   UNL     1      32.793  -4.887 -22.942  0.00  0.00    +0.030 C 
ATOM     17  C   UNL     1      32.033  -4.556 -24.064  0.00  0.00    +0.005 C 
ENDBRANCH   7  12
BRANCH   6  18
ATOM     18  N   UNL     1      32.846 -11.978 -23.911  0.00  0.00    -0.316 N 
ATOM     19  H   UNL     1      32.160 -12.393 -24.481  0.00  0.00    +0.148 HD
BRANCH  18  20
ATOM     20  C   UNL     1      34.172 -12.537 -23.921  0.00  0.00    +0.114 C 
BRANCH  20  24
ATOM     21  N   UNL     1      34.558 -16.250 -23.302  0.00  0.00    -0.181 NA
ATOM     22  N   UNL     1      33.508 -15.937 -25.447  0.00  0.00    -0.204 NA
ATOM     23  N   UNL     1      33.955 -18.089 -24.629  0.00  0.00    -0.303 N 
ATOM     24  C   UNL     1      34.113 -14.028 -24.111  0.00  0.00    +0.020 C 
ATOM     25  C   UNL     1      34.594 -14.908 -23.164  0.00  0.00    +0.106 C 
ATOM     26  C   UNL     1      33.576 -14.604 -25.244  0.00  0.00    +0.163 C 
ATOM     27  C   UNL     1      34.010 -16.689 -24.450  0.00  0.00    +0.084 C 
ATOM     28  H   UNL     1      34.307 -18.689 -23.932  0.00  0.00    +0.154 HD
ATOM     29  H   UNL     1      33.564 -18.466 -25.450  0.00  0.00    +0.154 HD
ENDBRANCH  20  24
ENDBRANCH  18  20
ENDBRANCH   6  18
BRANCH   5  30
ATOM     30  C   UNL     1      31.037  -9.991 -18.513  0.00  0.00    +0.015 C 
ATOM     31  C   UNL     1      31.725 -10.535 -17.255  0.00  0.00    +0.001 C 
ENDBRANCH   5  30
TORSDOF 5
ENDMDL
