MODEL 1
REMARK VINA RESULT:     -11.6      0.000      0.000
REMARK  Name = 9931954
REMARK  3 active torsions:
REMARK  status: ('A' for Active; 'I' for Inactive)
REMARK    1  A    between atoms: C_8  and  C_18
REMARK    2  A    between atoms: C_21  and  C_24
REMARK    3  A    between atoms: C_24  and  N_25
REMARK                            x       y       z     vdW  Elec       q    Type
REMARK                         _______ _______ _______ _____ _____    ______ ____
ROOT
ATOM      1  F   UNL     1      29.602 -25.683 -13.633  0.00  0.00    -0.204 F 
ATOM      2  O   UNL     1      34.173 -24.737 -11.966  0.00  0.00    -0.270 OA
ATOM      3  N   UNL     1      31.924 -23.188 -17.097  0.00  0.00    -0.353 N 
ATOM      4  N   UNL     1      35.544 -24.404 -13.748  0.00  0.00    -0.301 N 
ATOM      5  C   UNL     1      33.916 -23.248 -16.112  0.00  0.00    -0.003 A 
ATOM      6  C   UNL     1      32.980 -23.920 -15.267  0.00  0.00    +0.018 A 
ATOM      7  C   UNL     1      35.373 -23.108 -15.851  0.00  0.00    +0.049 C 
ATOM      8  C   UNL     1      33.229 -22.801 -17.221  0.00  0.00    +0.053 A 
ATOM      9  C   UNL     1      31.745 -23.882 -15.923  0.00  0.00    +0.059 A 
ATOM     10  C   UNL     1      33.063 -24.563 -14.011  0.00  0.00    +0.057 C 
ATOM     11  C   UNL     1      35.922 -24.344 -15.152  0.00  0.00    +0.094 C 
ATOM     12  C   UNL     1      34.295 -24.578 -13.182  0.00  0.00    +0.246 C 
ATOM     13  C   UNL     1      30.587 -24.468 -15.402  0.00  0.00    +0.047 C 
ATOM     14  C   UNL     1      31.898 -25.153 -13.481  0.00  0.00    +0.034 C 
ATOM     15  C   UNL     1      30.688 -25.109 -14.169  0.00  0.00    +0.142 C 
ATOM     16  H   UNL     1      31.216 -22.999 -17.753  0.00  0.00    +0.166 HD
ATOM     17  H   UNL     1      36.285 -24.307 -13.109  0.00  0.00    +0.150 HD
ENDROOT
BRANCH   8  18
ATOM     18  C   UNL     1      33.684 -22.066 -18.378  0.00  0.00    +0.015 C 
ATOM     19  C   UNL     1      32.774 -21.332 -19.137  0.00  0.00    +0.001 C 
ATOM     20  C   UNL     1      35.032 -22.091 -18.732  0.00  0.00    +0.001 C 
ATOM     21  C   UNL     1      34.562 -20.646 -20.610  0.00  0.00    -0.044 C 
ATOM     22  C   UNL     1      33.214 -20.622 -20.254  0.00  0.00    -0.006 C 
ATOM     23  C   UNL     1      35.471 -21.380 -19.850  0.00  0.00    -0.006 C 
BRANCH  21  24
ATOM     24  C   UNL     1      35.032 -19.887 -21.805  0.00  0.00    -0.054 C 
BRANCH  24  25
ATOM     25  N   UNL     1      36.004 -18.878 -21.465  0.00  0.00    +0.385 N 
ATOM     26  C   UNL     1      35.396 -17.550 -21.397  0.00  0.00    -0.105 C 
ATOM     27  H   UNL     1      36.736 -18.871 -22.175  0.00  0.00    -0.084 HD
ATOM     28  H   UNL     1      36.389 -19.101 -20.548  0.00  0.00    -0.084 HD
ENDBRANCH  24  25
ENDBRANCH  21  24
ENDBRANCH   8  18
TORSDOF 3
ENDMDL
MODEL 2
REMARK VINA RESULT:     -10.4      1.897      3.034
REMARK  Name = 9931954
REMARK  3 active torsions:
REMARK  status: ('A' for Active; 'I' for Inactive)
REMARK    1  A    between atoms: C_8  and  C_18
REMARK    2  A    between atoms: C_21  and  C_24
REMARK    3  A    between atoms: C_24  and  N_25
REMARK                            x       y       z     vdW  Elec       q    Type
REMARK                         _______ _______ _______ _____ _____    ______ ____
ROOT
ATOM      1  F   UNL     1      36.312 -25.241 -12.127  0.00  0.00    -0.204 F 
ATOM      2  O   UNL     1      31.572 -25.879 -13.429  0.00  0.00    -0.270 OA
ATOM      3  N   UNL     1      35.654 -22.973 -16.374  0.00  0.00    -0.353 N 
ATOM      4  N   UNL     1      30.971 -24.199 -14.837  0.00  0.00    -0.301 N 
ATOM      5  C   UNL     1      33.446 -23.234 -16.423  0.00  0.00    -0.003 A 
ATOM      6  C   UNL     1      33.944 -23.854 -15.235  0.00  0.00    +0.018 A 
ATOM      7  C   UNL     1      32.016 -23.134 -16.813  0.00  0.00    +0.049 C 
ATOM      8  C   UNL     1      34.527 -22.714 -17.103  0.00  0.00    +0.053 A 
ATOM      9  C   UNL     1      35.328 -23.655 -15.225  0.00  0.00    +0.059 A 
ATOM     10  C   UNL     1      33.351 -24.560 -14.164  0.00  0.00    +0.057 C 
ATOM     11  C   UNL     1      31.128 -22.962 -15.588  0.00  0.00    +0.094 C 
ATOM     12  C   UNL     1      31.910 -24.914 -14.118  0.00  0.00    +0.246 C 
ATOM     13  C   UNL     1      36.156 -24.107 -14.193  0.00  0.00    +0.047 C 
ATOM     14  C   UNL     1      34.181 -25.020 -13.122  0.00  0.00    +0.034 C 
ATOM     15  C   UNL     1      35.555 -24.790 -13.137  0.00  0.00    +0.142 C 
ATOM     16  H   UNL     1      36.565 -22.709 -16.634  0.00  0.00    +0.166 HD
ATOM     17  H   UNL     1      30.064 -24.581 -14.841  0.00  0.00    +0.150 HD
ENDROOT
BRANCH   8  18
ATOM     18  C   UNL     1      34.594 -21.993 -18.354  0.00  0.00    +0.015 C 
ATOM     19  C   UNL     1      33.420 -21.607 -18.997  0.00  0.00    +0.001 C 
ATOM     20  C   UNL     1      35.834 -21.686 -18.913  0.00  0.00    +0.001 C 
ATOM     21  C   UNL     1      34.725 -20.603 -20.766  0.00  0.00    -0.044 C 
ATOM     22  C   UNL     1      33.486 -20.911 -20.205  0.00  0.00    -0.006 C 
ATOM     23  C   UNL     1      35.898 -20.990 -20.120  0.00  0.00    -0.006 C 
BRANCH  21  24
ATOM     24  C   UNL     1      34.795 -19.859 -22.056  0.00  0.00    -0.054 C 
BRANCH  24  25
ATOM     25  N   UNL     1      35.798 -18.825 -22.039  0.00  0.00    +0.385 N 
ATOM     26  C   UNL     1      35.279 -17.583 -21.467  0.00  0.00    -0.105 C 
ATOM     27  H   UNL     1      36.106 -18.645 -22.995  0.00  0.00    -0.084 HD
ATOM     28  H   UNL     1      36.576 -19.143 -21.461  0.00  0.00    -0.084 HD
ENDBRANCH  24  25
ENDBRANCH  21  24
ENDBRANCH   8  18
TORSDOF 3
ENDMDL
MODEL 3
REMARK VINA RESULT:      -9.9      9.574     14.347
REMARK  Name = 9931954
REMARK  3 active torsions:
REMARK  status: ('A' for Active; 'I' for Inactive)
REMARK    1  A    between atoms: C_8  and  C_18
REMARK    2  A    between atoms: C_21  and  C_24
REMARK    3  A    between atoms: C_24  and  N_25
REMARK                            x       y       z     vdW  Elec       q    Type
REMARK                         _______ _______ _______ _____ _____    ______ ____
ROOT
ATOM      1  F   UNL     1      35.457  -6.280 -23.779  0.00  0.00    -0.204 F 
ATOM      2  O   UNL     1      31.938  -7.530 -20.520  0.00  0.00    -0.270 OA
ATOM      3  N   UNL     1      34.906 -11.102 -24.015  0.00  0.00    -0.353 N 
ATOM      4  N   UNL     1      31.017  -9.506 -21.165  0.00  0.00    -0.301 N 
ATOM      5  C   UNL     1      33.119 -11.184 -22.696  0.00  0.00    -0.003 A 
ATOM      6  C   UNL     1      33.538  -9.821 -22.796  0.00  0.00    +0.018 A 
ATOM      7  C   UNL     1      31.928 -11.670 -21.951  0.00  0.00    +0.049 C 
ATOM      8  C   UNL     1      33.990 -11.943 -23.447  0.00  0.00    +0.053 A 
ATOM      9  C   UNL     1      34.649  -9.802 -23.646  0.00  0.00    +0.059 A 
ATOM     10  C   UNL     1      33.077  -8.601 -22.252  0.00  0.00    +0.057 C 
ATOM     11  C   UNL     1      30.791 -10.660 -22.023  0.00  0.00    +0.094 C 
ATOM     12  C   UNL     1      31.973  -8.513 -21.264  0.00  0.00    +0.246 C 
ATOM     13  C   UNL     1      35.318  -8.627 -24.000  0.00  0.00    +0.047 C 
ATOM     14  C   UNL     1      33.750  -7.413 -22.604  0.00  0.00    +0.034 C 
ATOM     15  C   UNL     1      34.844  -7.429 -23.466  0.00  0.00    +0.142 C 
ATOM     16  H   UNL     1      35.643 -11.386 -24.602  0.00  0.00    +0.166 HD
ATOM     17  H   UNL     1      30.400  -9.421 -20.404  0.00  0.00    +0.150 HD
ENDROOT
BRANCH   8  18
ATOM     18  C   UNL     1      34.031 -13.367 -23.689  0.00  0.00    +0.015 C 
ATOM     19  C   UNL     1      33.548 -13.882 -24.891  0.00  0.00    +0.001 C 
ATOM     20  C   UNL     1      34.554 -14.222 -22.720  0.00  0.00    +0.001 C 
ATOM     21  C   UNL     1      34.111 -16.113 -24.156  0.00  0.00    -0.044 C 
ATOM     22  C   UNL     1      33.588 -15.256 -25.124  0.00  0.00    -0.006 C 
ATOM     23  C   UNL     1      34.594 -15.596 -22.955  0.00  0.00    -0.006 C 
BRANCH  21  24
ATOM     24  C   UNL     1      34.154 -17.583 -24.405  0.00  0.00    -0.054 C 
BRANCH  24  25
ATOM     25  N   UNL     1      35.071 -18.262 -23.525  0.00  0.00    +0.385 N 
ATOM     26  C   UNL     1      34.439 -19.409 -22.874  0.00  0.00    -0.105 C 
ATOM     27  H   UNL     1      35.388 -17.608 -22.809  0.00  0.00    -0.084 HD
ATOM     28  H   UNL     1      35.855 -18.602 -24.080  0.00  0.00    -0.084 HD
ENDBRANCH  24  25
ENDBRANCH  21  24
ENDBRANCH   8  18
TORSDOF 3
ENDMDL
MODEL 4
REMARK VINA RESULT:      -9.8      6.423     10.858
REMARK  Name = 9931954
REMARK  3 active torsions:
REMARK  status: ('A' for Active; 'I' for Inactive)
REMARK    1  A    between atoms: C_8  and  C_18
REMARK    2  A    between atoms: C_21  and  C_24
REMARK    3  A    between atoms: C_24  and  N_25
REMARK                            x       y       z     vdW  Elec       q    Type
REMARK                         _______ _______ _______ _____ _____    ______ ____
ROOT
ATOM      1  F   UNL     1      33.170 -13.779 -26.893  0.00  0.00    -0.204 F 
ATOM      2  O   UNL     1      33.473 -11.576 -22.463  0.00  0.00    -0.270 OA
ATOM      3  N   UNL     1      34.722 -17.112 -23.715  0.00  0.00    -0.353 N 
ATOM      4  N   UNL     1      33.312 -13.166 -20.846  0.00  0.00    -0.301 N 
ATOM      5  C   UNL     1      34.427 -15.848 -21.910  0.00  0.00    -0.003 A 
ATOM      6  C   UNL     1      34.055 -15.082 -23.058  0.00  0.00    +0.018 A 
ATOM      7  C   UNL     1      34.332 -15.395 -20.498  0.00  0.00    +0.049 C 
ATOM      8  C   UNL     1      34.843 -17.085 -22.354  0.00  0.00    +0.053 A 
ATOM      9  C   UNL     1      34.232 -15.910 -24.171  0.00  0.00    +0.059 A 
ATOM     10  C   UNL     1      33.578 -13.767 -23.258  0.00  0.00    +0.057 C 
ATOM     11  C   UNL     1      33.117 -14.499 -20.296  0.00  0.00    +0.094 C 
ATOM     12  C   UNL     1      33.446 -12.771 -22.164  0.00  0.00    +0.246 C 
ATOM     13  C   UNL     1      33.942 -15.504 -25.477  0.00  0.00    +0.047 C 
ATOM     14  C   UNL     1      33.286 -13.352 -24.573  0.00  0.00    +0.034 C 
ATOM     15  C   UNL     1      33.460 -14.209 -25.658  0.00  0.00    +0.142 C 
ATOM     16  H   UNL     1      34.951 -17.880 -24.286  0.00  0.00    +0.166 HD
ATOM     17  H   UNL     1      33.355 -12.439 -20.184  0.00  0.00    +0.150 HD
ENDROOT
BRANCH   8  18
ATOM     18  C   UNL     1      35.325 -18.236 -21.624  0.00  0.00    +0.015 C 
ATOM     19  C   UNL     1      36.681 -18.349 -21.323  0.00  0.00    +0.001 C 
ATOM     20  C   UNL     1      34.433 -19.228 -21.223  0.00  0.00    +0.001 C 
ATOM     21  C   UNL     1      36.255 -20.454 -20.216  0.00  0.00    -0.044 C 
ATOM     22  C   UNL     1      37.147 -19.459 -20.618  0.00  0.00    -0.006 C 
ATOM     23  C   UNL     1      34.899 -20.338 -20.518  0.00  0.00    -0.006 C 
BRANCH  21  24
ATOM     24  C   UNL     1      36.752 -21.640 -19.462  0.00  0.00    -0.054 C 
BRANCH  24  25
ATOM     25  N   UNL     1      35.939 -21.938 -18.310  0.00  0.00    +0.385 N 
ATOM     26  C   UNL     1      36.748 -22.044 -17.096  0.00  0.00    -0.105 C 
ATOM     27  H   UNL     1      35.457 -22.823 -18.464  0.00  0.00    -0.084 HD
ATOM     28  H   UNL     1      35.272 -21.177 -18.184  0.00  0.00    -0.084 HD
ENDBRANCH  24  25
ENDBRANCH  21  24
ENDBRANCH   8  18
TORSDOF 3
ENDMDL
MODEL 5
REMARK VINA RESULT:      -9.5      9.547     13.804
REMARK  Name = 9931954
REMARK  3 active torsions:
REMARK  status: ('A' for Active; 'I' for Inactive)
REMARK    1  A    between atoms: C_8  and  C_18
REMARK    2  A    between atoms: C_21  and  C_24
REMARK    3  A    between atoms: C_24  and  N_25
REMARK                            x       y       z     vdW  Elec       q    Type
REMARK                         _______ _______ _______ _____ _____    ______ ____
ROOT
ATOM      1  F   UNL     1      34.305  -6.394 -23.148  0.00  0.00    -0.204 F 
ATOM      2  O   UNL     1      31.577  -8.412 -19.535  0.00  0.00    -0.270 OA
ATOM      3  N   UNL     1      34.372 -11.210 -23.794  0.00  0.00    -0.353 N 
ATOM      4  N   UNL     1      30.834 -10.444 -20.232  0.00  0.00    -0.301 N 
ATOM      5  C   UNL     1      32.856 -11.662 -22.232  0.00  0.00    -0.003 A 
ATOM      6  C   UNL     1      33.067 -10.248 -22.254  0.00  0.00    +0.018 A 
ATOM      7  C   UNL     1      31.882 -12.378 -21.368  0.00  0.00    +0.049 C 
ATOM      8  C   UNL     1      33.684 -12.220 -23.183  0.00  0.00    +0.053 A 
ATOM      9  C   UNL     1      34.008  -9.997 -23.258  0.00  0.00    +0.059 A 
ATOM     10  C   UNL     1      32.545  -9.158 -21.523  0.00  0.00    +0.057 C 
ATOM     11  C   UNL     1      30.624 -11.546 -21.160  0.00  0.00    +0.094 C 
ATOM     12  C   UNL     1      31.619  -9.315 -20.374  0.00  0.00    +0.246 C 
ATOM     13  C   UNL     1      34.447  -8.710 -23.587  0.00  0.00    +0.047 C 
ATOM     14  C   UNL     1      32.985  -7.859 -21.849  0.00  0.00    +0.034 C 
ATOM     15  C   UNL     1      33.912  -7.643 -22.866  0.00  0.00    +0.142 C 
ATOM     16  H   UNL     1      35.032 -11.333 -24.514  0.00  0.00    +0.166 HD
ATOM     17  H   UNL     1      30.346 -10.513 -19.380  0.00  0.00    +0.150 HD
ENDROOT
BRANCH   8  18
ATOM     18  C   UNL     1      33.875 -13.598 -23.574  0.00  0.00    +0.015 C 
ATOM     19  C   UNL     1      34.573 -14.467 -22.738  0.00  0.00    +0.001 C 
ATOM     20  C   UNL     1      33.359 -14.054 -24.787  0.00  0.00    +0.001 C 
ATOM     21  C   UNL     1      34.242 -16.256 -24.329  0.00  0.00    -0.044 C 
ATOM     22  C   UNL     1      34.756 -15.798 -23.116  0.00  0.00    -0.006 C 
ATOM     23  C   UNL     1      33.544 -15.384 -25.164  0.00  0.00    -0.006 C 
BRANCH  21  24
ATOM     24  C   UNL     1      34.438 -17.677 -24.733  0.00  0.00    -0.054 C 
BRANCH  24  25
ATOM     25  N   UNL     1      33.706 -18.592 -23.893  0.00  0.00    +0.385 N 
ATOM     26  C   UNL     1      34.605 -19.432 -23.104  0.00  0.00    -0.105 C 
ATOM     27  H   UNL     1      33.125 -19.190 -24.482  0.00  0.00    -0.084 HD
ATOM     28  H   UNL     1      33.132 -18.046 -23.251  0.00  0.00    -0.084 HD
ENDBRANCH  24  25
ENDBRANCH  21  24
ENDBRANCH   8  18
TORSDOF 3
ENDMDL
MODEL 6
REMARK VINA RESULT:      -9.1     12.638     16.050
REMARK  Name = 9931954
REMARK  3 active torsions:
REMARK  status: ('A' for Active; 'I' for Inactive)
REMARK    1  A    between atoms: C_8  and  C_18
REMARK    2  A    between atoms: C_21  and  C_24
REMARK    3  A    between atoms: C_24  and  N_25
REMARK                            x       y       z     vdW  Elec       q    Type
REMARK                         _______ _______ _______ _____ _____    ______ ____
ROOT
ATOM      1  F   UNL     1      31.855 -13.682 -21.686  0.00  0.00    -0.204 F 
ATOM      2  O   UNL     1      30.655 -10.122 -18.453  0.00  0.00    -0.270 OA
ATOM      3  N   UNL     1      32.985  -9.421 -23.732  0.00  0.00    -0.353 N 
ATOM      4  N   UNL     1      31.907  -8.278 -18.902  0.00  0.00    -0.301 N 
ATOM      5  C   UNL     1      32.596  -8.197 -21.917  0.00  0.00    -0.003 A 
ATOM      6  C   UNL     1      32.311  -9.562 -21.604  0.00  0.00    +0.018 A 
ATOM      7  C   UNL     1      32.518  -7.057 -20.967  0.00  0.00    +0.049 C 
ATOM      8  C   UNL     1      32.995  -8.148 -23.236  0.00  0.00    +0.053 A 
ATOM      9  C   UNL     1      32.584 -10.306 -22.757  0.00  0.00    +0.059 A 
ATOM     10  C   UNL     1      31.854 -10.239 -20.451  0.00  0.00    +0.057 C 
ATOM     11  C   UNL     1      32.931  -7.486 -19.566  0.00  0.00    +0.094 C 
ATOM     12  C   UNL     1      31.441  -9.544 -19.207  0.00  0.00    +0.246 C 
ATOM     13  C   UNL     1      32.443 -11.696 -22.819  0.00  0.00    +0.047 C 
ATOM     14  C   UNL     1      31.708 -11.640 -20.509  0.00  0.00    +0.034 C 
ATOM     15  C   UNL     1      32.004 -12.351 -21.670  0.00  0.00    +0.142 C 
ATOM     16  H   UNL     1      33.229  -9.669 -24.652  0.00  0.00    +0.166 HD
ATOM     17  H   UNL     1      31.484  -7.851 -18.123  0.00  0.00    +0.150 HD
ENDROOT
BRANCH   8  18
ATOM     18  C   UNL     1      33.394  -7.028 -24.059  0.00  0.00    +0.015 C 
ATOM     19  C   UNL     1      32.424  -6.225 -24.656  0.00  0.00    +0.001 C 
ATOM     20  C   UNL     1      34.747  -6.755 -24.252  0.00  0.00    +0.001 C 
ATOM     21  C   UNL     1      34.163  -4.870 -25.645  0.00  0.00    -0.044 C 
ATOM     22  C   UNL     1      32.809  -5.145 -25.450  0.00  0.00    -0.006 C 
ATOM     23  C   UNL     1      35.131  -5.675 -25.047  0.00  0.00    -0.006 C 
BRANCH  21  24
ATOM     24  C   UNL     1      34.574  -3.715 -26.494  0.00  0.00    -0.054 C 
BRANCH  24  25
ATOM     25  N   UNL     1      33.933  -3.728 -27.785  0.00  0.00    +0.385 N 
ATOM     26  C   UNL     1      34.629  -4.610 -28.720  0.00  0.00    -0.105 C 
ATOM     27  H   UNL     1      33.930  -2.780 -28.163  0.00  0.00    -0.084 HD
ATOM     28  H   UNL     1      32.981  -4.075 -27.666  0.00  0.00    -0.084 HD
ENDBRANCH  24  25
ENDBRANCH  21  24
ENDBRANCH   8  18
TORSDOF 3
ENDMDL
MODEL 7
REMARK VINA RESULT:      -9.1      2.438      3.814
REMARK  Name = 9931954
REMARK  3 active torsions:
REMARK  status: ('A' for Active; 'I' for Inactive)
REMARK    1  A    between atoms: C_8  and  C_18
REMARK    2  A    between atoms: C_21  and  C_24
REMARK    3  A    between atoms: C_24  and  N_25
REMARK                            x       y       z     vdW  Elec       q    Type
REMARK                         _______ _______ _______ _____ _____    ______ ____
ROOT
ATOM      1  F   UNL     1      38.015 -23.996 -13.396  0.00  0.00    -0.204 F 
ATOM      2  O   UNL     1      33.353 -25.516 -14.120  0.00  0.00    -0.270 OA
ATOM      3  N   UNL     1      36.469 -22.011 -17.553  0.00  0.00    -0.353 N 
ATOM      4  N   UNL     1      32.297 -24.013 -15.460  0.00  0.00    -0.301 N 
ATOM      5  C   UNL     1      34.356 -22.666 -17.337  0.00  0.00    -0.003 A 
ATOM      6  C   UNL     1      35.092 -23.152 -16.212  0.00  0.00    +0.018 A 
ATOM      7  C   UNL     1      32.896 -22.837 -17.556  0.00  0.00    +0.049 C 
ATOM      8  C   UNL     1      35.238 -21.981 -18.145  0.00  0.00    +0.053 A 
ATOM      9  C   UNL     1      36.409 -22.706 -16.368  0.00  0.00    +0.059 A 
ATOM     10  C   UNL     1      34.765 -23.920 -15.072  0.00  0.00    +0.057 C 
ATOM     11  C   UNL     1      32.139 -22.791 -16.235  0.00  0.00    +0.094 C 
ATOM     12  C   UNL     1      33.428 -24.527 -14.852  0.00  0.00    +0.246 C 
ATOM     13  C   UNL     1      37.419 -22.971 -15.438  0.00  0.00    +0.047 C 
ATOM     14  C   UNL     1      35.780 -24.192 -14.132  0.00  0.00    +0.034 C 
ATOM     15  C   UNL     1      37.078 -23.719 -14.312  0.00  0.00    +0.142 C 
ATOM     16  H   UNL     1      37.281 -21.595 -17.921  0.00  0.00    +0.166 HD
ATOM     17  H   UNL     1      31.481 -24.553 -15.354  0.00  0.00    +0.150 HD
ENDROOT
BRANCH   8  18
ATOM     18  C   UNL     1      35.028 -21.298 -19.401  0.00  0.00    +0.015 C 
ATOM     19  C   UNL     1      36.110 -21.045 -20.243  0.00  0.00    +0.001 C 
ATOM     20  C   UNL     1      33.745 -20.893 -19.767  0.00  0.00    +0.001 C 
ATOM     21  C   UNL     1      34.624 -19.979 -21.823  0.00  0.00    -0.044 C 
ATOM     22  C   UNL     1      35.907 -20.384 -21.455  0.00  0.00    -0.006 C 
ATOM     23  C   UNL     1      33.544 -20.233 -20.979  0.00  0.00    -0.006 C 
BRANCH  21  24
ATOM     24  C   UNL     1      34.408 -19.273 -23.118  0.00  0.00    -0.054 C 
BRANCH  24  25
ATOM     25  N   UNL     1      34.888 -17.914 -23.089  0.00  0.00    +0.385 N 
ATOM     26  C   UNL     1      34.647 -17.233 -24.360  0.00  0.00    -0.105 C 
ATOM     27  H   UNL     1      35.891 -17.921 -22.902  0.00  0.00    -0.084 HD
ATOM     28  H   UNL     1      34.385 -17.413 -22.357  0.00  0.00    -0.084 HD
ENDBRANCH  24  25
ENDBRANCH  21  24
ENDBRANCH   8  18
TORSDOF 3
ENDMDL
MODEL 8
REMARK VINA RESULT:      -8.9      4.077      6.153
REMARK  Name = 9931954
REMARK  3 active torsions:
REMARK  status: ('A' for Active; 'I' for Inactive)
REMARK    1  A    between atoms: C_8  and  C_18
REMARK    2  A    between atoms: C_21  and  C_24
REMARK    3  A    between atoms: C_24  and  N_25
REMARK                            x       y       z     vdW  Elec       q    Type
REMARK                         _______ _______ _______ _____ _____    ______ ____
ROOT
ATOM      1  F   UNL     1      38.991 -22.864 -16.241  0.00  0.00    -0.204 F 
ATOM      2  O   UNL     1      37.724 -26.070 -12.679  0.00  0.00    -0.270 OA
ATOM      3  N   UNL     1      34.140 -22.873 -15.953  0.00  0.00    -0.353 N 
ATOM      4  N   UNL     1      35.670 -25.504 -11.887  0.00  0.00    -0.301 N 
ATOM      5  C   UNL     1      34.031 -24.136 -14.127  0.00  0.00    -0.003 A 
ATOM      6  C   UNL     1      35.407 -23.975 -14.477  0.00  0.00    +0.018 A 
ATOM      7  C   UNL     1      33.520 -24.867 -12.938  0.00  0.00    +0.049 C 
ATOM      8  C   UNL     1      33.282 -23.455 -15.063  0.00  0.00    +0.053 A 
ATOM      9  C   UNL     1      35.442 -23.162 -15.615  0.00  0.00    +0.059 A 
ATOM     10  C   UNL     1      36.628 -24.437 -13.934  0.00  0.00    +0.057 C 
ATOM     11  C   UNL     1      34.462 -24.703 -11.752  0.00  0.00    +0.094 C 
ATOM     12  C   UNL     1      36.707 -25.382 -12.792  0.00  0.00    +0.246 C 
ATOM     13  C   UNL     1      36.632 -22.767 -16.234  0.00  0.00    +0.047 C 
ATOM     14  C   UNL     1      37.830 -24.043 -14.556  0.00  0.00    +0.034 C 
ATOM     15  C   UNL     1      37.828 -23.219 -15.679  0.00  0.00    +0.142 C 
ATOM     16  H   UNL     1      33.866 -22.326 -16.724  0.00  0.00    +0.166 HD
ATOM     17  H   UNL     1      35.761 -26.239 -11.239  0.00  0.00    +0.150 HD
ENDROOT
BRANCH   8  18
ATOM     18  C   UNL     1      31.851 -23.293 -15.188  0.00  0.00    +0.015 C 
ATOM     19  C   UNL     1      31.063 -23.183 -14.044  0.00  0.00    +0.001 C 
ATOM     20  C   UNL     1      31.265 -23.245 -16.451  0.00  0.00    +0.001 C 
ATOM     21  C   UNL     1      29.093 -22.979 -15.428  0.00  0.00    -0.044 C 
ATOM     22  C   UNL     1      29.682 -23.026 -14.164  0.00  0.00    -0.006 C 
ATOM     23  C   UNL     1      29.884 -23.088 -16.571  0.00  0.00    -0.006 C 
BRANCH  21  24
ATOM     24  C   UNL     1      27.617 -22.811 -15.557  0.00  0.00    -0.054 C 
BRANCH  24  25
ATOM     25  N   UNL     1      27.189 -22.753 -16.932  0.00  0.00    +0.385 N 
ATOM     26  C   UNL     1      26.189 -21.707 -17.139  0.00  0.00    -0.105 C 
ATOM     27  H   UNL     1      26.786 -23.653 -17.192  0.00  0.00    -0.084 HD
ATOM     28  H   UNL     1      28.001 -22.538 -17.510  0.00  0.00    -0.084 HD
ENDBRANCH  24  25
ENDBRANCH  21  24
ENDBRANCH   8  18
TORSDOF 3
ENDMDL
