MODEL 1
REMARK VINA RESULT:     -11.7      0.000      0.000
REMARK  Name = 5327066
REMARK  6 active torsions:
REMARK  status: ('A' for Active; 'I' for Inactive)
REMARK    1  A    between atoms: C_2  and  C_6
REMARK    2  A    between atoms: C_2  and  C_20
REMARK    3  A    between atoms: C_3  and  O_9
REMARK    4  A    between atoms: O_9  and  C_11
REMARK    5  A    between atoms: N_18  and  C_24
REMARK    6  A    between atoms: C_21  and  N_30
REMARK                            x       y       z     vdW  Elec       q    Type
REMARK                         _______ _______ _______ _____ _____    ______ ____
ROOT
ATOM      1  O   UNL     1      33.919 -23.511 -19.517  0.00  0.00    -0.286 OA
ATOM      2  C   UNL     1      34.561 -22.677 -18.861  0.00  0.00    +0.200 C 
ENDROOT
BRANCH   2   6
ATOM      3  C   UNL     1      33.828 -23.675 -15.332  0.00  0.00    +0.138 C 
ATOM      4  C   UNL     1      33.683 -23.488 -16.702  0.00  0.00    +0.040 C 
ATOM      5  C   UNL     1      34.982 -23.257 -14.678  0.00  0.00    +0.037 C 
ATOM      6  C   UNL     1      34.705 -22.876 -17.427  0.00  0.00    +0.042 C 
ATOM      7  C   UNL     1      36.004 -22.647 -15.404  0.00  0.00    +0.003 C 
ATOM      8  C   UNL     1      35.866 -22.455 -16.778  0.00  0.00    +0.003 C 
BRANCH   3   9
ATOM      9  O   UNL     1      32.824 -24.276 -14.619  0.00  0.00    -0.479 OA
BRANCH   9  11
ATOM     10  N   UNL     1      29.558 -25.515 -13.844  0.00  0.00    +0.384 N 
ATOM     11  C   UNL     1      31.622 -23.527 -14.446  0.00  0.00    +0.162 C 
ATOM     12  C   UNL     1      31.078 -23.739 -13.033  0.00  0.00    +0.020 C 
ATOM     13  C   UNL     1      30.604 -23.990 -15.488  0.00  0.00    +0.020 C 
ATOM     14  C   UNL     1      30.560 -25.166 -12.836  0.00  0.00    -0.078 C 
ATOM     15  C   UNL     1      30.101 -25.405 -15.198  0.00  0.00    -0.078 C 
ATOM     16  H   UNL     1      28.762 -24.883 -13.752  0.00  0.00    -0.085 HD
ATOM     17  H   UNL     1      29.273 -26.482 -13.690  0.00  0.00    -0.085 HD
ENDBRANCH   9  11
ENDBRANCH   3   9
ENDBRANCH   2   6
BRANCH   2  20
ATOM     18  N   UNL     1      35.416 -19.709 -20.674  0.00  0.00    -0.177 N 
ATOM     19  N   UNL     1      36.653 -19.985 -20.226  0.00  0.00    -0.171 NA
ATOM     20  C   UNL     1      35.155 -21.498 -19.527  0.00  0.00    +0.088 C 
ATOM     21  C   UNL     1      34.471 -20.606 -20.270  0.00  0.00    +0.122 C 
ATOM     22  C   UNL     1      36.475 -21.101 -19.514  0.00  0.00    +0.124 C 
BRANCH  18  24
ATOM     23  F   UNL     1      34.607 -15.266 -23.834  0.00  0.00    -0.204 F 
ATOM     24  C   UNL     1      35.211 -18.584 -21.474  0.00  0.00    +0.075 C 
ATOM     25  C   UNL     1      35.059 -18.738 -22.845  0.00  0.00    +0.019 C 
ATOM     26  C   UNL     1      35.163 -17.327 -20.887  0.00  0.00    +0.019 C 
ATOM     27  C   UNL     1      34.855 -17.614 -23.645  0.00  0.00    +0.031 C 
ATOM     28  C   UNL     1      34.958 -16.202 -21.687  0.00  0.00    +0.031 C 
ATOM     29  C   UNL     1      34.804 -16.346 -23.066  0.00  0.00    +0.140 C 
ENDBRANCH  18  24
BRANCH  21  30
ATOM     30  N   UNL     1      33.171 -20.490 -20.623  0.00  0.00    -0.344 N 
ATOM     31  H   UNL     1      32.485 -20.334 -19.934  0.00  0.00    +0.144 HD
ATOM     32  H   UNL     1      32.910 -20.561 -21.569  0.00  0.00    +0.144 HD
ENDBRANCH  21  30
ENDBRANCH   2  20
TORSDOF 6
ENDMDL
MODEL 2
REMARK VINA RESULT:     -11.6      2.297      3.503
REMARK  Name = 5327066
REMARK  6 active torsions:
REMARK  status: ('A' for Active; 'I' for Inactive)
REMARK    1  A    between atoms: C_2  and  C_6
REMARK    2  A    between atoms: C_2  and  C_20
REMARK    3  A    between atoms: C_3  and  O_9
REMARK    4  A    between atoms: O_9  and  C_11
REMARK    5  A    between atoms: N_18  and  C_24
REMARK    6  A    between atoms: C_21  and  N_30
REMARK                            x       y       z     vdW  Elec       q    Type
REMARK                         _______ _______ _______ _____ _____    ______ ____
ROOT
ATOM      1  O   UNL     1      33.780 -24.131 -19.369  0.00  0.00    -0.286 OA
ATOM      2  C   UNL     1      34.101 -23.151 -18.680  0.00  0.00    +0.200 C 
ENDROOT
BRANCH   2   6
ATOM      3  C   UNL     1      34.453 -23.199 -14.956  0.00  0.00    +0.138 C 
ATOM      4  C   UNL     1      34.781 -23.197 -16.307  0.00  0.00    +0.040 C 
ATOM      5  C   UNL     1      33.124 -23.160 -14.550  0.00  0.00    +0.037 C 
ATOM      6  C   UNL     1      33.766 -23.154 -17.264  0.00  0.00    +0.042 C 
ATOM      7  C   UNL     1      32.110 -23.116 -15.506  0.00  0.00    +0.003 C 
ATOM      8  C   UNL     1      32.431 -23.113 -16.863  0.00  0.00    +0.003 C 
BRANCH   3   9
ATOM      9  O   UNL     1      35.449 -23.242 -14.016  0.00  0.00    -0.479 OA
BRANCH   9  11
ATOM     10  N   UNL     1      38.112 -24.395 -11.924  0.00  0.00    +0.384 N 
ATOM     11  C   UNL     1      35.441 -24.352 -13.121  0.00  0.00    +0.162 C 
ATOM     12  C   UNL     1      35.706 -23.869 -11.695  0.00  0.00    +0.020 C 
ATOM     13  C   UNL     1      36.518 -25.343 -13.560  0.00  0.00    +0.020 C 
ATOM     14  C   UNL     1      37.144 -23.373 -11.525  0.00  0.00    -0.078 C 
ATOM     15  C   UNL     1      37.925 -24.794 -13.318  0.00  0.00    -0.078 C 
ATOM     16  H   UNL     1      37.996 -25.213 -11.325  0.00  0.00    -0.085 HD
ATOM     17  H   UNL     1      39.049 -24.003 -11.825  0.00  0.00    -0.085 HD
ENDBRANCH   9  11
ENDBRANCH   3   9
ENDBRANCH   2   6
BRANCH   2  20
ATOM     18  N   UNL     1      35.227 -20.219 -20.399  0.00  0.00    -0.177 N 
ATOM     19  N   UNL     1      36.415 -20.564 -19.876  0.00  0.00    -0.171 NA
ATOM     20  C   UNL     1      34.798 -22.001 -19.292  0.00  0.00    +0.088 C 
ATOM     21  C   UNL     1      34.212 -21.068 -20.068  0.00  0.00    +0.122 C 
ATOM     22  C   UNL     1      36.134 -21.674 -19.189  0.00  0.00    +0.124 C 
BRANCH  18  24
ATOM     23  F   UNL     1      34.857 -15.717 -23.557  0.00  0.00    -0.204 F 
ATOM     24  C   UNL     1      35.134 -19.079 -21.199  0.00  0.00    +0.075 C 
ATOM     25  C   UNL     1      35.287 -17.825 -20.623  0.00  0.00    +0.019 C 
ATOM     26  C   UNL     1      34.889 -19.215 -22.559  0.00  0.00    +0.019 C 
ATOM     27  C   UNL     1      35.192 -16.686 -21.422  0.00  0.00    +0.031 C 
ATOM     28  C   UNL     1      34.795 -18.076 -23.358  0.00  0.00    +0.031 C 
ATOM     29  C   UNL     1      34.947 -16.811 -22.789  0.00  0.00    +0.140 C 
ENDBRANCH  18  24
BRANCH  21  30
ATOM     30  N   UNL     1      32.946 -20.881 -20.503  0.00  0.00    -0.344 N 
ATOM     31  H   UNL     1      32.590 -19.968 -20.607  0.00  0.00    +0.144 HD
ATOM     32  H   UNL     1      32.379 -21.657 -20.718  0.00  0.00    +0.144 HD
ENDBRANCH  21  30
ENDBRANCH   2  20
TORSDOF 6
ENDMDL
MODEL 3
REMARK VINA RESULT:     -11.6      2.819      4.413
REMARK  Name = 5327066
REMARK  6 active torsions:
REMARK  status: ('A' for Active; 'I' for Inactive)
REMARK    1  A    between atoms: C_2  and  C_6
REMARK    2  A    between atoms: C_2  and  C_20
REMARK    3  A    between atoms: C_3  and  O_9
REMARK    4  A    between atoms: O_9  and  C_11
REMARK    5  A    between atoms: N_18  and  C_24
REMARK    6  A    between atoms: C_21  and  N_30
REMARK                            x       y       z     vdW  Elec       q    Type
REMARK                         _______ _______ _______ _____ _____    ______ ____
ROOT
ATOM      1  O   UNL     1      37.179 -19.738 -20.280  0.00  0.00    -0.286 OA
ATOM      2  C   UNL     1      35.988 -19.753 -20.627  0.00  0.00    +0.200 C 
ENDROOT
BRANCH   2   6
ATOM      3  C   UNL     1      34.669 -22.374 -18.307  0.00  0.00    +0.138 C 
ATOM      4  C   UNL     1      35.551 -21.521 -18.960  0.00  0.00    +0.040 C 
ATOM      5  C   UNL     1      33.315 -22.367 -18.618  0.00  0.00    +0.037 C 
ATOM      6  C   UNL     1      35.072 -20.649 -19.938  0.00  0.00    +0.042 C 
ATOM      7  C   UNL     1      32.835 -21.494 -19.595  0.00  0.00    +0.003 C 
ATOM      8  C   UNL     1      33.714 -20.636 -20.255  0.00  0.00    +0.003 C 
BRANCH   3   9
ATOM      9  O   UNL     1      35.140 -23.231 -17.346  0.00  0.00    -0.479 OA
BRANCH   9  11
ATOM     10  N   UNL     1      36.688 -24.671 -14.460  0.00  0.00    +0.384 N 
ATOM     11  C   UNL     1      35.050 -22.790 -15.993  0.00  0.00    +0.162 C 
ATOM     12  C   UNL     1      36.442 -22.428 -15.473  0.00  0.00    +0.020 C 
ATOM     13  C   UNL     1      34.439 -23.910 -15.153  0.00  0.00    +0.020 C 
ATOM     14  C   UNL     1      37.325 -23.667 -15.313  0.00  0.00    -0.078 C 
ATOM     15  C   UNL     1      35.397 -25.093 -15.003  0.00  0.00    -0.078 C 
ATOM     16  H   UNL     1      36.545 -24.274 -13.531  0.00  0.00    -0.085 HD
ATOM     17  H   UNL     1      37.299 -25.487 -14.415  0.00  0.00    -0.085 HD
ENDBRANCH   9  11
ENDBRANCH   3   9
ENDBRANCH   2   6
BRANCH   2  20
ATOM     18  N   UNL     1      34.823 -17.205 -22.857  0.00  0.00    -0.177 N 
ATOM     19  N   UNL     1      34.890 -18.194 -23.764  0.00  0.00    -0.171 NA
ATOM     20  C   UNL     1      35.518 -18.886 -21.727  0.00  0.00    +0.088 C 
ATOM     21  C   UNL     1      35.199 -17.584 -21.601  0.00  0.00    +0.122 C 
ATOM     22  C   UNL     1      35.324 -19.234 -23.048  0.00  0.00    +0.124 C 
BRANCH  18  24
ATOM     23  F   UNL     1      33.140 -12.196 -24.425  0.00  0.00    -0.204 F 
ATOM     24  C   UNL     1      34.398 -15.936 -23.254  0.00  0.00    +0.075 C 
ATOM     25  C   UNL     1      34.566 -14.858 -22.396  0.00  0.00    +0.019 C 
ATOM     26  C   UNL     1      33.811 -15.772 -24.501  0.00  0.00    +0.019 C 
ATOM     27  C   UNL     1      34.139 -13.591 -22.793  0.00  0.00    +0.031 C 
ATOM     28  C   UNL     1      33.385 -14.504 -24.898  0.00  0.00    +0.031 C 
ATOM     29  C   UNL     1      33.549 -13.414 -24.043  0.00  0.00    +0.140 C 
ENDBRANCH  18  24
BRANCH  21  30
ATOM     30  N   UNL     1      35.196 -16.723 -20.559  0.00  0.00    -0.344 N 
ATOM     31  H   UNL     1      35.550 -15.811 -20.672  0.00  0.00    +0.144 HD
ATOM     32  H   UNL     1      34.839 -17.007 -19.687  0.00  0.00    +0.144 HD
ENDBRANCH  21  30
ENDBRANCH   2  20
TORSDOF 6
ENDMDL
MODEL 4
REMARK VINA RESULT:     -11.2      1.364      2.236
REMARK  Name = 5327066
REMARK  6 active torsions:
REMARK  status: ('A' for Active; 'I' for Inactive)
REMARK    1  A    between atoms: C_2  and  C_6
REMARK    2  A    between atoms: C_2  and  C_20
REMARK    3  A    between atoms: C_3  and  O_9
REMARK    4  A    between atoms: O_9  and  C_11
REMARK    5  A    between atoms: N_18  and  C_24
REMARK    6  A    between atoms: C_21  and  N_30
REMARK                            x       y       z     vdW  Elec       q    Type
REMARK                         _______ _______ _______ _____ _____    ______ ____
ROOT
ATOM      1  O   UNL     1      36.870 -22.420 -18.059  0.00  0.00    -0.286 OA
ATOM      2  C   UNL     1      35.644 -22.235 -18.008  0.00  0.00    +0.200 C 
ENDROOT
BRANCH   2   6
ATOM      3  C   UNL     1      32.846 -23.645 -15.966  0.00  0.00    +0.138 C 
ATOM      4  C   UNL     1      33.550 -23.113 -17.040  0.00  0.00    +0.040 C 
ATOM      5  C   UNL     1      33.473 -23.861 -14.744  0.00  0.00    +0.037 C 
ATOM      6  C   UNL     1      34.899 -22.792 -16.889  0.00  0.00    +0.042 C 
ATOM      7  C   UNL     1      34.822 -23.541 -14.594  0.00  0.00    +0.003 C 
ATOM      8  C   UNL     1      35.535 -23.006 -15.667  0.00  0.00    +0.003 C 
BRANCH   3   9
ATOM      9  O   UNL     1      31.520 -23.960 -16.113  0.00  0.00    -0.479 OA
BRANCH   9  11
ATOM     10  N   UNL     1      28.006 -23.679 -15.501  0.00  0.00    +0.384 N 
ATOM     11  C   UNL     1      30.808 -24.310 -14.928  0.00  0.00    +0.162 C 
ATOM     12  C   UNL     1      29.774 -25.391 -15.246  0.00  0.00    +0.020 C 
ATOM     13  C   UNL     1      30.123 -23.058 -14.381  0.00  0.00    +0.020 C 
ATOM     14  C   UNL     1      28.638 -24.847 -16.115  0.00  0.00    -0.078 C 
ATOM     15  C   UNL     1      28.972 -22.603 -15.281  0.00  0.00    -0.078 C 
ATOM     16  H   UNL     1      27.604 -23.953 -14.604  0.00  0.00    -0.085 HD
ATOM     17  H   UNL     1      27.283 -23.336 -16.134  0.00  0.00    -0.085 HD
ENDBRANCH   9  11
ENDBRANCH   3   9
ENDBRANCH   2   6
BRANCH   2  20
ATOM     18  N   UNL     1      34.544 -20.146 -20.700  0.00  0.00    -0.177 N 
ATOM     19  N   UNL     1      33.350 -20.700 -20.430  0.00  0.00    -0.171 NA
ATOM     20  C   UNL     1      34.957 -21.475 -19.073  0.00  0.00    +0.088 C 
ATOM     21  C   UNL     1      35.553 -20.592 -19.897  0.00  0.00    +0.122 C 
ATOM     22  C   UNL     1      33.622 -21.525 -19.415  0.00  0.00    +0.124 C 
BRANCH  18  24
ATOM     23  F   UNL     1      34.954 -16.443 -24.762  0.00  0.00    -0.204 F 
ATOM     24  C   UNL     1      34.648 -19.208 -21.729  0.00  0.00    +0.075 C 
ATOM     25  C   UNL     1      35.130 -17.937 -21.450  0.00  0.00    +0.019 C 
ATOM     26  C   UNL     1      34.268 -19.561 -23.017  0.00  0.00    +0.019 C 
ATOM     27  C   UNL     1      35.232 -17.000 -22.477  0.00  0.00    +0.031 C 
ATOM     28  C   UNL     1      34.371 -18.624 -24.045  0.00  0.00    +0.031 C 
ATOM     29  C   UNL     1      34.854 -17.343 -23.775  0.00  0.00    +0.140 C 
ENDBRANCH  18  24
BRANCH  21  30
ATOM     30  N   UNL     1      36.823 -20.146 -20.023  0.00  0.00    -0.344 N 
ATOM     31  H   UNL     1      37.458 -20.250 -19.278  0.00  0.00    +0.144 HD
ATOM     32  H   UNL     1      37.113 -19.717 -20.861  0.00  0.00    +0.144 HD
ENDBRANCH  21  30
ENDBRANCH   2  20
TORSDOF 6
ENDMDL
MODEL 5
REMARK VINA RESULT:     -11.0      2.474      3.611
REMARK  Name = 5327066
REMARK  6 active torsions:
REMARK  status: ('A' for Active; 'I' for Inactive)
REMARK    1  A    between atoms: C_2  and  C_6
REMARK    2  A    between atoms: C_2  and  C_20
REMARK    3  A    between atoms: C_3  and  O_9
REMARK    4  A    between atoms: O_9  and  C_11
REMARK    5  A    between atoms: N_18  and  C_24
REMARK    6  A    between atoms: C_21  and  N_30
REMARK                            x       y       z     vdW  Elec       q    Type
REMARK                         _______ _______ _______ _____ _____    ______ ____
ROOT
ATOM      1  O   UNL     1      36.844 -22.385 -18.272  0.00  0.00    -0.286 OA
ATOM      2  C   UNL     1      35.623 -22.179 -18.204  0.00  0.00    +0.200 C 
ENDROOT
BRANCH   2   6
ATOM      3  C   UNL     1      34.763 -23.369 -14.763  0.00  0.00    +0.138 C 
ATOM      4  C   UNL     1      35.478 -22.831 -15.827  0.00  0.00    +0.040 C 
ATOM      5  C   UNL     1      33.460 -23.818 -14.941  0.00  0.00    +0.037 C 
ATOM      6  C   UNL     1      34.882 -22.741 -17.085  0.00  0.00    +0.042 C 
ATOM      7  C   UNL     1      32.863 -23.728 -16.197  0.00  0.00    +0.003 C 
ATOM      8  C   UNL     1      33.574 -23.190 -17.270  0.00  0.00    +0.003 C 
BRANCH   3   9
ATOM      9  O   UNL     1      35.349 -23.457 -13.528  0.00  0.00    -0.479 OA
BRANCH   9  11
ATOM     10  N   UNL     1      37.842 -24.611 -11.234  0.00  0.00    +0.384 N 
ATOM     11  C   UNL     1      35.493 -24.764 -12.977  0.00  0.00    +0.162 C 
ATOM     12  C   UNL     1      35.379 -24.701 -11.453  0.00  0.00    +0.020 C 
ATOM     13  C   UNL     1      36.855 -25.322 -13.389  0.00  0.00    +0.020 C 
ATOM     14  C   UNL     1      36.581 -23.990 -10.826  0.00  0.00    -0.078 C 
ATOM     15  C   UNL     1      38.002 -24.591 -12.688  0.00  0.00    -0.078 C 
ATOM     16  H   UNL     1      37.853 -25.579 -10.912  0.00  0.00    -0.085 HD
ATOM     17  H   UNL     1      38.608 -24.081 -10.819  0.00  0.00    -0.085 HD
ENDBRANCH   9  11
ENDBRANCH   3   9
ENDBRANCH   2   6
BRANCH   2  20
ATOM     18  N   UNL     1      34.528 -20.028 -20.849  0.00  0.00    -0.177 N 
ATOM     19  N   UNL     1      33.329 -20.567 -20.573  0.00  0.00    -0.171 NA
ATOM     20  C   UNL     1      34.937 -21.391 -19.248  0.00  0.00    +0.088 C 
ATOM     21  C   UNL     1      35.539 -20.504 -20.065  0.00  0.00    +0.122 C 
ATOM     22  C   UNL     1      33.598 -21.413 -19.576  0.00  0.00    +0.124 C 
BRANCH  18  24
ATOM     23  F   UNL     1      34.959 -16.267 -24.854  0.00  0.00    -0.204 F 
ATOM     24  C   UNL     1      34.637 -19.076 -21.863  0.00  0.00    +0.075 C 
ATOM     25  C   UNL     1      34.290 -19.418 -23.163  0.00  0.00    +0.019 C 
ATOM     26  C   UNL     1      35.091 -17.800 -21.557  0.00  0.00    +0.019 C 
ATOM     27  C   UNL     1      34.400 -18.466 -24.176  0.00  0.00    +0.031 C 
ATOM     28  C   UNL     1      35.199 -16.848 -22.571  0.00  0.00    +0.031 C 
ATOM     29  C   UNL     1      34.854 -17.181 -23.881  0.00  0.00    +0.140 C 
ENDBRANCH  18  24
BRANCH  21  30
ATOM     30  N   UNL     1      36.814 -20.077 -20.198  0.00  0.00    -0.344 N 
ATOM     31  H   UNL     1      37.402 -20.485 -20.875  0.00  0.00    +0.144 HD
ATOM     32  H   UNL     1      37.156 -19.359 -19.618  0.00  0.00    +0.144 HD
ENDBRANCH  21  30
ENDBRANCH   2  20
TORSDOF 6
ENDMDL
MODEL 6
REMARK VINA RESULT:     -10.8      6.819     10.696
REMARK  Name = 5327066
REMARK  6 active torsions:
REMARK  status: ('A' for Active; 'I' for Inactive)
REMARK    1  A    between atoms: C_2  and  C_6
REMARK    2  A    between atoms: C_2  and  C_20
REMARK    3  A    between atoms: C_3  and  O_9
REMARK    4  A    between atoms: O_9  and  C_11
REMARK    5  A    between atoms: N_18  and  C_24
REMARK    6  A    between atoms: C_21  and  N_30
REMARK                            x       y       z     vdW  Elec       q    Type
REMARK                         _______ _______ _______ _____ _____    ______ ____
ROOT
ATOM      1  O   UNL     1      31.837 -13.621 -21.014  0.00  0.00    -0.286 OA
ATOM      2  C   UNL     1      32.592 -13.290 -21.942  0.00  0.00    +0.200 C 
ENDROOT
BRANCH   2   6
ATOM      3  C   UNL     1      34.846 -16.197 -22.622  0.00  0.00    +0.138 C 
ATOM      4  C   UNL     1      34.147 -15.207 -21.940  0.00  0.00    +0.040 C 
ATOM      5  C   UNL     1      34.735 -16.319 -24.002  0.00  0.00    +0.037 C 
ATOM      6  C   UNL     1      33.327 -14.329 -22.648  0.00  0.00    +0.042 C 
ATOM      7  C   UNL     1      33.914 -15.442 -24.710  0.00  0.00    +0.003 C 
ATOM      8  C   UNL     1      33.210 -14.446 -24.033  0.00  0.00    +0.003 C 
BRANCH   3   9
ATOM      9  O   UNL     1      35.651 -17.060 -21.927  0.00  0.00    -0.479 OA
BRANCH   9  11
ATOM     10  N   UNL     1      35.814 -20.253 -20.319  0.00  0.00    +0.384 N 
ATOM     11  C   UNL     1      35.900 -18.330 -22.526  0.00  0.00    +0.162 C 
ATOM     12  C   UNL     1      34.706 -19.255 -22.293  0.00  0.00    +0.020 C 
ATOM     13  C   UNL     1      37.166 -18.923 -21.908  0.00  0.00    +0.020 C 
ATOM     14  C   UNL     1      34.577 -19.652 -20.821  0.00  0.00    -0.078 C 
ATOM     15  C   UNL     1      36.946 -19.335 -20.451  0.00  0.00    -0.078 C 
ATOM     16  H   UNL     1      36.009 -21.101 -20.851  0.00  0.00    -0.085 HD
ATOM     17  H   UNL     1      35.687 -20.466 -19.329  0.00  0.00    -0.085 HD
ENDBRANCH   9  11
ENDBRANCH   3   9
ENDBRANCH   2   6
BRANCH   2  20
ATOM     18  N   UNL     1      32.577  -9.733 -22.356  0.00  0.00    -0.177 N 
ATOM     19  N   UNL     1      33.418 -10.009 -23.367  0.00  0.00    -0.171 NA
ATOM     20  C   UNL     1      32.748 -11.867 -22.309  0.00  0.00    +0.088 C 
ATOM     21  C   UNL     1      32.145 -10.838 -21.682  0.00  0.00    +0.122 C 
ATOM     22  C   UNL     1      33.516 -11.340 -23.326  0.00  0.00    +0.124 C 
BRANCH  18  24
ATOM     23  F   UNL     1      31.220  -4.495 -21.311  0.00  0.00    -0.204 F 
ATOM     24  C   UNL     1      32.233  -8.407 -22.091  0.00  0.00    +0.075 C 
ATOM     25  C   UNL     1      31.192  -7.817 -22.794  0.00  0.00    +0.019 C 
ATOM     26  C   UNL     1      32.939  -7.696 -21.129  0.00  0.00    +0.019 C 
ATOM     27  C   UNL     1      30.849  -6.491 -22.530  0.00  0.00    +0.031 C 
ATOM     28  C   UNL     1      32.595  -6.370 -20.864  0.00  0.00    +0.031 C 
ATOM     29  C   UNL     1      31.550  -5.768 -21.565  0.00  0.00    +0.140 C 
ENDBRANCH  18  24
BRANCH  21  30
ATOM     30  N   UNL     1      31.294 -10.756 -20.635  0.00  0.00    -0.344 N 
ATOM     31  H   UNL     1      31.438 -11.315 -19.838  0.00  0.00    +0.144 HD
ATOM     32  H   UNL     1      30.531 -10.135 -20.669  0.00  0.00    +0.144 HD
ENDBRANCH  21  30
ENDBRANCH   2  20
TORSDOF 6
ENDMDL
MODEL 7
REMARK VINA RESULT:     -10.8      5.251     10.248
REMARK  Name = 5327066
REMARK  6 active torsions:
REMARK  status: ('A' for Active; 'I' for Inactive)
REMARK    1  A    between atoms: C_2  and  C_6
REMARK    2  A    between atoms: C_2  and  C_20
REMARK    3  A    between atoms: C_3  and  O_9
REMARK    4  A    between atoms: O_9  and  C_11
REMARK    5  A    between atoms: N_18  and  C_24
REMARK    6  A    between atoms: C_21  and  N_30
REMARK                            x       y       z     vdW  Elec       q    Type
REMARK                         _______ _______ _______ _____ _____    ______ ____
ROOT
ATOM      1  O   UNL     1      34.927 -17.258 -25.224  0.00  0.00    -0.286 OA
ATOM      2  C   UNL     1      34.612 -16.684 -24.170  0.00  0.00    +0.200 C 
ENDROOT
BRANCH   2   6
ATOM      3  C   UNL     1      33.322 -13.322 -23.157  0.00  0.00    +0.138 C 
ATOM      4  C   UNL     1      33.848 -14.607 -23.077  0.00  0.00    +0.040 C 
ATOM      5  C   UNL     1      33.008 -12.761 -24.389  0.00  0.00    +0.037 C 
ATOM      6  C   UNL     1      34.062 -15.339 -24.245  0.00  0.00    +0.042 C 
ATOM      7  C   UNL     1      33.223 -13.492 -25.557  0.00  0.00    +0.003 C 
ATOM      8  C   UNL     1      33.750 -14.782 -25.485  0.00  0.00    +0.003 C 
BRANCH   3   9
ATOM      9  O   UNL     1      33.112 -12.603 -22.010  0.00  0.00    -0.479 OA
BRANCH   9  11
ATOM     10  N   UNL     1      31.471 -10.163 -19.971  0.00  0.00    +0.384 N 
ATOM     11  C   UNL     1      31.808 -12.675 -21.437  0.00  0.00    +0.162 C 
ATOM     12  C   UNL     1      30.945 -11.529 -21.965  0.00  0.00    +0.020 C 
ATOM     13  C   UNL     1      31.937 -12.592 -19.916  0.00  0.00    +0.020 C 
ATOM     14  C   UNL     1      31.419 -10.174 -21.433  0.00  0.00    -0.078 C 
ATOM     15  C   UNL     1      32.370 -11.198 -19.460  0.00  0.00    -0.078 C 
ATOM     16  H   UNL     1      30.533 -10.327 -19.604  0.00  0.00    -0.085 HD
ATOM     17  H   UNL     1      31.825  -9.254 -19.670  0.00  0.00    -0.085 HD
ENDBRANCH   9  11
ENDBRANCH   3   9
ENDBRANCH   2   6
BRANCH   2  20
ATOM     18  N   UNL     1      34.859 -18.812 -21.301  0.00  0.00    -0.177 N 
ATOM     19  N   UNL     1      35.333 -17.700 -20.716  0.00  0.00    -0.171 NA
ATOM     20  C   UNL     1      34.806 -17.353 -22.867  0.00  0.00    +0.088 C 
ATOM     21  C   UNL     1      34.526 -18.646 -22.614  0.00  0.00    +0.122 C 
ATOM     22  C   UNL     1      35.295 -16.799 -21.702  0.00  0.00    +0.124 C 
BRANCH  18  24
ATOM     23  F   UNL     1      34.435 -23.452 -18.356  0.00  0.00    -0.204 F 
ATOM     24  C   UNL     1      34.751 -19.988 -20.555  0.00  0.00    +0.075 C 
ATOM     25  C   UNL     1      33.496 -20.448 -20.181  0.00  0.00    +0.019 C 
ATOM     26  C   UNL     1      35.901 -20.678 -20.198  0.00  0.00    +0.019 C 
ATOM     27  C   UNL     1      33.389 -21.621 -19.435  0.00  0.00    +0.031 C 
ATOM     28  C   UNL     1      35.794 -21.853 -19.453  0.00  0.00    +0.031 C 
ATOM     29  C   UNL     1      34.538 -22.324 -19.071  0.00  0.00    +0.140 C 
ENDBRANCH  18  24
BRANCH  21  30
ATOM     30  N   UNL     1      34.031 -19.655 -23.364  0.00  0.00    -0.344 N 
ATOM     31  H   UNL     1      34.630 -20.171 -23.952  0.00  0.00    +0.144 HD
ATOM     32  H   UNL     1      33.073 -19.876 -23.323  0.00  0.00    +0.144 HD
ENDBRANCH  21  30
ENDBRANCH   2  20
TORSDOF 6
ENDMDL
MODEL 8
REMARK VINA RESULT:     -10.6      8.726     14.414
REMARK  Name = 5327066
REMARK  6 active torsions:
REMARK  status: ('A' for Active; 'I' for Inactive)
REMARK    1  A    between atoms: C_2  and  C_6
REMARK    2  A    between atoms: C_2  and  C_20
REMARK    3  A    between atoms: C_3  and  O_9
REMARK    4  A    between atoms: O_9  and  C_11
REMARK    5  A    between atoms: N_18  and  C_24
REMARK    6  A    between atoms: C_21  and  N_30
REMARK                            x       y       z     vdW  Elec       q    Type
REMARK                         _______ _______ _______ _____ _____    ______ ____
ROOT
ATOM      1  O   UNL     1      30.377 -11.146 -20.939  0.00  0.00    -0.286 OA
ATOM      2  C   UNL     1      31.428 -10.715 -21.437  0.00  0.00    +0.200 C 
ENDROOT
BRANCH   2   6
ATOM      3  C   UNL     1      32.024  -7.091 -22.144  0.00  0.00    +0.138 C 
ATOM      4  C   UNL     1      31.702  -8.430 -22.330  0.00  0.00    +0.040 C 
ATOM      5  C   UNL     1      32.409  -6.622 -20.893  0.00  0.00    +0.037 C 
ATOM      6  C   UNL     1      31.764  -9.312 -21.251  0.00  0.00    +0.042 C 
ATOM      7  C   UNL     1      32.470  -7.503 -19.814  0.00  0.00    +0.003 C 
ATOM      8  C   UNL     1      32.148  -8.848 -19.993  0.00  0.00    +0.003 C 
BRANCH   3   9
ATOM      9  O   UNL     1      31.963  -6.224 -23.203  0.00  0.00    -0.479 OA
BRANCH   9  11
ATOM     10  N   UNL     1      33.667  -5.540 -26.275  0.00  0.00    +0.384 N 
ATOM     11  C   UNL     1      33.094  -5.379 -23.408  0.00  0.00    +0.162 C 
ATOM     12  C   UNL     1      32.731  -4.255 -24.379  0.00  0.00    +0.020 C 
ATOM     13  C   UNL     1      34.240  -6.221 -23.966  0.00  0.00    +0.020 C 
ATOM     14  C   UNL     1      32.508  -4.785 -25.797  0.00  0.00    -0.078 C 
ATOM     15  C   UNL     1      33.963  -6.675 -25.400  0.00  0.00    -0.078 C 
ATOM     16  H   UNL     1      34.477  -4.921 -26.301  0.00  0.00    -0.085 HD
ATOM     17  H   UNL     1      33.454  -5.900 -27.206  0.00  0.00    -0.085 HD
ENDBRANCH   9  11
ENDBRANCH   3   9
ENDBRANCH   2   6
BRANCH   2  20
ATOM     18  N   UNL     1      33.365 -13.329 -22.932  0.00  0.00    -0.177 N 
ATOM     19  N   UNL     1      33.770 -12.343 -23.749  0.00  0.00    -0.171 NA
ATOM     20  C   UNL     1      32.310 -11.610 -22.215  0.00  0.00    +0.088 C 
ATOM     21  C   UNL     1      32.472 -12.926 -21.982  0.00  0.00    +0.122 C 
ATOM     22  C   UNL     1      33.105 -11.278 -23.292  0.00  0.00    +0.124 C 
BRANCH  18  24
ATOM     23  F   UNL     1      35.340 -18.425 -23.650  0.00  0.00    -0.204 F 
ATOM     24  C   UNL     1      33.865 -14.620 -23.113  0.00  0.00    +0.075 C 
ATOM     25  C   UNL     1      34.588 -15.224 -22.094  0.00  0.00    +0.019 C 
ATOM     26  C   UNL     1      33.633 -15.281 -24.312  0.00  0.00    +0.019 C 
ATOM     27  C   UNL     1      35.088 -16.512 -22.276  0.00  0.00    +0.031 C 
ATOM     28  C   UNL     1      34.132 -16.571 -24.494  0.00  0.00    +0.031 C 
ATOM     29  C   UNL     1      34.860 -17.186 -23.475  0.00  0.00    +0.140 C 
ENDBRANCH  18  24
BRANCH  21  30
ATOM     30  N   UNL     1      31.955 -13.782 -21.072  0.00  0.00    -0.344 N 
ATOM     31  H   UNL     1      31.019 -14.076 -21.149  0.00  0.00    +0.144 HD
ATOM     32  H   UNL     1      32.515 -14.110 -20.332  0.00  0.00    +0.144 HD
ENDBRANCH  21  30
ENDBRANCH   2  20
TORSDOF 6
ENDMDL
MODEL 9
REMARK VINA RESULT:     -10.5      9.245     14.752
REMARK  Name = 5327066
REMARK  6 active torsions:
REMARK  status: ('A' for Active; 'I' for Inactive)
REMARK    1  A    between atoms: C_2  and  C_6
REMARK    2  A    between atoms: C_2  and  C_20
REMARK    3  A    between atoms: C_3  and  O_9
REMARK    4  A    between atoms: O_9  and  C_11
REMARK    5  A    between atoms: N_18  and  C_24
REMARK    6  A    between atoms: C_21  and  N_30
REMARK                            x       y       z     vdW  Elec       q    Type
REMARK                         _______ _______ _______ _____ _____    ______ ____
ROOT
ATOM      1  O   UNL     1      30.385 -10.923 -20.881  0.00  0.00    -0.286 OA
ATOM      2  C   UNL     1      31.424 -10.475 -21.390  0.00  0.00    +0.200 C 
ENDROOT
BRANCH   2   6
ATOM      3  C   UNL     1      31.804  -6.797 -21.953  0.00  0.00    +0.138 C 
ATOM      4  C   UNL     1      31.481  -8.132 -22.165  0.00  0.00    +0.040 C 
ATOM      5  C   UNL     1      32.403  -6.393 -20.765  0.00  0.00    +0.037 C 
ATOM      6  C   UNL     1      31.760  -9.075 -21.176  0.00  0.00    +0.042 C 
ATOM      7  C   UNL     1      32.680  -7.336 -19.776  0.00  0.00    +0.003 C 
ATOM      8  C   UNL     1      32.359  -8.677 -19.981  0.00  0.00    +0.003 C 
BRANCH   3   9
ATOM      9  O   UNL     1      31.531  -5.870 -22.924  0.00  0.00    -0.479 OA
BRANCH   9  11
ATOM     10  N   UNL     1      31.847  -3.598 -25.671  0.00  0.00    +0.384 N 
ATOM     11  C   UNL     1      32.463  -4.801 -23.073  0.00  0.00    +0.162 C 
ATOM     12  C   UNL     1      31.714  -3.475 -23.203  0.00  0.00    +0.020 C 
ATOM     13  C   UNL     1      33.312  -5.061 -24.317  0.00  0.00    +0.020 C 
ATOM     14  C   UNL     1      30.956  -3.382 -24.530  0.00  0.00    -0.078 C 
ATOM     15  C   UNL     1      32.497  -4.907 -25.602  0.00  0.00    -0.078 C 
ATOM     16  H   UNL     1      32.563  -2.872 -25.674  0.00  0.00    -0.085 HD
ATOM     17  H   UNL     1      31.289  -3.561 -26.524  0.00  0.00    -0.085 HD
ENDBRANCH   9  11
ENDBRANCH   3   9
ENDBRANCH   2   6
BRANCH   2  20
ATOM     18  N   UNL     1      33.306 -13.052 -23.016  0.00  0.00    -0.177 N 
ATOM     19  N   UNL     1      33.762 -12.028 -23.757  0.00  0.00    -0.171 NA
ATOM     20  C   UNL     1      32.293 -11.347 -22.208  0.00  0.00    +0.088 C 
ATOM     21  C   UNL     1      32.406 -12.681 -22.059  0.00  0.00    +0.122 C 
ATOM     22  C   UNL     1      33.124 -10.973 -23.244  0.00  0.00    +0.124 C 
BRANCH  18  24
ATOM     23  F   UNL     1      35.122 -18.156 -24.029  0.00  0.00    -0.204 F 
ATOM     24  C   UNL     1      33.766 -14.344 -23.273  0.00  0.00    +0.075 C 
ATOM     25  C   UNL     1      33.415 -14.972 -24.460  0.00  0.00    +0.019 C 
ATOM     26  C   UNL     1      34.568 -14.983 -22.337  0.00  0.00    +0.019 C 
ATOM     27  C   UNL     1      33.873 -16.264 -24.715  0.00  0.00    +0.031 C 
ATOM     28  C   UNL     1      35.028 -16.275 -22.593  0.00  0.00    +0.031 C 
ATOM     29  C   UNL     1      34.681 -16.915 -23.783  0.00  0.00    +0.140 C 
ENDBRANCH  18  24
BRANCH  21  30
ATOM     30  N   UNL     1      31.840 -13.576 -21.219  0.00  0.00    -0.344 N 
ATOM     31  H   UNL     1      31.937 -13.467 -20.245  0.00  0.00    +0.144 HD
ATOM     32  H   UNL     1      31.330 -14.336 -21.581  0.00  0.00    +0.144 HD
ENDBRANCH  21  30
ENDBRANCH   2  20
TORSDOF 6
ENDMDL
