MODEL 1
REMARK VINA RESULT:     -11.3      0.000      0.000
REMARK  Name = 28693
REMARK  5 active torsions:
REMARK  status: ('A' for Active; 'I' for Inactive)
REMARK    1  A    between atoms: C_6  and  C_20
REMARK    2  A    between atoms: C_20  and  N_22
REMARK    3  A    between atoms: C_23  and  O_25
REMARK    4  A    between atoms: O_25  and  C_26
REMARK    5  A    between atoms: C_26  and  C_27
REMARK                            x       y       z     vdW  Elec       q    Type
REMARK                         _______ _______ _______ _____ _____    ______ ____
ROOT
ATOM      1  N   UNL     1      32.134 -13.142 -21.562  0.00  0.00    +0.387 N 
ATOM      2  N   UNL     1      32.614  -7.141 -21.406  0.00  0.00    -0.284 N 
ATOM      3  C   UNL     1      33.187 -11.447 -23.094  0.00  0.00    +0.004 C 
ATOM      4  C   UNL     1      32.659 -11.755 -21.625  0.00  0.00    -0.050 C 
ATOM      5  C   UNL     1      34.247 -12.478 -23.503  0.00  0.00    +0.002 C 
ATOM      6  C   UNL     1      33.707 -13.900 -23.338  0.00  0.00    -0.001 C 
ATOM      7  C   UNL     1      31.603 -10.692 -21.135  0.00  0.00    +0.007 C 
ATOM      8  C   UNL     1      33.178 -14.119 -21.917  0.00  0.00    -0.076 C 
ATOM      9  C   UNL     1      33.671 -10.011 -23.213  0.00  0.00    -0.024 C 
ATOM     10  C   UNL     1      33.077  -9.073 -22.358  0.00  0.00    +0.007 C 
ATOM     11  C   UNL     1      32.107  -9.308 -21.363  0.00  0.00    -0.008 C 
ATOM     12  C   UNL     1      33.389  -7.727 -22.382  0.00  0.00    +0.051 C 
ATOM     13  C   UNL     1      31.590 -13.485 -20.244  0.00  0.00    -0.101 C 
ATOM     14  C   UNL     1      34.595  -9.503 -24.135  0.00  0.00    -0.004 C 
ATOM     15  C   UNL     1      31.830  -8.092 -20.783  0.00  0.00    +0.061 C 
ATOM     16  C   UNL     1      34.325  -7.216 -23.281  0.00  0.00    +0.015 C 
ATOM     17  C   UNL     1      34.918  -8.136 -24.160  0.00  0.00    +0.001 C 
ATOM     18  C   UNL     1      32.609  -5.734 -21.070  0.00  0.00    +0.117 C 
ATOM     19  H   UNL     1      31.372 -13.183 -22.238  0.00  0.00    -0.080 HD
ENDROOT
BRANCH   6  20
ATOM     20  C   UNL     1      34.789 -14.927 -23.676  0.00  0.00    +0.091 C 
BRANCH  20  22
ATOM     21  O   UNL     1      34.912 -17.829 -23.729  0.00  0.00    -0.226 OA
ATOM     22  N   UNL     1      35.013 -15.815 -22.578  0.00  0.00    -0.271 N 
ATOM     23  C   UNL     1      35.057 -17.197 -22.688  0.00  0.00    +0.402 C 
ATOM     24  H   UNL     1      35.145 -15.420 -21.686  0.00  0.00    +0.153 HD
BRANCH  23  25
ATOM     25  O   UNL     1      35.288 -17.760 -21.465  0.00  0.00    -0.430 OA
BRANCH  25  26
ATOM     26  C   UNL     1      36.019 -18.992 -21.472  0.00  0.00    +0.237 C 
BRANCH  26  27
ATOM     27  C   UNL     1      35.267 -20.012 -20.668  0.00  0.00    +0.021 C 
ATOM     28  C   UNL     1      35.968 -20.937 -19.901  0.00  0.00    -0.001 C 
ATOM     29  C   UNL     1      33.878 -20.023 -20.696  0.00  0.00    -0.001 C 
ATOM     30  C   UNL     1      35.270 -21.884 -19.153  0.00  0.00    -0.000 C 
ATOM     31  C   UNL     1      33.179 -20.971 -19.948  0.00  0.00    -0.000 C 
ATOM     32  C   UNL     1      33.875 -21.902 -19.177  0.00  0.00    -0.000 C 
ENDBRANCH  26  27
ENDBRANCH  25  26
ENDBRANCH  23  25
ENDBRANCH  20  22
ENDBRANCH   6  20
TORSDOF 5
ENDMDL
MODEL 2
REMARK VINA RESULT:     -10.8      9.392     13.087
REMARK  Name = 28693
REMARK  5 active torsions:
REMARK  status: ('A' for Active; 'I' for Inactive)
REMARK    1  A    between atoms: C_6  and  C_20
REMARK    2  A    between atoms: C_20  and  N_22
REMARK    3  A    between atoms: C_23  and  O_25
REMARK    4  A    between atoms: O_25  and  C_26
REMARK    5  A    between atoms: C_26  and  C_27
REMARK                            x       y       z     vdW  Elec       q    Type
REMARK                         _______ _______ _______ _____ _____    ______ ____
ROOT
ATOM      1  N   UNL     1      31.739 -24.006 -15.085  0.00  0.00    +0.387 N 
ATOM      2  N   UNL     1      34.388 -21.262 -19.745  0.00  0.00    -0.284 N 
ATOM      3  C   UNL     1      34.139 -23.676 -15.767  0.00  0.00    +0.004 C 
ATOM      4  C   UNL     1      32.638 -23.170 -15.920  0.00  0.00    -0.050 C 
ATOM      5  C   UNL     1      34.554 -23.661 -14.290  0.00  0.00    +0.002 C 
ATOM      6  C   UNL     1      33.557 -24.454 -13.442  0.00  0.00    -0.001 C 
ATOM      7  C   UNL     1      32.177 -23.116 -17.427  0.00  0.00    +0.007 C 
ATOM      8  C   UNL     1      32.128 -23.945 -13.665  0.00  0.00    -0.076 C 
ATOM      9  C   UNL     1      35.078 -22.883 -16.661  0.00  0.00    -0.024 C 
ATOM     10  C   UNL     1      34.528 -22.341 -17.829  0.00  0.00    +0.007 C 
ATOM     11  C   UNL     1      33.187 -22.403 -18.260  0.00  0.00    -0.008 C 
ATOM     12  C   UNL     1      35.271 -21.631 -18.754  0.00  0.00    +0.051 C 
ATOM     13  C   UNL     1      30.329 -23.624 -15.208  0.00  0.00    -0.101 C 
ATOM     14  C   UNL     1      36.455 -22.696 -16.486  0.00  0.00    -0.004 C 
ATOM     15  C   UNL     1      33.121 -21.728 -19.457  0.00  0.00    +0.061 C 
ATOM     16  C   UNL     1      36.638 -21.420 -18.577  0.00  0.00    +0.015 C 
ATOM     17  C   UNL     1      37.213 -21.973 -17.422  0.00  0.00    +0.001 C 
ATOM     18  C   UNL     1      34.726 -20.498 -20.927  0.00  0.00    +0.117 C 
ATOM     19  H   UNL     1      31.840 -24.959 -15.435  0.00  0.00    -0.080 HD
ENDROOT
BRANCH   6  20
ATOM     20  C   UNL     1      33.932 -24.377 -11.961  0.00  0.00    +0.091 C 
BRANCH  20  22
ATOM     21  O   UNL     1      35.676 -24.637  -9.652  0.00  0.00    -0.226 OA
ATOM     22  N   UNL     1      35.249 -23.845 -11.793  0.00  0.00    -0.271 N 
ATOM     23  C   UNL     1      36.019 -24.016 -10.653  0.00  0.00    +0.402 C 
ATOM     24  H   UNL     1      35.633 -23.325 -12.535  0.00  0.00    +0.153 HD
BRANCH  23  25
ATOM     25  O   UNL     1      37.225 -23.390 -10.801  0.00  0.00    -0.430 OA
BRANCH  25  26
ATOM     26  C   UNL     1      38.330 -24.237 -11.136  0.00  0.00    +0.237 C 
BRANCH  26  27
ATOM     27  C   UNL     1      37.975 -25.050 -12.346  0.00  0.00    +0.021 C 
ATOM     28  C   UNL     1      37.498 -26.347 -12.188  0.00  0.00    -0.001 C 
ATOM     29  C   UNL     1      38.124 -24.500 -13.614  0.00  0.00    -0.001 C 
ATOM     30  C   UNL     1      37.167 -27.103 -13.313  0.00  0.00    -0.000 C 
ATOM     31  C   UNL     1      37.794 -25.256 -14.739  0.00  0.00    -0.000 C 
ATOM     32  C   UNL     1      37.315 -26.558 -14.588  0.00  0.00    -0.000 C 
ENDBRANCH  26  27
ENDBRANCH  25  26
ENDBRANCH  23  25
ENDBRANCH  20  22
ENDBRANCH   6  20
TORSDOF 5
ENDMDL
MODEL 3
REMARK VINA RESULT:     -10.7      1.351      1.858
REMARK  Name = 28693
REMARK  5 active torsions:
REMARK  status: ('A' for Active; 'I' for Inactive)
REMARK    1  A    between atoms: C_6  and  C_20
REMARK    2  A    between atoms: C_20  and  N_22
REMARK    3  A    between atoms: C_23  and  O_25
REMARK    4  A    between atoms: O_25  and  C_26
REMARK    5  A    between atoms: C_26  and  C_27
REMARK                            x       y       z     vdW  Elec       q    Type
REMARK                         _______ _______ _______ _____ _____    ______ ____
ROOT
ATOM      1  N   UNL     1      32.073 -12.118 -21.271  0.00  0.00    +0.387 N 
ATOM      2  N   UNL     1      32.040  -6.100 -21.493  0.00  0.00    -0.284 N 
ATOM      3  C   UNL     1      32.196 -10.452 -23.153  0.00  0.00    +0.004 C 
ATOM      4  C   UNL     1      32.392 -10.705 -21.594  0.00  0.00    -0.050 C 
ATOM      5  C   UNL     1      33.059 -11.431 -23.960  0.00  0.00    +0.002 C 
ATOM      6  C   UNL     1      32.773 -12.874 -23.539  0.00  0.00    -0.001 C 
ATOM      7  C   UNL     1      31.567  -9.688 -20.716  0.00  0.00    +0.007 C 
ATOM      8  C   UNL     1      32.939 -13.041 -22.025  0.00  0.00    -0.076 C 
ATOM      9  C   UNL     1      32.451  -8.996 -23.508  0.00  0.00    -0.024 C 
ATOM     10  C   UNL     1      32.209  -8.051 -22.503  0.00  0.00    +0.007 C 
ATOM     11  C   UNL     1      31.796  -8.290 -21.177  0.00  0.00    -0.008 C 
ATOM     12  C   UNL     1      32.360  -6.690 -22.695  0.00  0.00    +0.051 C 
ATOM     13  C   UNL     1      32.191 -12.416 -19.841  0.00  0.00    -0.101 C 
ATOM     14  C   UNL     1      32.831  -8.484 -24.755  0.00  0.00    -0.004 C 
ATOM     15  C   UNL     1      31.693  -7.062 -20.565  0.00  0.00    +0.061 C 
ATOM     16  C   UNL     1      32.760  -6.172 -23.927  0.00  0.00    +0.015 C 
ATOM     17  C   UNL     1      32.988  -7.102 -24.954  0.00  0.00    +0.001 C 
ATOM     18  C   UNL     1      32.057  -4.679 -21.225  0.00  0.00    +0.117 C 
ATOM     19  H   UNL     1      31.099 -12.252 -21.542  0.00  0.00    -0.080 HD
ENDROOT
BRANCH   6  20
ATOM     20  C   UNL     1      33.684 -13.844 -24.293  0.00  0.00    +0.091 C 
BRANCH  20  22
ATOM     21  O   UNL     1      34.814 -16.402 -25.080  0.00  0.00    -0.226 OA
ATOM     22  N   UNL     1      34.108 -14.914 -23.443  0.00  0.00    -0.271 N 
ATOM     23  C   UNL     1      34.640 -16.110 -23.901  0.00  0.00    +0.402 C 
ATOM     24  H   UNL     1      34.017 -14.792 -22.471  0.00  0.00    +0.153 HD
BRANCH  23  25
ATOM     25  O   UNL     1      34.947 -16.923 -22.847  0.00  0.00    -0.430 OA
BRANCH  25  26
ATOM     26  C   UNL     1      34.669 -18.316 -23.032  0.00  0.00    +0.237 C 
BRANCH  26  27
ATOM     27  C   UNL     1      35.276 -19.091 -21.900  0.00  0.00    +0.021 C 
ATOM     28  C   UNL     1      34.524 -20.064 -21.250  0.00  0.00    -0.001 C 
ATOM     29  C   UNL     1      36.584 -18.830 -21.510  0.00  0.00    -0.001 C 
ATOM     30  C   UNL     1      35.088 -20.785 -20.198  0.00  0.00    -0.000 C 
ATOM     31  C   UNL     1      37.149 -19.550 -20.457  0.00  0.00    -0.000 C 
ATOM     32  C   UNL     1      36.400 -20.527 -19.801  0.00  0.00    -0.000 C 
ENDBRANCH  26  27
ENDBRANCH  25  26
ENDBRANCH  23  25
ENDBRANCH  20  22
ENDBRANCH   6  20
TORSDOF 5
ENDMDL
MODEL 4
REMARK VINA RESULT:     -10.4      5.809     13.212
REMARK  Name = 28693
REMARK  5 active torsions:
REMARK  status: ('A' for Active; 'I' for Inactive)
REMARK    1  A    between atoms: C_6  and  C_20
REMARK    2  A    between atoms: C_20  and  N_22
REMARK    3  A    between atoms: C_23  and  O_25
REMARK    4  A    between atoms: O_25  and  C_26
REMARK    5  A    between atoms: C_26  and  C_27
REMARK                            x       y       z     vdW  Elec       q    Type
REMARK                         _______ _______ _______ _____ _____    ______ ____
ROOT
ATOM      1  N   UNL     1      32.245 -23.205 -15.740  0.00  0.00    +0.387 N 
ATOM      2  N   UNL     1      36.513 -25.277 -12.031  0.00  0.00    -0.284 N 
ATOM      3  C   UNL     1      34.755 -23.037 -15.720  0.00  0.00    +0.004 C 
ATOM      4  C   UNL     1      33.478 -23.829 -15.198  0.00  0.00    -0.050 C 
ATOM      5  C   UNL     1      34.762 -22.997 -17.254  0.00  0.00    +0.002 C 
ATOM      6  C   UNL     1      33.441 -22.435 -17.784  0.00  0.00    -0.001 C 
ATOM      7  C   UNL     1      33.449 -23.946 -13.626  0.00  0.00    +0.007 C 
ATOM      8  C   UNL     1      32.252 -23.214 -17.214  0.00  0.00    -0.076 C 
ATOM      9  C   UNL     1      36.034 -23.609 -15.130  0.00  0.00    -0.024 C 
ATOM     10  C   UNL     1      35.928 -24.229 -13.879  0.00  0.00    +0.007 C 
ATOM     11  C   UNL     1      34.763 -24.427 -13.111  0.00  0.00    -0.008 C 
ATOM     12  C   UNL     1      37.013 -24.758 -13.205  0.00  0.00    +0.051 C 
ATOM     13  C   UNL     1      31.021 -23.859 -15.267  0.00  0.00    -0.101 C 
ATOM     14  C   UNL     1      37.325 -23.521 -15.665  0.00  0.00    -0.004 C 
ATOM     15  C   UNL     1      35.148 -25.079 -11.963  0.00  0.00    +0.061 C 
ATOM     16  C   UNL     1      38.300 -24.695 -13.740  0.00  0.00    +0.015 C 
ATOM     17  C   UNL     1      38.430 -24.061 -14.985  0.00  0.00    +0.001 C 
ATOM     18  C   UNL     1      37.293 -25.936 -11.006  0.00  0.00    +0.117 C 
ATOM     19  H   UNL     1      32.244 -22.245 -15.395  0.00  0.00    -0.080 HD
ENDROOT
BRANCH   6  20
ATOM     20  C   UNL     1      33.422 -22.463 -19.313  0.00  0.00    +0.091 C 
BRANCH  20  22
ATOM     21  O   UNL     1      35.897 -21.116 -20.019  0.00  0.00    -0.226 OA
ATOM     22  N   UNL     1      33.581 -21.148 -19.852  0.00  0.00    -0.271 N 
ATOM     23  C   UNL     1      34.805 -20.575 -20.163  0.00  0.00    +0.402 C 
ATOM     24  H   UNL     1      32.769 -20.615 -20.012  0.00  0.00    +0.153 HD
BRANCH  23  25
ATOM     25  O   UNL     1      34.623 -19.315 -20.658  0.00  0.00    -0.430 OA
BRANCH  25  26
ATOM     26  C   UNL     1      35.718 -18.774 -21.407  0.00  0.00    +0.237 C 
BRANCH  26  27
ATOM     27  C   UNL     1      35.178 -17.899 -22.501  0.00  0.00    +0.021 C 
ATOM     28  C   UNL     1      35.198 -16.517 -22.350  0.00  0.00    -0.001 C 
ATOM     29  C   UNL     1      34.663 -18.478 -23.655  0.00  0.00    -0.001 C 
ATOM     30  C   UNL     1      34.697 -15.704 -23.365  0.00  0.00    -0.000 C 
ATOM     31  C   UNL     1      34.161 -17.665 -24.671  0.00  0.00    -0.000 C 
ATOM     32  C   UNL     1      34.178 -16.277 -24.526  0.00  0.00    -0.000 C 
ENDBRANCH  26  27
ENDBRANCH  25  26
ENDBRANCH  23  25
ENDBRANCH  20  22
ENDBRANCH   6  20
TORSDOF 5
ENDMDL
MODEL 5
REMARK VINA RESULT:     -10.2      2.360      4.064
REMARK  Name = 28693
REMARK  5 active torsions:
REMARK  status: ('A' for Active; 'I' for Inactive)
REMARK    1  A    between atoms: C_6  and  C_20
REMARK    2  A    between atoms: C_20  and  N_22
REMARK    3  A    between atoms: C_23  and  O_25
REMARK    4  A    between atoms: O_25  and  C_26
REMARK    5  A    between atoms: C_26  and  C_27
REMARK                            x       y       z     vdW  Elec       q    Type
REMARK                         _______ _______ _______ _____ _____    ______ ____
ROOT
ATOM      1  N   UNL     1      31.754  -9.105 -21.141  0.00  0.00    +0.387 N 
ATOM      2  N   UNL     1      31.877  -3.231 -22.462  0.00  0.00    -0.284 N 
ATOM      3  C   UNL     1      31.858  -7.815 -23.299  0.00  0.00    +0.004 C 
ATOM      4  C   UNL     1      32.100  -7.786 -21.727  0.00  0.00    -0.050 C 
ATOM      5  C   UNL     1      32.665  -8.953 -23.938  0.00  0.00    +0.002 C 
ATOM      6  C   UNL     1      32.355 -10.285 -23.251  0.00  0.00    -0.001 C 
ATOM      7  C   UNL     1      31.333  -6.599 -21.026  0.00  0.00    +0.007 C 
ATOM      8  C   UNL     1      32.569 -10.178 -21.737  0.00  0.00    -0.076 C 
ATOM      9  C   UNL     1      32.140  -6.457 -23.922  0.00  0.00    -0.024 C 
ATOM     10  C   UNL     1      31.958  -5.337 -23.102  0.00  0.00    +0.007 C 
ATOM     11  C   UNL     1      31.585  -5.316 -21.743  0.00  0.00    -0.008 C 
ATOM     12  C   UNL     1      32.139  -4.041 -23.544  0.00  0.00    +0.051 C 
ATOM     13  C   UNL     1      31.913  -9.141 -19.684  0.00  0.00    -0.101 C 
ATOM     14  C   UNL     1      32.490  -6.195 -25.253  0.00  0.00    -0.004 C 
ATOM     15  C   UNL     1      31.536  -3.995 -21.363  0.00  0.00    +0.061 C 
ATOM     16  C   UNL     1      32.510  -3.769 -24.861  0.00  0.00    +0.015 C 
ATOM     17  C   UNL     1      32.678  -4.878 -25.706  0.00  0.00    +0.001 C 
ATOM     18  C   UNL     1      31.942  -1.786 -22.460  0.00  0.00    +0.117 C 
ATOM     19  H   UNL     1      30.768  -9.254 -21.354  0.00  0.00    -0.080 HD
ENDROOT
BRANCH   6  20
ATOM     20  C   UNL     1      33.213 -11.405 -23.840  0.00  0.00    +0.091 C 
BRANCH  20  22
ATOM     21  O   UNL     1      33.025 -14.254 -24.375  0.00  0.00    -0.226 OA
ATOM     22  N   UNL     1      33.357 -12.483 -22.911  0.00  0.00    -0.271 N 
ATOM     23  C   UNL     1      33.251 -13.824 -23.249  0.00  0.00    +0.402 C 
ATOM     24  H   UNL     1      33.542 -12.259 -21.971  0.00  0.00    +0.153 HD
BRANCH  23  25
ATOM     25  O   UNL     1      33.438 -14.605 -22.144  0.00  0.00    -0.430 OA
BRANCH  25  26
ATOM     26  C   UNL     1      34.787 -15.012 -21.888  0.00  0.00    +0.237 C 
BRANCH  26  27
ATOM     27  C   UNL     1      34.906 -16.488 -22.130  0.00  0.00    +0.021 C 
ATOM     28  C   UNL     1      35.151 -17.344 -21.061  0.00  0.00    -0.001 C 
ATOM     29  C   UNL     1      34.771 -16.988 -23.420  0.00  0.00    -0.001 C 
ATOM     30  C   UNL     1      35.262 -18.716 -21.285  0.00  0.00    -0.000 C 
ATOM     31  C   UNL     1      34.882 -18.360 -23.645  0.00  0.00    -0.000 C 
ATOM     32  C   UNL     1      35.128 -19.224 -22.578  0.00  0.00    -0.000 C 
ENDBRANCH  26  27
ENDBRANCH  25  26
ENDBRANCH  23  25
ENDBRANCH  20  22
ENDBRANCH   6  20
TORSDOF 5
ENDMDL
MODEL 6
REMARK VINA RESULT:     -10.2      4.365      7.418
REMARK  Name = 28693
REMARK  5 active torsions:
REMARK  status: ('A' for Active; 'I' for Inactive)
REMARK    1  A    between atoms: C_6  and  C_20
REMARK    2  A    between atoms: C_20  and  N_22
REMARK    3  A    between atoms: C_23  and  O_25
REMARK    4  A    between atoms: O_25  and  C_26
REMARK    5  A    between atoms: C_26  and  C_27
REMARK                            x       y       z     vdW  Elec       q    Type
REMARK                         _______ _______ _______ _____ _____    ______ ____
ROOT
ATOM      1  N   UNL     1      34.440  -7.630 -22.861  0.00  0.00    +0.387 N 
ATOM      2  N   UNL     1      33.107  -3.614 -27.146  0.00  0.00    -0.284 N 
ATOM      3  C   UNL     1      33.078  -5.515 -22.891  0.00  0.00    +0.004 C 
ATOM      4  C   UNL     1      33.718  -6.689 -23.753  0.00  0.00    -0.050 C 
ATOM      5  C   UNL     1      32.158  -6.095 -21.808  0.00  0.00    +0.002 C 
ATOM      6  C   UNL     1      32.906  -7.129 -20.964  0.00  0.00    -0.001 C 
ATOM      7  C   UNL     1      34.633  -6.145 -24.917  0.00  0.00    +0.007 C 
ATOM      8  C   UNL     1      33.531  -8.208 -21.855  0.00  0.00    -0.076 C 
ATOM      9  C   UNL     1      32.386  -4.495 -23.782  0.00  0.00    -0.024 C 
ATOM     10  C   UNL     1      32.881  -4.358 -25.085  0.00  0.00    +0.007 C 
ATOM     11  C   UNL     1      33.923  -5.088 -25.691  0.00  0.00    -0.008 C 
ATOM     12  C   UNL     1      32.377  -3.445 -25.991  0.00  0.00    +0.051 C 
ATOM     13  C   UNL     1      35.094  -8.720 -23.592  0.00  0.00    -0.101 C 
ATOM     14  C   UNL     1      31.354  -3.621 -23.421  0.00  0.00    -0.004 C 
ATOM     15  C   UNL     1      34.051  -4.607 -26.974  0.00  0.00    +0.061 C 
ATOM     16  C   UNL     1      31.333  -2.585 -25.649  0.00  0.00    +0.015 C 
ATOM     17  C   UNL     1      30.836  -2.693 -24.340  0.00  0.00    +0.001 C 
ATOM     18  C   UNL     1      32.926  -2.866 -28.371  0.00  0.00    +0.117 C 
ATOM     19  H   UNL     1      35.165  -7.079 -22.402  0.00  0.00    -0.080 HD
ENDROOT
BRANCH   6  20
ATOM     20  C   UNL     1      31.968  -7.758 -19.932  0.00  0.00    +0.091 C 
BRANCH  20  22
ATOM     21  O   UNL     1      32.028  -9.921 -17.993  0.00  0.00    -0.226 OA
ATOM     22  N   UNL     1      31.805  -9.159 -20.175  0.00  0.00    -0.271 N 
ATOM     23  C   UNL     1      31.847 -10.132 -19.188  0.00  0.00    +0.402 C 
ATOM     24  H   UNL     1      31.653  -9.450 -21.103  0.00  0.00    +0.153 HD
BRANCH  23  25
ATOM     25  O   UNL     1      31.658 -11.368 -19.738  0.00  0.00    -0.430 OA
BRANCH  25  26
ATOM     26  C   UNL     1      31.364 -11.390 -21.139  0.00  0.00    +0.237 C 
BRANCH  26  27
ATOM     27  C   UNL     1      32.356 -12.276 -21.834  0.00  0.00    +0.021 C 
ATOM     28  C   UNL     1      32.949 -11.850 -23.017  0.00  0.00    -0.001 C 
ATOM     29  C   UNL     1      32.674 -13.514 -21.288  0.00  0.00    -0.001 C 
ATOM     30  C   UNL     1      33.871 -12.673 -23.663  0.00  0.00    -0.000 C 
ATOM     31  C   UNL     1      33.596 -14.338 -21.933  0.00  0.00    -0.000 C 
ATOM     32  C   UNL     1      34.194 -13.917 -23.121  0.00  0.00    -0.000 C 
ENDBRANCH  26  27
ENDBRANCH  25  26
ENDBRANCH  23  25
ENDBRANCH  20  22
ENDBRANCH   6  20
TORSDOF 5
ENDMDL
MODEL 7
REMARK VINA RESULT:     -10.1      3.434      6.265
REMARK  Name = 28693
REMARK  5 active torsions:
REMARK  status: ('A' for Active; 'I' for Inactive)
REMARK    1  A    between atoms: C_6  and  C_20
REMARK    2  A    between atoms: C_20  and  N_22
REMARK    3  A    between atoms: C_23  and  O_25
REMARK    4  A    between atoms: O_25  and  C_26
REMARK    5  A    between atoms: C_26  and  C_27
REMARK                            x       y       z     vdW  Elec       q    Type
REMARK                         _______ _______ _______ _____ _____    ______ ____
ROOT
ATOM      1  N   UNL     1      34.635  -8.508 -23.364  0.00  0.00    +0.387 N 
ATOM      2  N   UNL     1      34.169  -3.387 -26.499  0.00  0.00    -0.284 N 
ATOM      3  C   UNL     1      33.095  -6.523 -23.224  0.00  0.00    +0.004 C 
ATOM      4  C   UNL     1      34.105  -7.353 -24.131  0.00  0.00    -0.050 C 
ATOM      5  C   UNL     1      31.971  -7.435 -22.714  0.00  0.00    +0.002 C 
ATOM      6  C   UNL     1      32.551  -8.663 -22.009  0.00  0.00    -0.001 C 
ATOM      7  C   UNL     1      35.253  -6.450 -24.725  0.00  0.00    +0.007 C 
ATOM      8  C   UNL     1      33.544  -9.393 -22.920  0.00  0.00    -0.076 C 
ATOM      9  C   UNL     1      32.583  -5.293 -23.956  0.00  0.00    -0.024 C 
ATOM     10  C   UNL     1      33.427  -4.744 -24.930  0.00  0.00    +0.007 C 
ATOM     11  C   UNL     1      34.685  -5.221 -25.348  0.00  0.00    -0.008 C 
ATOM     12  C   UNL     1      33.110  -3.605 -25.647  0.00  0.00    +0.051 C 
ATOM     13  C   UNL     1      35.608  -9.298 -24.125  0.00  0.00    -0.101 C 
ATOM     14  C   UNL     1      31.390  -4.601 -23.715  0.00  0.00    -0.004 C 
ATOM     15  C   UNL     1      35.133  -4.360 -26.324  0.00  0.00    +0.061 C 
ATOM     16  C   UNL     1      31.913  -2.921 -25.430  0.00  0.00    +0.015 C 
ATOM     17  C   UNL     1      31.062  -3.445 -24.443  0.00  0.00    +0.001 C 
ATOM     18  C   UNL     1      34.275  -2.298 -27.445  0.00  0.00    +0.117 C 
ATOM     19  H   UNL     1      35.115  -8.109 -22.557  0.00  0.00    -0.080 HD
ENDROOT
BRANCH   6  20
ATOM     20  C   UNL     1      31.432  -9.606 -21.566  0.00  0.00    +0.091 C 
BRANCH  20  22
ATOM     21  O   UNL     1      31.913 -11.808 -19.733  0.00  0.00    -0.226 OA
ATOM     22  N   UNL     1      31.747 -10.963 -21.889  0.00  0.00    -0.271 N 
ATOM     23  C   UNL     1      31.963 -11.959 -20.949  0.00  0.00    +0.402 C 
ATOM     24  H   UNL     1      31.814 -11.205 -22.841  0.00  0.00    +0.153 HD
BRANCH  23  25
ATOM     25  O   UNL     1      32.242 -13.142 -21.572  0.00  0.00    -0.430 OA
BRANCH  25  26
ATOM     26  C   UNL     1      32.775 -13.039 -22.898  0.00  0.00    +0.237 C 
BRANCH  26  27
ATOM     27  C   UNL     1      33.498 -14.311 -23.235  0.00  0.00    +0.021 C 
ATOM     28  C   UNL     1      33.329 -14.887 -24.489  0.00  0.00    -0.001 C 
ATOM     29  C   UNL     1      34.330 -14.901 -22.291  0.00  0.00    -0.001 C 
ATOM     30  C   UNL     1      34.001 -16.068 -24.803  0.00  0.00    -0.000 C 
ATOM     31  C   UNL     1      35.002 -16.082 -22.604  0.00  0.00    -0.000 C 
ATOM     32  C   UNL     1      34.837 -16.666 -23.861  0.00  0.00    -0.000 C 
ENDBRANCH  26  27
ENDBRANCH  25  26
ENDBRANCH  23  25
ENDBRANCH  20  22
ENDBRANCH   6  20
TORSDOF 5
ENDMDL
MODEL 8
REMARK VINA RESULT:      -9.7      4.557      7.755
REMARK  Name = 28693
REMARK  5 active torsions:
REMARK  status: ('A' for Active; 'I' for Inactive)
REMARK    1  A    between atoms: C_6  and  C_20
REMARK    2  A    between atoms: C_20  and  N_22
REMARK    3  A    between atoms: C_23  and  O_25
REMARK    4  A    between atoms: O_25  and  C_26
REMARK    5  A    between atoms: C_26  and  C_27
REMARK                            x       y       z     vdW  Elec       q    Type
REMARK                         _______ _______ _______ _____ _____    ______ ____
ROOT
ATOM      1  N   UNL     1      31.167  -4.374 -22.372  0.00  0.00    +0.387 N 
ATOM      2  N   UNL     1      33.341  -3.121 -27.847  0.00  0.00    -0.284 N 
ATOM      3  C   UNL     1      32.170  -5.780 -24.203  0.00  0.00    +0.004 C 
ATOM      4  C   UNL     1      32.020  -4.321 -23.586  0.00  0.00    -0.050 C 
ATOM      5  C   UNL     1      32.734  -6.744 -23.151  0.00  0.00    +0.002 C 
ATOM      6  C   UNL     1      31.886  -6.708 -21.878  0.00  0.00    -0.001 C 
ATOM      7  C   UNL     1      31.493  -3.276 -24.644  0.00  0.00    +0.007 C 
ATOM      8  C   UNL     1      31.747  -5.272 -21.358  0.00  0.00    -0.076 C 
ATOM      9  C   UNL     1      32.984  -5.751 -25.487  0.00  0.00    -0.024 C 
ATOM     10  C   UNL     1      32.949  -4.564 -26.229  0.00  0.00    +0.007 C 
ATOM     11  C   UNL     1      32.279  -3.366 -25.907  0.00  0.00    -0.008 C 
ATOM     12  C   UNL     1      33.607  -4.408 -27.434  0.00  0.00    +0.051 C 
ATOM     13  C   UNL     1      30.950  -3.056 -21.771  0.00  0.00    -0.101 C 
ATOM     14  C   UNL     1      33.709  -6.808 -26.052  0.00  0.00    -0.004 C 
ATOM     15  C   UNL     1      32.534  -2.481 -26.928  0.00  0.00    +0.061 C 
ATOM     16  C   UNL     1      34.351  -5.447 -27.994  0.00  0.00    +0.015 C 
ATOM     17  C   UNL     1      34.383  -6.652 -27.275  0.00  0.00    +0.001 C 
ATOM     18  C   UNL     1      33.829  -2.513 -29.066  0.00  0.00    +0.117 C 
ATOM     19  H   UNL     1      30.264  -4.733 -22.683  0.00  0.00    -0.080 HD
ENDROOT
BRANCH   6  20
ATOM     20  C   UNL     1      32.491  -7.614 -20.804  0.00  0.00    +0.091 C 
BRANCH  20  22
ATOM     21  O   UNL     1      32.659  -9.589 -18.681  0.00  0.00    -0.226 OA
ATOM     22  N   UNL     1      31.734  -8.820 -20.667  0.00  0.00    -0.271 N 
ATOM     23  C   UNL     1      31.876  -9.714 -19.617  0.00  0.00    +0.402 C 
ATOM     24  H   UNL     1      31.069  -9.028 -21.362  0.00  0.00    +0.153 HD
BRANCH  23  25
ATOM     25  O   UNL     1      31.014 -10.763 -19.771  0.00  0.00    -0.430 OA
BRANCH  25  26
ATOM     26  C   UNL     1      30.875 -11.265 -21.105  0.00  0.00    +0.237 C 
BRANCH  26  27
ATOM     27  C   UNL     1      31.932 -12.301 -21.351  0.00  0.00    +0.021 C 
ATOM     28  C   UNL     1      32.662 -12.273 -22.535  0.00  0.00    -0.001 C 
ATOM     29  C   UNL     1      32.173 -13.280 -20.394  0.00  0.00    -0.001 C 
ATOM     30  C   UNL     1      33.645 -13.235 -22.763  0.00  0.00    -0.000 C 
ATOM     31  C   UNL     1      33.156 -14.243 -20.623  0.00  0.00    -0.000 C 
ATOM     32  C   UNL     1      33.892 -14.221 -21.808  0.00  0.00    -0.000 C 
ENDBRANCH  26  27
ENDBRANCH  25  26
ENDBRANCH  23  25
ENDBRANCH  20  22
ENDBRANCH   6  20
TORSDOF 5
ENDMDL
MODEL 9
REMARK VINA RESULT:      -9.6      7.326     10.756
REMARK  Name = 28693
REMARK  5 active torsions:
REMARK  status: ('A' for Active; 'I' for Inactive)
REMARK    1  A    between atoms: C_6  and  C_20
REMARK    2  A    between atoms: C_20  and  N_22
REMARK    3  A    between atoms: C_23  and  O_25
REMARK    4  A    between atoms: O_25  and  C_26
REMARK    5  A    between atoms: C_26  and  C_27
REMARK                            x       y       z     vdW  Elec       q    Type
REMARK                         _______ _______ _______ _____ _____    ______ ____
ROOT
ATOM      1  N   UNL     1      33.764 -22.843 -17.822  0.00  0.00    +0.387 N 
ATOM      2  N   UNL     1      34.433 -18.963 -22.378  0.00  0.00    -0.284 N 
ATOM      3  C   UNL     1      35.767 -21.791 -18.923  0.00  0.00    +0.004 C 
ATOM      4  C   UNL     1      34.199 -21.703 -18.666  0.00  0.00    -0.050 C 
ATOM      5  C   UNL     1      36.520 -21.832 -17.587  0.00  0.00    +0.002 C 
ATOM      6  C   UNL     1      35.986 -22.960 -16.701  0.00  0.00    -0.001 C 
ATOM      7  C   UNL     1      33.379 -21.605 -20.010  0.00  0.00    +0.007 C 
ATOM      8  C   UNL     1      34.468 -22.841 -16.527  0.00  0.00    -0.076 C 
ATOM      9  C   UNL     1      36.236 -20.674 -19.841  0.00  0.00    -0.024 C 
ATOM     10  C   UNL     1      35.299 -20.174 -20.754  0.00  0.00    +0.007 C 
ATOM     11  C   UNL     1      33.949 -20.552 -20.897  0.00  0.00    -0.008 C 
ATOM     12  C   UNL     1      35.596 -19.187 -21.674  0.00  0.00    +0.051 C 
ATOM     13  C   UNL     1      32.319 -22.852 -17.576  0.00  0.00    -0.101 C 
ATOM     14  C   UNL     1      37.527 -20.138 -19.929  0.00  0.00    -0.004 C 
ATOM     15  C   UNL     1      33.427 -19.789 -21.916  0.00  0.00    +0.061 C 
ATOM     16  C   UNL     1      36.872 -18.630 -21.755  0.00  0.00    +0.015 C 
ATOM     17  C   UNL     1      37.832 -19.132 -20.862  0.00  0.00    +0.001 C 
ATOM     18  C   UNL     1      34.272 -18.006 -23.451  0.00  0.00    +0.117 C 
ATOM     19  H   UNL     1      34.000 -23.685 -18.347  0.00  0.00    -0.080 HD
ENDROOT
BRANCH   6  20
ATOM     20  C   UNL     1      36.688 -22.953 -15.342  0.00  0.00    +0.091 C 
BRANCH  20  22
ATOM     21  O   UNL     1      35.928 -25.735 -14.992  0.00  0.00    -0.226 OA
ATOM     22  N   UNL     1      35.847 -23.511 -14.329  0.00  0.00    -0.271 N 
ATOM     23  C   UNL     1      35.531 -24.858 -14.231  0.00  0.00    +0.402 C 
ATOM     24  H   UNL     1      35.468 -22.900 -13.657  0.00  0.00    +0.153 HD
BRANCH  23  25
ATOM     25  O   UNL     1      34.711 -25.073 -13.160  0.00  0.00    -0.430 OA
BRANCH  25  26
ATOM     26  C   UNL     1      33.891 -23.966 -12.770  0.00  0.00    +0.237 C 
BRANCH  26  27
ATOM     27  C   UNL     1      32.516 -24.150 -13.342  0.00  0.00    +0.021 C 
ATOM     28  C   UNL     1      31.848 -23.061 -13.894  0.00  0.00    -0.001 C 
ATOM     29  C   UNL     1      31.921 -25.406 -13.316  0.00  0.00    -0.001 C 
ATOM     30  C   UNL     1      30.571 -23.232 -14.426  0.00  0.00    -0.000 C 
ATOM     31  C   UNL     1      30.643 -25.577 -13.848  0.00  0.00    -0.000 C 
ATOM     32  C   UNL     1      29.968 -24.489 -14.403  0.00  0.00    -0.000 C 
ENDBRANCH  26  27
ENDBRANCH  25  26
ENDBRANCH  23  25
ENDBRANCH  20  22
ENDBRANCH   6  20
TORSDOF 5
ENDMDL
