MODEL 1
REMARK VINA RESULT:     -12.3      0.000      0.000
REMARK  Name = 24752833
REMARK  4 active torsions:
REMARK  status: ('A' for Active; 'I' for Inactive)
REMARK    1  A    between atoms: C_1  and  N_8
REMARK    2  A    between atoms: C_2  and  N_23
REMARK    3  A    between atoms: C_9  and  C_14
REMARK    4  A    between atoms: C_24  and  C_28
REMARK                            x       y       z     vdW  Elec       q    Type
REMARK                         _______ _______ _______ _____ _____    ______ ____
ROOT
ATOM      1  C   UNL     1      31.343 -23.467 -15.038  0.00  0.00    +0.090 C 
ATOM      2  C   UNL     1      30.920 -23.564 -16.515  0.00  0.00    +0.090 C 
ATOM      3  C   UNL     1      30.397 -24.263 -14.133  0.00  0.00    +0.021 C 
ATOM      4  C   UNL     1      29.448 -23.183 -16.707  0.00  0.00    +0.021 C 
ATOM      5  C   UNL     1      28.939 -23.865 -14.336  0.00  0.00    +0.002 C 
ATOM      6  C   UNL     1      28.527 -23.992 -15.799  0.00  0.00    +0.002 C 
ENDROOT
BRANCH   1   8
ATOM      7  O   UNL     1      32.770 -23.648 -12.553  0.00  0.00    -0.267 OA
ATOM      8  N   UNL     1      32.702 -23.927 -14.854  0.00  0.00    -0.298 N 
ATOM      9  C   UNL     1      33.305 -23.979 -13.608  0.00  0.00    +0.282 C 
ATOM     10  H   UNL     1      33.217 -24.216 -15.643  0.00  0.00    +0.150 HD
BRANCH   9  14
ATOM     11  S   UNL     1      35.753 -24.145 -14.928  0.00  0.00    -0.074 S 
ATOM     12  N   UNL     1      39.075 -26.213 -13.844  0.00  0.00    +0.387 N 
ATOM     13  N   UNL     1      35.235 -25.115 -12.578  0.00  0.00    -0.399 NA
ATOM     14  C   UNL     1      34.714 -24.452 -13.589  0.00  0.00    +0.210 C 
ATOM     15  C   UNL     1      36.549 -25.400 -12.877  0.00  0.00    +0.093 C 
ATOM     16  C   UNL     1      36.995 -24.960 -14.105  0.00  0.00    +0.082 C 
ATOM     17  C   UNL     1      37.432 -26.162 -11.955  0.00  0.00    +0.032 C 
ATOM     18  C   UNL     1      38.387 -25.146 -14.610  0.00  0.00    -0.059 C 
ATOM     19  C   UNL     1      38.913 -26.033 -12.384  0.00  0.00    -0.070 C 
ATOM     20  C   UNL     1      40.491 -26.263 -14.205  0.00  0.00    -0.101 C 
ATOM     21  H   UNL     1      38.640 -27.104 -14.090  0.00  0.00    -0.080 HD
ENDBRANCH   9  14
ENDBRANCH   1   8
BRANCH   2  23
ATOM     22  O   UNL     1      33.391 -24.318 -17.767  0.00  0.00    -0.269 OA
ATOM     23  N   UNL     1      31.755 -22.730 -17.351  0.00  0.00    -0.300 N 
ATOM     24  C   UNL     1      32.935 -23.187 -17.912  0.00  0.00    +0.259 C 
ATOM     25  H   UNL     1      31.472 -21.804 -17.528  0.00  0.00    +0.150 HD
BRANCH  24  28
ATOM     26 CL   UNL     1      35.891 -17.740 -22.520  0.00  0.00    -0.082 Cl
ATOM     27  N   UNL     1      35.053 -22.067 -18.686  0.00  0.00    -0.309 N 
ATOM     28  C   UNL     1      33.691 -22.199 -18.725  0.00  0.00    +0.102 C 
ATOM     29  C   UNL     1      33.200 -21.277 -19.620  0.00  0.00    +0.020 C 
ATOM     30  C   UNL     1      35.457 -21.070 -19.545  0.00  0.00    +0.048 C 
ATOM     31  C   UNL     1      34.306 -20.554 -20.148  0.00  0.00    +0.016 C 
ATOM     32  C   UNL     1      36.739 -20.589 -19.832  0.00  0.00    +0.015 C 
ATOM     33  C   UNL     1      34.441 -19.509 -21.082  0.00  0.00    +0.013 C 
ATOM     34  C   UNL     1      35.718 -19.018 -21.380  0.00  0.00    +0.058 C 
ATOM     35  C   UNL     1      36.848 -19.552 -20.763  0.00  0.00    +0.013 C 
ATOM     36  H   UNL     1      35.655 -22.606 -18.126  0.00  0.00    +0.152 HD
ENDBRANCH  24  28
ENDBRANCH   2  23
TORSDOF 4
ENDMDL
MODEL 2
REMARK VINA RESULT:     -11.4      2.936      7.486
REMARK  Name = 24752833
REMARK  4 active torsions:
REMARK  status: ('A' for Active; 'I' for Inactive)
REMARK    1  A    between atoms: C_1  and  N_8
REMARK    2  A    between atoms: C_2  and  N_23
REMARK    3  A    between atoms: C_9  and  C_14
REMARK    4  A    between atoms: C_24  and  C_28
REMARK                            x       y       z     vdW  Elec       q    Type
REMARK                         _______ _______ _______ _____ _____    ______ ____
ROOT
ATOM      1  C   UNL     1      31.423 -23.810 -16.144  0.00  0.00    +0.090 C 
ATOM      2  C   UNL     1      31.996 -23.725 -14.718  0.00  0.00    +0.090 C 
ATOM      3  C   UNL     1      29.927 -23.481 -16.164  0.00  0.00    +0.021 C 
ATOM      4  C   UNL     1      31.186 -24.572 -13.733  0.00  0.00    +0.021 C 
ATOM      5  C   UNL     1      29.138 -24.339 -15.180  0.00  0.00    +0.002 C 
ATOM      6  C   UNL     1      29.701 -24.224 -13.768  0.00  0.00    +0.002 C 
ENDROOT
BRANCH   1   8
ATOM      7  O   UNL     1      33.710 -24.471 -17.750  0.00  0.00    -0.267 OA
ATOM      8  N   UNL     1      32.131 -22.926 -17.044  0.00  0.00    -0.298 N 
ATOM      9  C   UNL     1      33.230 -23.341 -17.780  0.00  0.00    +0.282 C 
ATOM     10  H   UNL     1      31.821 -21.996 -17.139  0.00  0.00    +0.150 HD
BRANCH   9  14
ATOM     11  S   UNL     1      32.888 -21.259 -19.599  0.00  0.00    -0.074 S 
ATOM     12  N   UNL     1      35.721 -19.245 -21.698  0.00  0.00    +0.387 N 
ATOM     13  N   UNL     1      35.166 -22.137 -18.717  0.00  0.00    -0.399 NA
ATOM     14  C   UNL     1      33.861 -22.307 -18.640  0.00  0.00    +0.210 C 
ATOM     15  C   UNL     1      35.416 -21.104 -19.593  0.00  0.00    +0.093 C 
ATOM     16  C   UNL     1      34.308 -20.520 -20.167  0.00  0.00    +0.082 C 
ATOM     17  C   UNL     1      36.794 -20.659 -19.931  0.00  0.00    +0.032 C 
ATOM     18  C   UNL     1      34.360 -19.375 -21.123  0.00  0.00    -0.059 C 
ATOM     19  C   UNL     1      36.766 -19.289 -20.650  0.00  0.00    -0.070 C 
ATOM     20  C   UNL     1      35.826 -18.014 -22.479  0.00  0.00    -0.101 C 
ATOM     21  H   UNL     1      35.877 -20.043 -22.315  0.00  0.00    -0.080 HD
ENDBRANCH   9  14
ENDBRANCH   1   8
BRANCH   2  23
ATOM     22  O   UNL     1      33.708 -23.835 -12.416  0.00  0.00    -0.269 OA
ATOM     23  N   UNL     1      33.383 -24.134 -14.691  0.00  0.00    -0.300 N 
ATOM     24  C   UNL     1      34.129 -24.153 -13.525  0.00  0.00    +0.259 C 
ATOM     25  H   UNL     1      33.813 -24.409 -15.533  0.00  0.00    +0.150 HD
BRANCH  24  28
ATOM     26 CL   UNL     1      41.286 -27.056 -13.484  0.00  0.00    -0.082 Cl
ATOM     27  N   UNL     1      36.414 -24.021 -14.572  0.00  0.00    -0.309 N 
ATOM     28  C   UNL     1      35.547 -24.573 -13.669  0.00  0.00    +0.102 C 
ATOM     29  C   UNL     1      36.225 -25.544 -12.968  0.00  0.00    +0.020 C 
ATOM     30  C   UNL     1      37.651 -24.618 -14.469  0.00  0.00    +0.048 C 
ATOM     31  C   UNL     1      37.558 -25.583 -13.463  0.00  0.00    +0.016 C 
ATOM     32  C   UNL     1      38.831 -24.381 -15.182  0.00  0.00    +0.015 C 
ATOM     33  C   UNL     1      38.699 -26.350 -13.153  0.00  0.00    +0.013 C 
ATOM     34  C   UNL     1      39.887 -26.123 -13.857  0.00  0.00    +0.058 C 
ATOM     35  C   UNL     1      39.950 -25.153 -14.856  0.00  0.00    +0.013 C 
ATOM     36  H   UNL     1      36.188 -23.301 -15.203  0.00  0.00    +0.152 HD
ENDBRANCH  24  28
ENDBRANCH   2  23
TORSDOF 4
ENDMDL
MODEL 3
REMARK VINA RESULT:     -10.0      2.730      7.256
REMARK  Name = 24752833
REMARK  4 active torsions:
REMARK  status: ('A' for Active; 'I' for Inactive)
REMARK    1  A    between atoms: C_1  and  N_8
REMARK    2  A    between atoms: C_2  and  N_23
REMARK    3  A    between atoms: C_9  and  C_14
REMARK    4  A    between atoms: C_24  and  C_28
REMARK                            x       y       z     vdW  Elec       q    Type
REMARK                         _______ _______ _______ _____ _____    ______ ____
ROOT
ATOM      1  C   UNL     1      30.800 -23.634 -16.480  0.00  0.00    +0.090 C 
ATOM      2  C   UNL     1      31.251 -23.630 -15.008  0.00  0.00    +0.090 C 
ATOM      3  C   UNL     1      29.363 -23.120 -16.624  0.00  0.00    +0.021 C 
ATOM      4  C   UNL     1      30.258 -24.375 -14.112  0.00  0.00    +0.021 C 
ATOM      5  C   UNL     1      28.390 -23.878 -15.726  0.00  0.00    +0.002 C 
ATOM      6  C   UNL     1      28.837 -23.844 -14.269  0.00  0.00    +0.002 C 
ENDROOT
BRANCH   1   8
ATOM      7  O   UNL     1      33.260 -24.502 -17.678  0.00  0.00    -0.267 OA
ATOM      8  N   UNL     1      31.689 -22.840 -17.300  0.00  0.00    -0.298 N 
ATOM      9  C   UNL     1      32.859 -23.353 -17.836  0.00  0.00    +0.282 C 
ATOM     10  H   UNL     1      31.453 -21.902 -17.485  0.00  0.00    +0.150 HD
BRANCH   9  14
ATOM     11  S   UNL     1      35.383 -22.327 -18.421  0.00  0.00    -0.074 S 
ATOM     12  N   UNL     1      36.344 -19.187 -20.809  0.00  0.00    +0.387 N 
ATOM     13  N   UNL     1      33.156 -21.585 -19.529  0.00  0.00    -0.399 NA
ATOM     14  C   UNL     1      33.676 -22.403 -18.635  0.00  0.00    +0.210 C 
ATOM     15  C   UNL     1      34.177 -20.848 -20.086  0.00  0.00    +0.093 C 
ATOM     16  C   UNL     1      35.441 -21.110 -19.604  0.00  0.00    +0.082 C 
ATOM     17  C   UNL     1      33.939 -19.809 -21.123  0.00  0.00    +0.032 C 
ATOM     18  C   UNL     1      36.683 -20.439 -20.090  0.00  0.00    -0.059 C 
ATOM     19  C   UNL     1      35.267 -19.399 -21.802  0.00  0.00    -0.070 C 
ATOM     20  C   UNL     1      37.536 -18.633 -21.450  0.00  0.00    -0.101 C 
ATOM     21  H   UNL     1      35.996 -18.516 -20.123  0.00  0.00    -0.080 HD
ENDBRANCH   9  14
ENDBRANCH   1   8
BRANCH   2  23
ATOM     22  O   UNL     1      33.660 -22.255 -14.265  0.00  0.00    -0.269 OA
ATOM     23  N   UNL     1      32.569 -24.209 -14.868  0.00  0.00    -0.300 N 
ATOM     24  C   UNL     1      33.675 -23.460 -14.504  0.00  0.00    +0.259 C 
ATOM     25  H   UNL     1      32.683 -25.173 -15.038  0.00  0.00    +0.150 HD
BRANCH  24  28
ATOM     26 CL   UNL     1      40.831 -26.322 -14.010  0.00  0.00    -0.082 Cl
ATOM     27  N   UNL     1      35.059 -25.563 -14.492  0.00  0.00    -0.309 N 
ATOM     28  C   UNL     1      34.961 -24.199 -14.428  0.00  0.00    +0.102 C 
ATOM     29  C   UNL     1      36.231 -23.689 -14.287  0.00  0.00    +0.020 C 
ATOM     30  C   UNL     1      36.376 -25.950 -14.394  0.00  0.00    +0.048 C 
ATOM     31  C   UNL     1      37.138 -24.786 -14.263  0.00  0.00    +0.016 C 
ATOM     32  C   UNL     1      36.947 -27.227 -14.409  0.00  0.00    +0.015 C 
ATOM     33  C   UNL     1      38.537 -24.900 -14.143  0.00  0.00    +0.013 C 
ATOM     34  C   UNL     1      39.122 -26.172 -14.158  0.00  0.00    +0.058 C 
ATOM     35  C   UNL     1      38.337 -27.316 -14.288  0.00  0.00    +0.013 C 
ATOM     36  H   UNL     1      34.297 -26.178 -14.593  0.00  0.00    +0.152 HD
ENDBRANCH  24  28
ENDBRANCH   2  23
TORSDOF 4
ENDMDL
MODEL 4
REMARK VINA RESULT:      -9.9      3.015      8.264
REMARK  Name = 24752833
REMARK  4 active torsions:
REMARK  status: ('A' for Active; 'I' for Inactive)
REMARK    1  A    between atoms: C_1  and  N_8
REMARK    2  A    between atoms: C_2  and  N_23
REMARK    3  A    between atoms: C_9  and  C_14
REMARK    4  A    between atoms: C_24  and  C_28
REMARK                            x       y       z     vdW  Elec       q    Type
REMARK                         _______ _______ _______ _____ _____    ______ ____
ROOT
ATOM      1  C   UNL     1      37.524 -24.099 -14.964  0.00  0.00    +0.090 C 
ATOM      2  C   UNL     1      36.759 -25.435 -14.965  0.00  0.00    +0.090 C 
ATOM      3  C   UNL     1      39.031 -24.320 -14.791  0.00  0.00    +0.021 C 
ATOM      4  C   UNL     1      37.100 -26.282 -13.735  0.00  0.00    +0.021 C 
ATOM      5  C   UNL     1      39.349 -25.161 -13.559  0.00  0.00    +0.002 C 
ATOM      6  C   UNL     1      38.604 -26.491 -13.586  0.00  0.00    +0.002 C 
ENDROOT
BRANCH   1   8
ATOM      7  O   UNL     1      35.430 -22.184 -15.401  0.00  0.00    -0.267 OA
ATOM      8  N   UNL     1      37.275 -23.354 -16.179  0.00  0.00    -0.298 N 
ATOM      9  C   UNL     1      36.233 -22.447 -16.292  0.00  0.00    +0.282 C 
ATOM     10  H   UNL     1      37.867 -23.496 -16.953  0.00  0.00    +0.150 HD
BRANCH   9  14
ATOM     11  S   UNL     1      34.732 -22.108 -18.614  0.00  0.00    -0.074 S 
ATOM     12  N   UNL     1      35.707 -20.052 -21.977  0.00  0.00    +0.387 N 
ATOM     13  N   UNL     1      36.982 -20.928 -18.083  0.00  0.00    -0.399 NA
ATOM     14  C   UNL     1      36.095 -21.782 -17.613  0.00  0.00    +0.210 C 
ATOM     15  C   UNL     1      36.555 -20.498 -19.320  0.00  0.00    +0.093 C 
ATOM     16  C   UNL     1      35.368 -21.035 -19.767  0.00  0.00    +0.082 C 
ATOM     17  C   UNL     1      37.335 -19.538 -20.145  0.00  0.00    +0.032 C 
ATOM     18  C   UNL     1      34.723 -20.685 -21.067  0.00  0.00    -0.059 C 
ATOM     19  C   UNL     1      36.471 -18.980 -21.300  0.00  0.00    -0.070 C 
ATOM     20  C   UNL     1      35.036 -19.535 -23.169  0.00  0.00    -0.101 C 
ATOM     21  H   UNL     1      36.378 -20.768 -22.260  0.00  0.00    -0.080 HD
ENDBRANCH   9  14
ENDBRANCH   1   8
BRANCH   2  23
ATOM     22  O   UNL     1      35.090 -24.397 -12.872  0.00  0.00    -0.269 OA
ATOM     23  N   UNL     1      35.331 -25.214 -15.027  0.00  0.00    -0.300 N 
ATOM     24  C   UNL     1      34.611 -24.707 -13.959  0.00  0.00    +0.259 C 
ATOM     25  H   UNL     1      34.854 -25.432 -15.860  0.00  0.00    +0.150 HD
BRANCH  24  28
ATOM     26 CL   UNL     1      27.227 -22.939 -15.379  0.00  0.00    -0.082 Cl
ATOM     27  N   UNL     1      32.247 -25.574 -13.967  0.00  0.00    -0.309 N 
ATOM     28  C   UNL     1      33.147 -24.564 -14.174  0.00  0.00    +0.102 C 
ATOM     29  C   UNL     1      32.452 -23.456 -14.601  0.00  0.00    +0.020 C 
ATOM     30  C   UNL     1      30.972 -25.139 -14.252  0.00  0.00    +0.048 C 
ATOM     31  C   UNL     1      31.073 -23.805 -14.655  0.00  0.00    +0.016 C 
ATOM     32  C   UNL     1      29.750 -25.817 -14.186  0.00  0.00    +0.015 C 
ATOM     33  C   UNL     1      29.899 -23.112 -15.009  0.00  0.00    +0.013 C 
ATOM     34  C   UNL     1      28.669 -23.778 -14.947  0.00  0.00    +0.058 C 
ATOM     35  C   UNL     1      28.598 -25.109 -14.542  0.00  0.00    +0.013 C 
ATOM     36  H   UNL     1      32.477 -26.479 -13.658  0.00  0.00    +0.152 HD
ENDBRANCH  24  28
ENDBRANCH   2  23
TORSDOF 4
ENDMDL
MODEL 5
REMARK VINA RESULT:      -9.7      2.016      6.180
REMARK  Name = 24752833
REMARK  4 active torsions:
REMARK  status: ('A' for Active; 'I' for Inactive)
REMARK    1  A    between atoms: C_1  and  N_8
REMARK    2  A    between atoms: C_2  and  N_23
REMARK    3  A    between atoms: C_9  and  C_14
REMARK    4  A    between atoms: C_24  and  C_28
REMARK                            x       y       z     vdW  Elec       q    Type
REMARK                         _______ _______ _______ _____ _____    ______ ____
ROOT
ATOM      1  C   UNL     1      36.763 -25.481 -14.961  0.00  0.00    +0.090 C 
ATOM      2  C   UNL     1      37.547 -24.157 -14.919  0.00  0.00    +0.090 C 
ATOM      3  C   UNL     1      37.047 -26.338 -13.723  0.00  0.00    +0.021 C 
ATOM      4  C   UNL     1      39.043 -24.394 -14.686  0.00  0.00    +0.021 C 
ATOM      5  C   UNL     1      38.540 -26.565 -13.512  0.00  0.00    +0.002 C 
ATOM      6  C   UNL     1      39.299 -25.244 -13.446  0.00  0.00    +0.002 C 
ENDROOT
BRANCH   1   8
ATOM      7  O   UNL     1      35.026 -24.453 -12.920  0.00  0.00    -0.267 OA
ATOM      8  N   UNL     1      35.341 -25.242 -15.077  0.00  0.00    -0.298 N 
ATOM      9  C   UNL     1      34.586 -24.740 -14.029  0.00  0.00    +0.282 C 
ATOM     10  H   UNL     1      34.894 -25.442 -15.932  0.00  0.00    +0.150 HD
BRANCH   9  14
ATOM     11  S   UNL     1      32.576 -23.291 -15.303  0.00  0.00    -0.074 S 
ATOM     12  N   UNL     1      28.551 -23.691 -14.937  0.00  0.00    +0.387 N 
ATOM     13  N   UNL     1      32.215 -25.376 -13.801  0.00  0.00    -0.399 NA
ATOM     14  C   UNL     1      33.134 -24.575 -14.300  0.00  0.00    +0.210 C 
ATOM     15  C   UNL     1      30.983 -24.951 -14.244  0.00  0.00    +0.093 C 
ATOM     16  C   UNL     1      30.987 -23.837 -15.056  0.00  0.00    +0.082 C 
ATOM     17  C   UNL     1      29.716 -25.624 -13.851  0.00  0.00    +0.032 C 
ATOM     18  C   UNL     1      29.763 -23.231 -15.658  0.00  0.00    -0.059 C 
ATOM     19  C   UNL     1      28.547 -25.159 -14.752  0.00  0.00    -0.070 C 
ATOM     20  C   UNL     1      27.347 -23.255 -15.642  0.00  0.00    -0.101 C 
ATOM     21  H   UNL     1      28.561 -23.268 -14.008  0.00  0.00    -0.080 HD
ENDBRANCH   9  14
ENDBRANCH   1   8
BRANCH   2  23
ATOM     22  O   UNL     1      35.612 -22.082 -15.360  0.00  0.00    -0.269 OA
ATOM     23  N   UNL     1      37.354 -23.400 -16.136  0.00  0.00    -0.300 N 
ATOM     24  C   UNL     1      36.389 -22.414 -16.252  0.00  0.00    +0.259 C 
ATOM     25  H   UNL     1      37.931 -23.593 -16.910  0.00  0.00    +0.150 HD
BRANCH  24  28
ATOM     26 CL   UNL     1      35.046 -19.556 -23.300  0.00  0.00    -0.082 Cl
ATOM     27  N   UNL     1      37.185 -20.794 -18.007  0.00  0.00    -0.309 N 
ATOM     28  C   UNL     1      36.301 -21.747 -17.576  0.00  0.00    +0.102 C 
ATOM     29  C   UNL     1      35.370 -21.941 -18.570  0.00  0.00    +0.020 C 
ATOM     30  C   UNL     1      36.843 -20.365 -19.269  0.00  0.00    +0.048 C 
ATOM     31  C   UNL     1      35.700 -21.073 -19.648  0.00  0.00    +0.016 C 
ATOM     32  C   UNL     1      37.449 -19.413 -20.095  0.00  0.00    +0.015 C 
ATOM     33  C   UNL     1      35.134 -20.820 -20.913  0.00  0.00    +0.013 C 
ATOM     34  C   UNL     1      35.731 -19.872 -21.751  0.00  0.00    +0.058 C 
ATOM     35  C   UNL     1      36.871 -19.179 -21.347  0.00  0.00    +0.013 C 
ATOM     36  H   UNL     1      37.954 -20.464 -17.489  0.00  0.00    +0.152 HD
ENDBRANCH  24  28
ENDBRANCH   2  23
TORSDOF 4
ENDMDL
