MODEL 1
REMARK VINA RESULT:     -12.1      0.000      0.000
REMARK  Name = 25058128
REMARK  13 active torsions:
REMARK  status: ('A' for Active; 'I' for Inactive)
REMARK    1  A    between atoms: C_1  and  S_11
REMARK    2  A    between atoms: C_9  and  O_27
REMARK    3  A    between atoms: S_11  and  N_14
REMARK    4  A    between atoms: N_14  and  C_16
REMARK    5  A    between atoms: C_16  and  C_18
REMARK    6  A    between atoms: C_16  and  C_21
REMARK    7  A    between atoms: C_18  and  O_19
REMARK    8  A    between atoms: C_21  and  C_22
REMARK    9  A    between atoms: C_22  and  C_24
REMARK   10  A    between atoms: C_24  and  O_25
REMARK   11  A    between atoms: O_27  and  C_28
REMARK   12  A    between atoms: C_28  and  C_30
REMARK   13  A    between atoms: C_35  and  C_37
REMARK                            x       y       z     vdW  Elec       q    Type
REMARK                         _______ _______ _______ _____ _____    ______ ____
ROOT
ATOM      1  C   UNL     1      35.554 -23.342 -16.087  0.00  0.00    +0.122 C 
ATOM      2  C   UNL     1      34.470 -22.348 -18.024  0.00  0.00    +0.002 C 
ATOM      3  C   UNL     1      34.418 -23.152 -16.874  0.00  0.00    +0.020 C 
ATOM      4  C   UNL     1      35.692 -21.728 -18.380  0.00  0.00    +0.003 C 
ATOM      5  C   UNL     1      36.754 -22.732 -16.436  0.00  0.00    +0.020 C 
ATOM      6  C   UNL     1      36.825 -21.929 -17.576  0.00  0.00    +0.001 C 
ATOM      7  C   UNL     1      35.744 -20.923 -19.530  0.00  0.00    +0.037 C 
ATOM      8  C   UNL     1      33.337 -22.145 -18.830  0.00  0.00    +0.003 C 
ATOM      9  C   UNL     1      34.609 -20.733 -20.318  0.00  0.00    +0.139 C 
ATOM     10  C   UNL     1      33.408 -21.343 -19.969  0.00  0.00    +0.037 C 
ENDROOT
BRANCH   1  11
ATOM     11  S   UNL     1      35.467 -24.358 -14.642  0.00  0.00    +0.061 S 
ATOM     12  O   UNL     1      34.336 -23.915 -13.852  0.00  0.00    -0.153 OA
ATOM     13  O   UNL     1      35.550 -25.735 -15.090  0.00  0.00    -0.153 OA
BRANCH  11  14
ATOM     14  N   UNL     1      36.910 -23.952 -13.842  0.00  0.00    -0.170 NA
ATOM     15  H   UNL     1      36.678 -23.220 -13.169  0.00  0.00    +0.149 HD
BRANCH  14  16
ATOM     16  C   UNL     1      37.663 -24.989 -13.103  0.00  0.00    +0.174 C 
BRANCH  16  18
ATOM     17  O   UNL     1      40.044 -24.976 -13.599  0.00  0.00    -0.249 OA
ATOM     18  C   UNL     1      38.905 -25.318 -13.895  0.00  0.00    +0.330 C 
BRANCH  18  19
ATOM     19  O   UNL     1      38.630 -26.072 -14.991  0.00  0.00    -0.479 OA
ATOM     20  H   UNL     1      38.869 -25.764 -15.843  0.00  0.00    +0.295 HD
ENDBRANCH  18  19
ENDBRANCH  16  18
BRANCH  16  21
ATOM     21  C   UNL     1      37.925 -24.537 -11.662  0.00  0.00    +0.040 C 
BRANCH  21  22
ATOM     22  C   UNL     1      36.802 -23.751 -10.979  0.00  0.00    +0.111 C 
BRANCH  22  24
ATOM     23  O   UNL     1      35.469 -24.686  -9.194  0.00  0.00    -0.250 OA
ATOM     24  C   UNL     1      35.719 -24.620 -10.392  0.00  0.00    +0.314 C 
BRANCH  24  25
ATOM     25  O   UNL     1      35.055 -25.340 -11.330  0.00  0.00    -0.480 OA
ATOM     26  H   UNL     1      34.569 -26.101 -11.078  0.00  0.00    +0.295 HD
ENDBRANCH  24  25
ENDBRANCH  22  24
ENDBRANCH  21  22
ENDBRANCH  16  21
ENDBRANCH  14  16
ENDBRANCH  11  14
ENDBRANCH   1  11
BRANCH   9  27
ATOM     27  O   UNL     1      34.675 -19.949 -21.429  0.00  0.00    -0.471 OA
BRANCH  27  28
ATOM     28  C   UNL     1      35.583 -18.850 -21.395  0.00  0.00    +0.234 C 
BRANCH  28  30
ATOM     29  F   UNL     1      35.137 -16.174 -20.585  0.00  0.00    -0.204 F 
ATOM     30  C   UNL     1      35.096 -17.783 -22.330  0.00  0.00    +0.049 C 
ATOM     31  C   UNL     1      34.896 -16.483 -21.867  0.00  0.00    +0.140 C 
ATOM     32  C   UNL     1      34.844 -18.093 -23.667  0.00  0.00    +0.002 C 
ATOM     33  C   UNL     1      34.442 -15.493 -22.740  0.00  0.00    +0.040 C 
ATOM     34  C   UNL     1      34.389 -17.104 -24.539  0.00  0.00    +0.010 C 
ATOM     35  C   UNL     1      34.189 -15.804 -24.076  0.00  0.00    +0.071 C 
BRANCH  35  37
ATOM     36  N   UNL     1      33.349 -13.966 -25.695  0.00  0.00    -0.191 NA
ATOM     37  C   UNL     1      33.726 -14.790 -24.970  0.00  0.00    +0.100 C 
ENDBRANCH  35  37
ENDBRANCH  28  30
ENDBRANCH  27  28
ENDBRANCH   9  27
TORSDOF 13
ENDMDL
MODEL 2
REMARK VINA RESULT:     -12.0      1.713      3.196
REMARK  Name = 25058128
REMARK  13 active torsions:
REMARK  status: ('A' for Active; 'I' for Inactive)
REMARK    1  A    between atoms: C_1  and  S_11
REMARK    2  A    between atoms: C_9  and  O_27
REMARK    3  A    between atoms: S_11  and  N_14
REMARK    4  A    between atoms: N_14  and  C_16
REMARK    5  A    between atoms: C_16  and  C_18
REMARK    6  A    between atoms: C_16  and  C_21
REMARK    7  A    between atoms: C_18  and  O_19
REMARK    8  A    between atoms: C_21  and  C_22
REMARK    9  A    between atoms: C_22  and  C_24
REMARK   10  A    between atoms: C_24  and  O_25
REMARK   11  A    between atoms: O_27  and  C_28
REMARK   12  A    between atoms: C_28  and  C_30
REMARK   13  A    between atoms: C_35  and  C_37
REMARK                            x       y       z     vdW  Elec       q    Type
REMARK                         _______ _______ _______ _____ _____    ______ ____
ROOT
ATOM      1  C   UNL     1      33.979 -23.786 -15.603  0.00  0.00    +0.122 C 
ATOM      2  C   UNL     1      35.064 -22.573 -17.410  0.00  0.00    +0.002 C 
ATOM      3  C   UNL     1      35.132 -23.273 -16.195  0.00  0.00    +0.020 C 
ATOM      4  C   UNL     1      33.806 -22.392 -18.034  0.00  0.00    +0.003 C 
ATOM      5  C   UNL     1      32.743 -23.610 -16.217  0.00  0.00    +0.020 C 
ATOM      6  C   UNL     1      32.655 -22.917 -17.425  0.00  0.00    +0.001 C 
ATOM      7  C   UNL     1      33.737 -21.692 -19.250  0.00  0.00    +0.037 C 
ATOM      8  C   UNL     1      36.215 -22.047 -18.020  0.00  0.00    +0.003 C 
ATOM      9  C   UNL     1      34.891 -21.178 -19.842  0.00  0.00    +0.139 C 
ATOM     10  C   UNL     1      36.128 -21.355 -19.228  0.00  0.00    +0.037 C 
ENDROOT
BRANCH   1  11
ATOM     11  S   UNL     1      34.087 -24.665 -14.072  0.00  0.00    +0.061 S 
ATOM     12  O   UNL     1      34.341 -23.701 -13.021  0.00  0.00    -0.153 OA
ATOM     13  O   UNL     1      32.928 -25.535 -14.002  0.00  0.00    -0.153 OA
BRANCH  11  14
ATOM     14  N   UNL     1      35.474 -25.616 -14.314  0.00  0.00    -0.170 NA
ATOM     15  H   UNL     1      35.724 -25.530 -15.299  0.00  0.00    +0.149 HD
BRANCH  14  16
ATOM     16  C   UNL     1      36.703 -25.342 -13.537  0.00  0.00    +0.174 C 
BRANCH  16  18
ATOM     17  O   UNL     1      36.706 -26.034 -11.205  0.00  0.00    -0.249 OA
ATOM     18  C   UNL     1      36.764 -26.325 -12.393  0.00  0.00    +0.330 C 
BRANCH  18  19
ATOM     19  O   UNL     1      36.872 -27.608 -12.827  0.00  0.00    -0.479 OA
ATOM     20  H   UNL     1      37.269 -28.257 -12.279  0.00  0.00    +0.295 HD
ENDBRANCH  18  19
ENDBRANCH  16  18
BRANCH  16  21
ATOM     21  C   UNL     1      37.932 -25.353 -14.454  0.00  0.00    +0.040 C 
BRANCH  21  22
ATOM     22  C   UNL     1      39.298 -25.319 -13.764  0.00  0.00    +0.111 C 
BRANCH  22  24
ATOM     23  O   UNL     1      41.136 -26.887 -13.788  0.00  0.00    -0.250 OA
ATOM     24  C   UNL     1      40.331 -26.205 -14.412  0.00  0.00    +0.314 C 
BRANCH  24  25
ATOM     25  O   UNL     1      40.291 -26.158 -15.767  0.00  0.00    -0.480 OA
ATOM     26  H   UNL     1      39.668 -26.679 -16.235  0.00  0.00    +0.295 HD
ENDBRANCH  24  25
ENDBRANCH  22  24
ENDBRANCH  21  22
ENDBRANCH  16  21
ENDBRANCH  14  16
ENDBRANCH  11  14
ENDBRANCH   1  11
BRANCH   9  27
ATOM     27  O   UNL     1      34.808 -20.503 -21.021  0.00  0.00    -0.471 OA
BRANCH  27  28
ATOM     28  C   UNL     1      35.829 -19.545 -21.295  0.00  0.00    +0.234 C 
BRANCH  28  30
ATOM     29  F   UNL     1      34.848 -20.228 -23.861  0.00  0.00    -0.204 F 
ATOM     30  C   UNL     1      35.302 -18.530 -22.265  0.00  0.00    +0.049 C 
ATOM     31  C   UNL     1      34.833 -18.933 -23.516  0.00  0.00    +0.140 C 
ATOM     32  C   UNL     1      35.281 -17.180 -21.914  0.00  0.00    +0.002 C 
ATOM     33  C   UNL     1      34.344 -17.985 -24.415  0.00  0.00    +0.040 C 
ATOM     34  C   UNL     1      34.792 -16.233 -22.815  0.00  0.00    +0.010 C 
ATOM     35  C   UNL     1      34.323 -16.635 -24.065  0.00  0.00    +0.071 C 
BRANCH  35  37
ATOM     36  N   UNL     1      33.413 -14.878 -25.735  0.00  0.00    -0.191 NA
ATOM     37  C   UNL     1      33.820 -15.666 -24.986  0.00  0.00    +0.100 C 
ENDBRANCH  35  37
ENDBRANCH  28  30
ENDBRANCH  27  28
ENDBRANCH   9  27
TORSDOF 13
ENDMDL
MODEL 3
REMARK VINA RESULT:     -11.8      2.593      4.337
REMARK  Name = 25058128
REMARK  13 active torsions:
REMARK  status: ('A' for Active; 'I' for Inactive)
REMARK    1  A    between atoms: C_1  and  S_11
REMARK    2  A    between atoms: C_9  and  O_27
REMARK    3  A    between atoms: S_11  and  N_14
REMARK    4  A    between atoms: N_14  and  C_16
REMARK    5  A    between atoms: C_16  and  C_18
REMARK    6  A    between atoms: C_16  and  C_21
REMARK    7  A    between atoms: C_18  and  O_19
REMARK    8  A    between atoms: C_21  and  C_22
REMARK    9  A    between atoms: C_22  and  C_24
REMARK   10  A    between atoms: C_24  and  O_25
REMARK   11  A    between atoms: O_27  and  C_28
REMARK   12  A    between atoms: C_28  and  C_30
REMARK   13  A    between atoms: C_35  and  C_37
REMARK                            x       y       z     vdW  Elec       q    Type
REMARK                         _______ _______ _______ _____ _____    ______ ____
ROOT
ATOM      1  C   UNL     1      35.406 -23.289 -15.767  0.00  0.00    +0.122 C 
ATOM      2  C   UNL     1      34.521 -22.375 -17.840  0.00  0.00    +0.002 C 
ATOM      3  C   UNL     1      34.341 -23.091 -16.644  0.00  0.00    +0.020 C 
ATOM      4  C   UNL     1      35.801 -21.853 -18.147  0.00  0.00    +0.003 C 
ATOM      5  C   UNL     1      36.664 -22.775 -16.069  0.00  0.00    +0.020 C 
ATOM      6  C   UNL     1      36.861 -22.061 -17.251  0.00  0.00    +0.001 C 
ATOM      7  C   UNL     1      35.981 -21.137 -19.342  0.00  0.00    +0.037 C 
ATOM      8  C   UNL     1      33.461 -22.166 -18.737  0.00  0.00    +0.003 C 
ATOM      9  C   UNL     1      34.915 -20.939 -20.221  0.00  0.00    +0.139 C 
ATOM     10  C   UNL     1      33.658 -21.453 -19.919  0.00  0.00    +0.037 C 
ENDROOT
BRANCH   1  11
ATOM     11  S   UNL     1      35.158 -24.192 -14.267  0.00  0.00    +0.061 S 
ATOM     12  O   UNL     1      35.034 -25.596 -14.606  0.00  0.00    -0.153 OA
ATOM     13  O   UNL     1      36.181 -23.754 -13.336  0.00  0.00    -0.153 OA
BRANCH  11  14
ATOM     14  N   UNL     1      33.652 -23.601 -13.748  0.00  0.00    -0.170 NA
ATOM     15  H   UNL     1      33.649 -22.597 -13.934  0.00  0.00    +0.149 HD
BRANCH  14  16
ATOM     16  C   UNL     1      32.405 -24.146 -14.327  0.00  0.00    +0.174 C 
BRANCH  16  18
ATOM     17  O   UNL     1      30.613 -25.398 -13.261  0.00  0.00    -0.249 OA
ATOM     18  C   UNL     1      31.798 -25.096 -13.323  0.00  0.00    +0.330 C 
BRANCH  18  19
ATOM     19  O   UNL     1      32.730 -25.613 -12.480  0.00  0.00    -0.479 OA
ATOM     20  H   UNL     1      32.623 -25.528 -11.553  0.00  0.00    +0.295 HD
ENDBRANCH  18  19
ENDBRANCH  16  18
BRANCH  16  21
ATOM     21  C   UNL     1      31.477 -23.008 -14.770  0.00  0.00    +0.040 C 
BRANCH  21  22
ATOM     22  C   UNL     1      30.787 -23.180 -16.126  0.00  0.00    +0.111 C 
BRANCH  22  24
ATOM     23  O   UNL     1      28.563 -22.369 -16.609  0.00  0.00    -0.250 OA
ATOM     24  C   UNL     1      29.281 -23.188 -16.048  0.00  0.00    +0.314 C 
BRANCH  24  25
ATOM     25  O   UNL     1      28.799 -24.192 -15.274  0.00  0.00    -0.480 OA
ATOM     26  H   UNL     1      29.142 -24.323 -14.411  0.00  0.00    +0.295 HD
ENDBRANCH  24  25
ENDBRANCH  22  24
ENDBRANCH  21  22
ENDBRANCH  16  21
ENDBRANCH  14  16
ENDBRANCH  11  14
ENDBRANCH   1  11
BRANCH   9  27
ATOM     27  O   UNL     1      35.106 -20.242 -21.375  0.00  0.00    -0.471 OA
BRANCH  27  28
ATOM     28  C   UNL     1      35.820 -19.011 -21.279  0.00  0.00    +0.234 C 
BRANCH  28  30
ATOM     29  F   UNL     1      34.809 -19.830 -23.794  0.00  0.00    -0.204 F 
ATOM     30  C   UNL     1      35.277 -18.050 -22.295  0.00  0.00    +0.049 C 
ATOM     31  C   UNL     1      34.795 -18.519 -23.517  0.00  0.00    +0.140 C 
ATOM     32  C   UNL     1      35.256 -16.683 -22.016  0.00  0.00    +0.002 C 
ATOM     33  C   UNL     1      34.291 -17.622 -24.459  0.00  0.00    +0.040 C 
ATOM     34  C   UNL     1      34.753 -15.786 -22.959  0.00  0.00    +0.010 C 
ATOM     35  C   UNL     1      34.271 -16.255 -24.180  0.00  0.00    +0.071 C 
BRANCH  35  37
ATOM     36  N   UNL     1      33.333 -14.591 -25.928  0.00  0.00    -0.191 NA
ATOM     37  C   UNL     1      33.754 -15.337 -25.145  0.00  0.00    +0.100 C 
ENDBRANCH  35  37
ENDBRANCH  28  30
ENDBRANCH  27  28
ENDBRANCH   9  27
TORSDOF 13
ENDMDL
MODEL 4
REMARK VINA RESULT:     -11.7      0.874      2.595
REMARK  Name = 25058128
REMARK  13 active torsions:
REMARK  status: ('A' for Active; 'I' for Inactive)
REMARK    1  A    between atoms: C_1  and  S_11
REMARK    2  A    between atoms: C_9  and  O_27
REMARK    3  A    between atoms: S_11  and  N_14
REMARK    4  A    between atoms: N_14  and  C_16
REMARK    5  A    between atoms: C_16  and  C_18
REMARK    6  A    between atoms: C_16  and  C_21
REMARK    7  A    between atoms: C_18  and  O_19
REMARK    8  A    between atoms: C_21  and  C_22
REMARK    9  A    between atoms: C_22  and  C_24
REMARK   10  A    between atoms: C_24  and  O_25
REMARK   11  A    between atoms: O_27  and  C_28
REMARK   12  A    between atoms: C_28  and  C_30
REMARK   13  A    between atoms: C_35  and  C_37
REMARK                            x       y       z     vdW  Elec       q    Type
REMARK                         _______ _______ _______ _____ _____    ______ ____
ROOT
ATOM      1  C   UNL     1      35.729 -23.491 -15.372  0.00  0.00    +0.122 C 
ATOM      2  C   UNL     1      34.747 -22.643 -17.429  0.00  0.00    +0.002 C 
ATOM      3  C   UNL     1      34.633 -23.353 -16.223  0.00  0.00    +0.020 C 
ATOM      4  C   UNL     1      35.992 -22.065 -17.777  0.00  0.00    +0.003 C 
ATOM      5  C   UNL     1      36.952 -22.922 -15.713  0.00  0.00    +0.020 C 
ATOM      6  C   UNL     1      37.084 -22.213 -16.908  0.00  0.00    +0.001 C 
ATOM      7  C   UNL     1      36.106 -21.355 -18.983  0.00  0.00    +0.037 C 
ATOM      8  C   UNL     1      33.654 -22.495 -18.299  0.00  0.00    +0.003 C 
ATOM      9  C   UNL     1      35.009 -21.217 -19.835  0.00  0.00    +0.139 C 
ATOM     10  C   UNL     1      33.786 -21.786 -19.494  0.00  0.00    +0.037 C 
ENDROOT
BRANCH   1  11
ATOM     11  S   UNL     1      35.564 -24.389 -13.857  0.00  0.00    +0.061 S 
ATOM     12  O   UNL     1      34.224 -24.170 -13.352  0.00  0.00    -0.153 OA
ATOM     13  O   UNL     1      36.039 -25.736 -14.112  0.00  0.00    -0.153 OA
BRANCH  11  14
ATOM     14  N   UNL     1      36.683 -23.592 -12.856  0.00  0.00    -0.170 NA
ATOM     15  H   UNL     1      36.174 -22.848 -12.379  0.00  0.00    +0.149 HD
BRANCH  14  16
ATOM     16  C   UNL     1      37.410 -24.348 -11.813  0.00  0.00    +0.174 C 
BRANCH  16  18
ATOM     17  O   UNL     1      36.324 -24.253  -9.639  0.00  0.00    -0.249 OA
ATOM     18  C   UNL     1      36.417 -24.756 -10.752  0.00  0.00    +0.330 C 
BRANCH  18  19
ATOM     19  O   UNL     1      35.599 -25.755 -11.173  0.00  0.00    -0.479 OA
ATOM     20  H   UNL     1      34.669 -25.638 -11.155  0.00  0.00    +0.295 HD
ENDBRANCH  18  19
ENDBRANCH  16  18
BRANCH  16  21
ATOM     21  C   UNL     1      38.190 -25.511 -12.439  0.00  0.00    +0.040 C 
BRANCH  21  22
ATOM     22  C   UNL     1      39.416 -25.137 -13.276  0.00  0.00    +0.111 C 
BRANCH  22  24
ATOM     23  O   UNL     1      40.822 -26.518 -14.674  0.00  0.00    -0.250 OA
ATOM     24  C   UNL     1      39.703 -26.100 -14.401  0.00  0.00    +0.314 C 
BRANCH  24  25
ATOM     25  O   UNL     1      38.591 -26.446 -15.096  0.00  0.00    -0.480 OA
ATOM     26  H   UNL     1      37.830 -25.900 -15.062  0.00  0.00    +0.295 HD
ENDBRANCH  24  25
ENDBRANCH  22  24
ENDBRANCH  21  22
ENDBRANCH  16  21
ENDBRANCH  14  16
ENDBRANCH  11  14
ENDBRANCH   1  11
BRANCH   9  27
ATOM     27  O   UNL     1      35.136 -20.525 -21.000  0.00  0.00    -0.471 OA
BRANCH  27  28
ATOM     28  C   UNL     1      35.841 -19.286 -20.946  0.00  0.00    +0.234 C 
BRANCH  28  30
ATOM     29  F   UNL     1      35.469 -16.505 -20.566  0.00  0.00    -0.204 F 
ATOM     30  C   UNL     1      35.318 -18.377 -22.018  0.00  0.00    +0.049 C 
ATOM     31  C   UNL     1      35.157 -17.015 -21.765  0.00  0.00    +0.140 C 
ATOM     32  C   UNL     1      34.991 -18.897 -23.271  0.00  0.00    +0.002 C 
ATOM     33  C   UNL     1      34.669 -16.173 -22.765  0.00  0.00    +0.040 C 
ATOM     34  C   UNL     1      34.503 -18.055 -24.270  0.00  0.00    +0.010 C 
ATOM     35  C   UNL     1      34.341 -16.693 -24.018  0.00  0.00    +0.071 C 
BRANCH  35  37
ATOM     36  N   UNL     1      33.439 -15.129 -25.874  0.00  0.00    -0.191 NA
ATOM     37  C   UNL     1      33.844 -15.830 -25.042  0.00  0.00    +0.100 C 
ENDBRANCH  35  37
ENDBRANCH  28  30
ENDBRANCH  27  28
ENDBRANCH   9  27
TORSDOF 13
ENDMDL
MODEL 5
REMARK VINA RESULT:     -11.5      1.351      2.033
REMARK  Name = 25058128
REMARK  13 active torsions:
REMARK  status: ('A' for Active; 'I' for Inactive)
REMARK    1  A    between atoms: C_1  and  S_11
REMARK    2  A    between atoms: C_9  and  O_27
REMARK    3  A    between atoms: S_11  and  N_14
REMARK    4  A    between atoms: N_14  and  C_16
REMARK    5  A    between atoms: C_16  and  C_18
REMARK    6  A    between atoms: C_16  and  C_21
REMARK    7  A    between atoms: C_18  and  O_19
REMARK    8  A    between atoms: C_21  and  C_22
REMARK    9  A    between atoms: C_22  and  C_24
REMARK   10  A    between atoms: C_24  and  O_25
REMARK   11  A    between atoms: O_27  and  C_28
REMARK   12  A    between atoms: C_28  and  C_30
REMARK   13  A    between atoms: C_35  and  C_37
REMARK                            x       y       z     vdW  Elec       q    Type
REMARK                         _______ _______ _______ _____ _____    ______ ____
ROOT
ATOM      1  C   UNL     1      34.776 -23.617 -16.006  0.00  0.00    +0.122 C 
ATOM      2  C   UNL     1      35.497 -22.221 -17.862  0.00  0.00    +0.002 C 
ATOM      3  C   UNL     1      35.783 -22.933 -16.686  0.00  0.00    +0.020 C 
ATOM      4  C   UNL     1      34.170 -22.204 -18.355  0.00  0.00    +0.003 C 
ATOM      5  C   UNL     1      33.472 -23.601 -16.490  0.00  0.00    +0.020 C 
ATOM      6  C   UNL     1      33.169 -22.899 -17.658  0.00  0.00    +0.001 C 
ATOM      7  C   UNL     1      33.884 -21.492 -19.531  0.00  0.00    +0.037 C 
ATOM      8  C   UNL     1      36.498 -21.526 -18.560  0.00  0.00    +0.003 C 
ATOM      9  C   UNL     1      34.891 -20.807 -20.212  0.00  0.00    +0.139 C 
ATOM     10  C   UNL     1      36.195 -20.824 -19.728  0.00  0.00    +0.037 C 
ENDROOT
BRANCH   1  11
ATOM     11  S   UNL     1      35.157 -24.508 -14.526  0.00  0.00    +0.061 S 
ATOM     12  O   UNL     1      34.621 -23.763 -13.405  0.00  0.00    -0.153 OA
ATOM     13  O   UNL     1      34.757 -25.884 -14.747  0.00  0.00    -0.153 OA
BRANCH  11  14
ATOM     14  N   UNL     1      36.855 -24.427 -14.498  0.00  0.00    -0.170 NA
ATOM     15  H   UNL     1      37.105 -23.702 -13.825  0.00  0.00    +0.149 HD
BRANCH  14  16
ATOM     16  C   UNL     1      37.646 -25.627 -14.146  0.00  0.00    +0.174 C 
BRANCH  16  18
ATOM     17  O   UNL     1      39.938 -26.277 -14.635  0.00  0.00    -0.249 OA
ATOM     18  C   UNL     1      39.037 -25.449 -14.704  0.00  0.00    +0.330 C 
BRANCH  18  19
ATOM     19  O   UNL     1      39.192 -24.251 -15.326  0.00  0.00    -0.479 OA
ATOM     20  H   UNL     1      39.419 -23.491 -14.828  0.00  0.00    +0.295 HD
ENDBRANCH  18  19
ENDBRANCH  16  18
BRANCH  16  21
ATOM     21  C   UNL     1      37.591 -25.881 -12.635  0.00  0.00    +0.040 C 
BRANCH  21  22
ATOM     22  C   UNL     1      38.129 -24.765 -11.736  0.00  0.00    +0.111 C 
BRANCH  22  24
ATOM     23  O   UNL     1      36.473 -24.453 -10.005  0.00  0.00    -0.250 OA
ATOM     24  C   UNL     1      37.056 -24.013 -10.989  0.00  0.00    +0.314 C 
BRANCH  24  25
ATOM     25  O   UNL     1      36.789 -22.799 -11.530  0.00  0.00    -0.480 OA
ATOM     26  H   UNL     1      36.525 -22.735 -12.427  0.00  0.00    +0.295 HD
ENDBRANCH  24  25
ENDBRANCH  22  24
ENDBRANCH  21  22
ENDBRANCH  16  21
ENDBRANCH  14  16
ENDBRANCH  11  14
ENDBRANCH   1  11
BRANCH   9  27
ATOM     27  O   UNL     1      34.598 -20.123 -21.352  0.00  0.00    -0.471 OA
BRANCH  27  28
ATOM     28  C   UNL     1      35.670 -19.429 -21.987  0.00  0.00    +0.234 C 
BRANCH  28  30
ATOM     29  F   UNL     1      34.337 -19.858 -24.447  0.00  0.00    -0.204 F 
ATOM     30  C   UNL     1      35.108 -18.314 -22.818  0.00  0.00    +0.049 C 
ATOM     31  C   UNL     1      34.463 -18.593 -24.022  0.00  0.00    +0.140 C 
ATOM     32  C   UNL     1      35.233 -16.994 -22.383  0.00  0.00    +0.002 C 
ATOM     33  C   UNL     1      33.942 -17.552 -24.792  0.00  0.00    +0.040 C 
ATOM     34  C   UNL     1      34.713 -15.953 -23.153  0.00  0.00    +0.010 C 
ATOM     35  C   UNL     1      34.067 -16.233 -24.358  0.00  0.00    +0.071 C 
BRANCH  35  37
ATOM     36  N   UNL     1      33.097 -14.303 -25.786  0.00  0.00    -0.191 NA
ATOM     37  C   UNL     1      33.532 -15.168 -25.146  0.00  0.00    +0.100 C 
ENDBRANCH  35  37
ENDBRANCH  28  30
ENDBRANCH  27  28
ENDBRANCH   9  27
TORSDOF 13
ENDMDL
MODEL 6
REMARK VINA RESULT:     -11.5      2.859      4.632
REMARK  Name = 25058128
REMARK  13 active torsions:
REMARK  status: ('A' for Active; 'I' for Inactive)
REMARK    1  A    between atoms: C_1  and  S_11
REMARK    2  A    between atoms: C_9  and  O_27
REMARK    3  A    between atoms: S_11  and  N_14
REMARK    4  A    between atoms: N_14  and  C_16
REMARK    5  A    between atoms: C_16  and  C_18
REMARK    6  A    between atoms: C_16  and  C_21
REMARK    7  A    between atoms: C_18  and  O_19
REMARK    8  A    between atoms: C_21  and  C_22
REMARK    9  A    between atoms: C_22  and  C_24
REMARK   10  A    between atoms: C_24  and  O_25
REMARK   11  A    between atoms: O_27  and  C_28
REMARK   12  A    between atoms: C_28  and  C_30
REMARK   13  A    between atoms: C_35  and  C_37
REMARK                            x       y       z     vdW  Elec       q    Type
REMARK                         _______ _______ _______ _____ _____    ______ ____
ROOT
ATOM      1  C   UNL     1      35.127 -22.772 -16.827  0.00  0.00    +0.122 C 
ATOM      2  C   UNL     1      34.182 -21.692 -18.790  0.00  0.00    +0.002 C 
ATOM      3  C   UNL     1      34.023 -22.439 -17.611  0.00  0.00    +0.020 C 
ATOM      4  C   UNL     1      35.479 -21.277 -19.177  0.00  0.00    +0.003 C 
ATOM      5  C   UNL     1      36.401 -22.364 -17.206  0.00  0.00    +0.020 C 
ATOM      6  C   UNL     1      36.578 -21.621 -18.374  0.00  0.00    +0.001 C 
ATOM      7  C   UNL     1      35.638 -20.530 -20.355  0.00  0.00    +0.037 C 
ATOM      8  C   UNL     1      33.083 -21.347 -19.594  0.00  0.00    +0.003 C 
ATOM      9  C   UNL     1      34.534 -20.196 -21.141  0.00  0.00    +0.139 C 
ATOM     10  C   UNL     1      33.259 -20.604 -20.761  0.00  0.00    +0.037 C 
ENDROOT
BRANCH   1  11
ATOM     11  S   UNL     1      34.905 -23.714 -15.346  0.00  0.00    +0.061 S 
ATOM     12  O   UNL     1      34.760 -25.107 -15.719  0.00  0.00    -0.153 OA
ATOM     13  O   UNL     1      35.952 -23.309 -14.428  0.00  0.00    -0.153 OA
BRANCH  11  14
ATOM     14  N   UNL     1      33.417 -23.124 -14.777  0.00  0.00    -0.170 NA
ATOM     15  H   UNL     1      33.150 -22.354 -15.391  0.00  0.00    +0.149 HD
BRANCH  14  16
ATOM     16  C   UNL     1      32.248 -24.026 -14.691  0.00  0.00    +0.174 C 
BRANCH  16  18
ATOM     17  O   UNL     1      31.454 -25.340 -12.804  0.00  0.00    -0.249 OA
ATOM     18  C   UNL     1      31.995 -24.329 -13.234  0.00  0.00    +0.330 C 
BRANCH  18  19
ATOM     19  O   UNL     1      32.460 -23.346 -12.419  0.00  0.00    -0.479 OA
ATOM     20  H   UNL     1      33.157 -23.525 -11.819  0.00  0.00    +0.295 HD
ENDBRANCH  18  19
ENDBRANCH  16  18
BRANCH  16  21
ATOM     21  C   UNL     1      31.049 -23.424 -15.435  0.00  0.00    +0.040 C 
BRANCH  21  22
ATOM     22  C   UNL     1      29.827 -24.331 -15.604  0.00  0.00    +0.111 C 
BRANCH  22  24
ATOM     23  O   UNL     1      27.792 -24.350 -16.906  0.00  0.00    -0.250 OA
ATOM     24  C   UNL     1      28.717 -23.713 -16.416  0.00  0.00    +0.314 C 
BRANCH  24  25
ATOM     25  O   UNL     1      28.856 -22.372 -16.565  0.00  0.00    -0.480 OA
ATOM     26  H   UNL     1      29.250 -22.027 -17.343  0.00  0.00    +0.295 HD
ENDBRANCH  24  25
ENDBRANCH  22  24
ENDBRANCH  21  22
ENDBRANCH  16  21
ENDBRANCH  14  16
ENDBRANCH  11  14
ENDBRANCH   1  11
BRANCH   9  27
ATOM     27  O   UNL     1      34.704 -19.470 -22.279  0.00  0.00    -0.471 OA
BRANCH  27  28
ATOM     28  C   UNL     1      35.754 -18.504 -22.283  0.00  0.00    +0.234 C 
BRANCH  28  30
ATOM     29  F   UNL     1      34.916 -17.369 -24.738  0.00  0.00    -0.204 F 
ATOM     30  C   UNL     1      35.157 -17.132 -22.388  0.00  0.00    +0.049 C 
ATOM     31  C   UNL     1      34.765 -16.631 -23.629  0.00  0.00    +0.140 C 
ATOM     32  C   UNL     1      34.994 -16.356 -21.240  0.00  0.00    +0.002 C 
ATOM     33  C   UNL     1      34.210 -15.354 -23.723  0.00  0.00    +0.040 C 
ATOM     34  C   UNL     1      34.440 -15.079 -21.334  0.00  0.00    +0.010 C 
ATOM     35  C   UNL     1      34.048 -14.578 -22.575  0.00  0.00    +0.071 C 
BRANCH  35  37
ATOM     36  N   UNL     1      33.015 -12.210 -22.749  0.00  0.00    -0.191 NA
ATOM     37  C   UNL     1      33.479 -13.271 -22.671  0.00  0.00    +0.100 C 
ENDBRANCH  35  37
ENDBRANCH  28  30
ENDBRANCH  27  28
ENDBRANCH   9  27
TORSDOF 13
ENDMDL
MODEL 7
REMARK VINA RESULT:     -11.2      7.006     13.848
REMARK  Name = 25058128
REMARK  13 active torsions:
REMARK  status: ('A' for Active; 'I' for Inactive)
REMARK    1  A    between atoms: C_1  and  S_11
REMARK    2  A    between atoms: C_9  and  O_27
REMARK    3  A    between atoms: S_11  and  N_14
REMARK    4  A    between atoms: N_14  and  C_16
REMARK    5  A    between atoms: C_16  and  C_18
REMARK    6  A    between atoms: C_16  and  C_21
REMARK    7  A    between atoms: C_18  and  O_19
REMARK    8  A    between atoms: C_21  and  C_22
REMARK    9  A    between atoms: C_22  and  C_24
REMARK   10  A    between atoms: C_24  and  O_25
REMARK   11  A    between atoms: O_27  and  C_28
REMARK   12  A    between atoms: C_28  and  C_30
REMARK   13  A    between atoms: C_35  and  C_37
REMARK                            x       y       z     vdW  Elec       q    Type
REMARK                         _______ _______ _______ _____ _____    ______ ____
ROOT
ATOM      1  C   UNL     1      32.514 -12.038 -21.947  0.00  0.00    +0.122 C 
ATOM      2  C   UNL     1      33.823 -14.058 -22.295  0.00  0.00    +0.002 C 
ATOM      3  C   UNL     1      33.276 -12.858 -22.778  0.00  0.00    +0.020 C 
ATOM      4  C   UNL     1      33.595 -14.429 -20.948  0.00  0.00    +0.003 C 
ATOM      5  C   UNL     1      32.291 -12.402 -20.623  0.00  0.00    +0.020 C 
ATOM      6  C   UNL     1      32.827 -13.591 -20.125  0.00  0.00    +0.001 C 
ATOM      7  C   UNL     1      34.143 -15.629 -20.465  0.00  0.00    +0.037 C 
ATOM      8  C   UNL     1      34.592 -14.897 -23.118  0.00  0.00    +0.003 C 
ATOM      9  C   UNL     1      34.904 -16.450 -21.297  0.00  0.00    +0.139 C 
ATOM     10  C   UNL     1      35.128 -16.086 -22.621  0.00  0.00    +0.037 C 
ENDROOT
BRANCH   1  11
ATOM     11  S   UNL     1      31.834 -10.531 -22.575  0.00  0.00    +0.061 S 
ATOM     12  O   UNL     1      32.210 -10.418 -23.970  0.00  0.00    -0.153 OA
ATOM     13  O   UNL     1      30.436 -10.507 -22.191  0.00  0.00    -0.153 OA
BRANCH  11  14
ATOM     14  N   UNL     1      32.673  -9.365 -21.668  0.00  0.00    -0.170 NA
ATOM     15  H   UNL     1      33.246  -8.835 -22.326  0.00  0.00    +0.149 HD
BRANCH  14  16
ATOM     16  C   UNL     1      31.924  -8.376 -20.861  0.00  0.00    +0.174 C 
BRANCH  16  18
ATOM     17  O   UNL     1      32.226  -9.310 -18.637  0.00  0.00    -0.249 OA
ATOM     18  C   UNL     1      32.456  -8.424 -19.450  0.00  0.00    +0.330 C 
BRANCH  18  19
ATOM     19  O   UNL     1      33.256  -7.363 -19.167  0.00  0.00    -0.479 OA
ATOM     20  H   UNL     1      33.882  -7.066 -19.799  0.00  0.00    +0.295 HD
ENDBRANCH  18  19
ENDBRANCH  16  18
BRANCH  16  21
ATOM     21  C   UNL     1      31.983  -6.992 -21.519  0.00  0.00    +0.040 C 
BRANCH  21  22
ATOM     22  C   UNL     1      31.182  -6.817 -22.812  0.00  0.00    +0.111 C 
BRANCH  22  24
ATOM     23  O   UNL     1      31.935  -5.626 -24.774  0.00  0.00    -0.250 OA
ATOM     24  C   UNL     1      32.036  -6.597 -24.035  0.00  0.00    +0.314 C 
BRANCH  24  25
ATOM     25  O   UNL     1      32.924  -7.601 -24.245  0.00  0.00    -0.480 OA
ATOM     26  H   UNL     1      32.663  -8.491 -24.110  0.00  0.00    +0.295 HD
ENDBRANCH  24  25
ENDBRANCH  22  24
ENDBRANCH  21  22
ENDBRANCH  16  21
ENDBRANCH  14  16
ENDBRANCH  11  14
ENDBRANCH   1  11
BRANCH   9  27
ATOM     27  O   UNL     1      35.429 -17.609 -20.813  0.00  0.00    -0.471 OA
BRANCH  27  28
ATOM     28  C   UNL     1      35.235 -18.787 -21.594  0.00  0.00    +0.234 C 
BRANCH  28  30
ATOM     29  F   UNL     1      37.149 -20.298 -20.158  0.00  0.00    -0.204 F 
ATOM     30  C   UNL     1      34.866 -19.922 -20.686  0.00  0.00    +0.049 C 
ATOM     31  C   UNL     1      35.859 -20.628 -20.007  0.00  0.00    +0.140 C 
ATOM     32  C   UNL     1      33.525 -20.272 -20.521  0.00  0.00    +0.002 C 
ATOM     33  C   UNL     1      35.511 -21.684 -19.164  0.00  0.00    +0.040 C 
ATOM     34  C   UNL     1      33.178 -21.328 -19.678  0.00  0.00    +0.010 C 
ATOM     35  C   UNL     1      34.172 -22.034 -18.999  0.00  0.00    +0.071 C 
BRANCH  35  37
ATOM     36  N   UNL     1      33.527 -23.991 -17.431  0.00  0.00    -0.191 NA
ATOM     37  C   UNL     1      33.816 -23.114 -18.134  0.00  0.00    +0.100 C 
ENDBRANCH  35  37
ENDBRANCH  28  30
ENDBRANCH  27  28
ENDBRANCH   9  27
TORSDOF 13
ENDMDL
MODEL 8
REMARK VINA RESULT:     -11.1      6.901     13.462
REMARK  Name = 25058128
REMARK  13 active torsions:
REMARK  status: ('A' for Active; 'I' for Inactive)
REMARK    1  A    between atoms: C_1  and  S_11
REMARK    2  A    between atoms: C_9  and  O_27
REMARK    3  A    between atoms: S_11  and  N_14
REMARK    4  A    between atoms: N_14  and  C_16
REMARK    5  A    between atoms: C_16  and  C_18
REMARK    6  A    between atoms: C_16  and  C_21
REMARK    7  A    between atoms: C_18  and  O_19
REMARK    8  A    between atoms: C_21  and  C_22
REMARK    9  A    between atoms: C_22  and  C_24
REMARK   10  A    between atoms: C_24  and  O_25
REMARK   11  A    between atoms: O_27  and  C_28
REMARK   12  A    between atoms: C_28  and  C_30
REMARK   13  A    between atoms: C_35  and  C_37
REMARK                            x       y       z     vdW  Elec       q    Type
REMARK                         _______ _______ _______ _____ _____    ______ ____
ROOT
ATOM      1  C   UNL     1      32.745 -11.970 -22.585  0.00  0.00    +0.122 C 
ATOM      2  C   UNL     1      33.554 -13.927 -21.388  0.00  0.00    +0.002 C 
ATOM      3  C   UNL     1      32.843 -12.716 -21.411  0.00  0.00    +0.020 C 
ATOM      4  C   UNL     1      34.173 -14.388 -22.575  0.00  0.00    +0.003 C 
ATOM      5  C   UNL     1      33.353 -12.424 -23.752  0.00  0.00    +0.020 C 
ATOM      6  C   UNL     1      34.063 -13.625 -23.748  0.00  0.00    +0.001 C 
ATOM      7  C   UNL     1      34.884 -15.599 -22.553  0.00  0.00    +0.037 C 
ATOM      8  C   UNL     1      33.665 -14.691 -20.215  0.00  0.00    +0.003 C 
ATOM      9  C   UNL     1      34.982 -16.345 -21.378  0.00  0.00    +0.139 C 
ATOM     10  C   UNL     1      34.375 -15.892 -20.211  0.00  0.00    +0.037 C 
ENDROOT
BRANCH   1  11
ATOM     11  S   UNL     1      31.845 -10.448 -22.592  0.00  0.00    +0.061 S 
ATOM     12  O   UNL     1      32.030  -9.826 -23.888  0.00  0.00    -0.153 OA
ATOM     13  O   UNL     1      30.511 -10.744 -22.107  0.00  0.00    -0.153 OA
BRANCH  11  14
ATOM     14  N   UNL     1      32.672  -9.549 -21.411  0.00  0.00    -0.170 NA
ATOM     15  H   UNL     1      33.210  -8.836 -21.905  0.00  0.00    +0.149 HD
BRANCH  14  16
ATOM     16  C   UNL     1      31.915  -8.851 -20.348  0.00  0.00    +0.174 C 
BRANCH  16  18
ATOM     17  O   UNL     1      32.706  -9.804 -18.255  0.00  0.00    -0.249 OA
ATOM     18  C   UNL     1      31.862  -9.755 -19.141  0.00  0.00    +0.330 C 
BRANCH  18  19
ATOM     19  O   UNL     1      30.739 -10.520 -19.123  0.00  0.00    -0.479 OA
ATOM     20  H   UNL     1      30.759 -11.390 -19.471  0.00  0.00    +0.295 HD
ENDBRANCH  18  19
ENDBRANCH  16  18
BRANCH  16  21
ATOM     21  C   UNL     1      32.516  -7.466 -20.082  0.00  0.00    +0.040 C 
BRANCH  21  22
ATOM     22  C   UNL     1      32.596  -6.516 -21.280  0.00  0.00    +0.111 C 
BRANCH  22  24
ATOM     23  O   UNL     1      30.346  -5.692 -21.589  0.00  0.00    -0.250 OA
ATOM     24  C   UNL     1      31.289  -6.348 -22.014  0.00  0.00    +0.314 C 
BRANCH  24  25
ATOM     25  O   UNL     1      31.258  -7.016 -23.193  0.00  0.00    -0.480 OA
ATOM     26  H   UNL     1      31.121  -7.944 -23.201  0.00  0.00    +0.295 HD
ENDBRANCH  24  25
ENDBRANCH  22  24
ENDBRANCH  21  22
ENDBRANCH  16  21
ENDBRANCH  14  16
ENDBRANCH  11  14
ENDBRANCH   1  11
BRANCH   9  27
ATOM     27  O   UNL     1      35.673 -17.518 -21.373  0.00  0.00    -0.471 OA
BRANCH  27  28
ATOM     28  C   UNL     1      35.072 -18.629 -22.035  0.00  0.00    +0.234 C 
BRANCH  28  30
ATOM     29  F   UNL     1      37.132 -19.941 -20.603  0.00  0.00    -0.204 F 
ATOM     30  C   UNL     1      34.809 -19.713 -21.032  0.00  0.00    +0.049 C 
ATOM     31  C   UNL     1      35.870 -20.321 -20.361  0.00  0.00    +0.140 C 
ATOM     32  C   UNL     1      33.498 -20.114 -20.772  0.00  0.00    +0.002 C 
ATOM     33  C   UNL     1      35.620 -21.329 -19.429  0.00  0.00    +0.040 C 
ATOM     34  C   UNL     1      33.249 -21.123 -19.841  0.00  0.00    +0.010 C 
ATOM     35  C   UNL     1      34.310 -21.731 -19.169  0.00  0.00    +0.071 C 
BRANCH  35  37
ATOM     36  N   UNL     1      33.850 -23.600 -17.438  0.00  0.00    -0.191 NA
ATOM     37  C   UNL     1      34.055 -22.762 -18.214  0.00  0.00    +0.100 C 
ENDBRANCH  35  37
ENDBRANCH  28  30
ENDBRANCH  27  28
ENDBRANCH   9  27
TORSDOF 13
ENDMDL
MODEL 9
REMARK VINA RESULT:     -10.8      1.645      2.098
REMARK  Name = 25058128
REMARK  13 active torsions:
REMARK  status: ('A' for Active; 'I' for Inactive)
REMARK    1  A    between atoms: C_1  and  S_11
REMARK    2  A    between atoms: C_9  and  O_27
REMARK    3  A    between atoms: S_11  and  N_14
REMARK    4  A    between atoms: N_14  and  C_16
REMARK    5  A    between atoms: C_16  and  C_18
REMARK    6  A    between atoms: C_16  and  C_21
REMARK    7  A    between atoms: C_18  and  O_19
REMARK    8  A    between atoms: C_21  and  C_22
REMARK    9  A    between atoms: C_22  and  C_24
REMARK   10  A    between atoms: C_24  and  O_25
REMARK   11  A    between atoms: O_27  and  C_28
REMARK   12  A    between atoms: C_28  and  C_30
REMARK   13  A    between atoms: C_35  and  C_37
REMARK                            x       y       z     vdW  Elec       q    Type
REMARK                         _______ _______ _______ _____ _____    ______ ____
ROOT
ATOM      1  C   UNL     1      35.314 -22.700 -17.142  0.00  0.00    +0.122 C 
ATOM      2  C   UNL     1      34.729 -21.438 -19.137  0.00  0.00    +0.002 C 
ATOM      3  C   UNL     1      34.369 -22.295 -18.084  0.00  0.00    +0.020 C 
ATOM      4  C   UNL     1      36.067 -20.987 -19.235  0.00  0.00    +0.003 C 
ATOM      5  C   UNL     1      36.629 -22.255 -17.238  0.00  0.00    +0.020 C 
ATOM      6  C   UNL     1      37.005 -21.404 -18.277  0.00  0.00    +0.001 C 
ATOM      7  C   UNL     1      36.427 -20.130 -20.288  0.00  0.00    +0.037 C 
ATOM      8  C   UNL     1      33.791 -21.021 -20.096  0.00  0.00    +0.003 C 
ATOM      9  C   UNL     1      35.482 -19.725 -21.231  0.00  0.00    +0.139 C 
ATOM     10  C   UNL     1      34.167 -20.169 -21.136  0.00  0.00    +0.037 C 
ENDROOT
BRANCH   1  11
ATOM     11  S   UNL     1      34.840 -23.779 -15.823  0.00  0.00    +0.061 S 
ATOM     12  O   UNL     1      34.375 -22.960 -14.721  0.00  0.00    -0.153 OA
ATOM     13  O   UNL     1      33.975 -24.792 -16.397  0.00  0.00    -0.153 OA
BRANCH  11  14
ATOM     14  N   UNL     1      36.324 -24.495 -15.408  0.00  0.00    -0.170 NA
ATOM     15  H   UNL     1      37.008 -23.740 -15.340  0.00  0.00    +0.149 HD
BRANCH  14  16
ATOM     16  C   UNL     1      36.440 -25.288 -14.164  0.00  0.00    +0.174 C 
BRANCH  16  18
ATOM     17  O   UNL     1      37.620 -27.386 -13.819  0.00  0.00    -0.249 OA
ATOM     18  C   UNL     1      36.931 -26.667 -14.532  0.00  0.00    +0.330 C 
BRANCH  18  19
ATOM     19  O   UNL     1      36.505 -27.051 -15.763  0.00  0.00    -0.479 OA
ATOM     20  H   UNL     1      37.022 -27.641 -16.276  0.00  0.00    +0.295 HD
ENDBRANCH  18  19
ENDBRANCH  16  18
BRANCH  16  21
ATOM     21  C   UNL     1      37.311 -24.552 -13.138  0.00  0.00    +0.040 C 
BRANCH  21  22
ATOM     22  C   UNL     1      36.570 -23.729 -12.081  0.00  0.00    +0.111 C 
BRANCH  22  24
ATOM     23  O   UNL     1      35.285 -25.342 -10.824  0.00  0.00    -0.250 OA
ATOM     24  C   UNL     1      35.305 -24.377 -11.578  0.00  0.00    +0.314 C 
BRANCH  24  25
ATOM     25  O   UNL     1      34.183 -23.789 -12.063  0.00  0.00    -0.480 OA
ATOM     26  H   UNL     1      34.146 -22.856 -12.153  0.00  0.00    +0.295 HD
ENDBRANCH  24  25
ENDBRANCH  22  24
ENDBRANCH  21  22
ENDBRANCH  16  21
ENDBRANCH  14  16
ENDBRANCH  11  14
ENDBRANCH   1  11
BRANCH   9  27
ATOM     27  O   UNL     1      35.846 -18.893 -22.245  0.00  0.00    -0.471 OA
BRANCH  27  28
ATOM     28  C   UNL     1      34.872 -18.635 -23.255  0.00  0.00    +0.234 C 
BRANCH  28  30
ATOM     29  F   UNL     1      33.584 -17.388 -25.446  0.00  0.00    -0.204 F 
ATOM     30  C   UNL     1      34.610 -17.159 -23.318  0.00  0.00    +0.049 C 
ATOM     31  C   UNL     1      33.971 -16.607 -24.428  0.00  0.00    +0.140 C 
ATOM     32  C   UNL     1      35.008 -16.338 -22.263  0.00  0.00    +0.002 C 
ATOM     33  C   UNL     1      33.730 -15.234 -24.482  0.00  0.00    +0.040 C 
ATOM     34  C   UNL     1      34.768 -14.965 -22.318  0.00  0.00    +0.010 C 
ATOM     35  C   UNL     1      34.129 -14.412 -23.428  0.00  0.00    +0.071 C 
BRANCH  35  37
ATOM     36  N   UNL     1      33.677 -11.865 -23.529  0.00  0.00    -0.191 NA
ATOM     37  C   UNL     1      33.880 -13.007 -23.483  0.00  0.00    +0.100 C 
ENDBRANCH  35  37
ENDBRANCH  28  30
ENDBRANCH  27  28
ENDBRANCH   9  27
TORSDOF 13
ENDMDL
