MODEL 1
REMARK VINA RESULT:     -13.0      0.000      0.000
REMARK  Name = 10074640
REMARK  6 active torsions:
REMARK  status: ('A' for Active; 'I' for Inactive)
REMARK    1  A    between atoms: N_2  and  C_5
REMARK    2  A    between atoms: C_3  and  C_30
REMARK    3  A    between atoms: C_6  and  N_13
REMARK    4  A    between atoms: C_16  and  C_20
REMARK    5  A    between atoms: C_25  and  C_31
REMARK    6  A    between atoms: C_31  and  N_32
REMARK                            x       y       z     vdW  Elec       q    Type
REMARK                         _______ _______ _______ _____ _____    ______ ____
ROOT
ATOM      1  O   UNL     1      33.814 -24.097 -18.658  0.00  0.00    -0.270 OA
ATOM      2  N   UNL     1      33.165 -22.420 -17.151  0.00  0.00    -0.280 N 
ATOM      3  C   UNL     1      33.734 -22.900 -18.339  0.00  0.00    +0.249 C 
ATOM      4  H   UNL     1      33.174 -21.442 -17.038  0.00  0.00    +0.155 HD
ENDROOT
BRANCH   2   5
ATOM      5  C   UNL     1      32.579 -23.157 -16.094  0.00  0.00    +0.052 C 
ATOM      6  C   UNL     1      32.673 -23.988 -13.847  0.00  0.00    +0.048 C 
ATOM      7  C   UNL     1      33.251 -23.262 -14.888  0.00  0.00    +0.029 C 
ATOM      8  C   UNL     1      31.432 -24.597 -14.026  0.00  0.00    -0.008 C 
ATOM      9  C   UNL     1      31.346 -23.756 -16.289  0.00  0.00    +0.014 C 
ATOM     10  C   UNL     1      30.768 -24.482 -15.249  0.00  0.00    -0.002 C 
ATOM     11  C   UNL     1      30.790 -25.381 -12.928  0.00  0.00    +0.032 C 
BRANCH   6  13
ATOM     12  S   UNL     1      35.173 -24.623 -10.745  0.00  0.00    -0.059 S 
ATOM     13  N   UNL     1      33.358 -24.094 -12.616  0.00  0.00    -0.283 N 
ATOM     14  N   UNL     1      35.584 -24.514 -13.295  0.00  0.00    -0.384 NA
ATOM     15  C   UNL     1      34.669 -24.391 -12.365  0.00  0.00    +0.211 C 
ATOM     16  C   UNL     1      36.789 -24.817 -12.689  0.00  0.00    +0.124 C 
ATOM     17  C   UNL     1      36.763 -24.917 -11.314  0.00  0.00    +0.125 C 
ATOM     18  H   UNL     1      32.808 -23.928 -11.817  0.00  0.00    +0.155 HD
BRANCH  16  20
ATOM     19  N   UNL     1      39.348 -24.385 -15.349  0.00  0.00    -0.242 NA
ATOM     20  C   UNL     1      37.986 -25.012 -13.455  0.00  0.00    +0.046 C 
ATOM     21  C   UNL     1      38.923 -25.969 -13.086  0.00  0.00    +0.005 C 
ATOM     22  C   UNL     1      38.242 -24.252 -14.584  0.00  0.00    +0.101 C 
ATOM     23  C   UNL     1      40.074 -26.136 -13.848  0.00  0.00    +0.021 C 
ATOM     24  C   UNL     1      40.238 -25.326 -14.961  0.00  0.00    +0.099 C 
ENDBRANCH  16  20
ENDBRANCH   6  13
ENDBRANCH   2   5
BRANCH   3  30
ATOM     25  C   UNL     1      35.338 -19.968 -20.933  0.00  0.00    -0.043 C 
ATOM     26  C   UNL     1      36.197 -20.790 -20.216  0.00  0.00    -0.006 C 
ATOM     27  C   UNL     1      33.961 -20.095 -20.813  0.00  0.00    -0.006 C 
ATOM     28  C   UNL     1      35.667 -21.757 -19.360  0.00  0.00    +0.004 C 
ATOM     29  C   UNL     1      33.432 -21.061 -19.958  0.00  0.00    +0.004 C 
ATOM     30  C   UNL     1      34.285 -21.892 -19.232  0.00  0.00    +0.054 C 
BRANCH  25  31
ATOM     31  C   UNL     1      35.910 -18.926 -21.857  0.00  0.00    -0.050 C 
BRANCH  31  32
ATOM     32  N   UNL     1      35.040 -17.755 -21.959  0.00  0.00    +0.387 N 
ATOM     33  N   UNL     1      34.559 -14.927 -22.324  0.00  0.00    +0.383 N 
ATOM     34  C   UNL     1      35.342 -16.788 -20.897  0.00  0.00    -0.100 C 
ATOM     35  C   UNL     1      35.169 -17.123 -23.278  0.00  0.00    -0.100 C 
ATOM     36  C   UNL     1      34.432 -15.558 -21.004  0.00  0.00    -0.101 C 
ATOM     37  C   UNL     1      34.259 -15.896 -23.386  0.00  0.00    -0.101 C 
ATOM     38  C   UNL     1      33.689 -13.758 -22.426  0.00  0.00    -0.101 C 
ATOM     39  H   UNL     1      34.076 -18.068 -21.845  0.00  0.00    -0.079 HD
ATOM     40  H   UNL     1      35.523 -14.613 -22.438  0.00  0.00    -0.080 HD
ENDBRANCH  31  32
ENDBRANCH  25  31
ENDBRANCH   3  30
TORSDOF 6
ENDMDL
MODEL 2
REMARK VINA RESULT:     -10.4      1.693      5.122
REMARK  Name = 10074640
REMARK  6 active torsions:
REMARK  status: ('A' for Active; 'I' for Inactive)
REMARK    1  A    between atoms: N_2  and  C_5
REMARK    2  A    between atoms: C_3  and  C_30
REMARK    3  A    between atoms: C_6  and  N_13
REMARK    4  A    between atoms: C_16  and  C_20
REMARK    5  A    between atoms: C_25  and  C_31
REMARK    6  A    between atoms: C_31  and  N_32
REMARK                            x       y       z     vdW  Elec       q    Type
REMARK                         _______ _______ _______ _____ _____    ______ ____
ROOT
ATOM      1  O   UNL     1      34.485 -23.165 -18.269  0.00  0.00    -0.270 OA
ATOM      2  N   UNL     1      36.249 -22.104 -17.143  0.00  0.00    -0.280 N 
ATOM      3  C   UNL     1      35.339 -22.266 -18.197  0.00  0.00    +0.249 C 
ATOM      4  H   UNL     1      36.867 -21.341 -17.226  0.00  0.00    +0.155 HD
ENDROOT
BRANCH   2   5
ATOM      5  C   UNL     1      36.396 -22.892 -15.976  0.00  0.00    +0.052 C 
ATOM      6  C   UNL     1      35.558 -23.629 -13.854  0.00  0.00    +0.048 C 
ATOM      7  C   UNL     1      35.412 -22.851 -15.003  0.00  0.00    +0.029 C 
ATOM      8  C   UNL     1      36.684 -24.436 -13.696  0.00  0.00    -0.008 C 
ATOM      9  C   UNL     1      37.520 -23.688 -15.836  0.00  0.00    +0.014 C 
ATOM     10  C   UNL     1      37.666 -24.465 -14.687  0.00  0.00    -0.002 C 
ATOM     11  C   UNL     1      36.865 -25.278 -12.476  0.00  0.00    +0.032 C 
BRANCH   6  13
ATOM     12  S   UNL     1      32.229 -23.340 -11.594  0.00  0.00    -0.059 S 
ATOM     13  N   UNL     1      34.554 -23.588 -12.862  0.00  0.00    -0.283 N 
ATOM     14  N   UNL     1      32.563 -23.725 -14.129  0.00  0.00    -0.384 NA
ATOM     15  C   UNL     1      33.193 -23.572 -12.990  0.00  0.00    +0.211 C 
ATOM     16  C   UNL     1      31.203 -23.655 -13.892  0.00  0.00    +0.124 C 
ATOM     17  C   UNL     1      30.830 -23.451 -12.580  0.00  0.00    +0.125 C 
ATOM     18  H   UNL     1      34.886 -23.568 -11.935  0.00  0.00    +0.155 HD
BRANCH  16  20
ATOM     19  N   UNL     1      29.151 -22.818 -16.875  0.00  0.00    -0.242 NA
ATOM     20  C   UNL     1      30.248 -23.788 -14.953  0.00  0.00    +0.046 C 
ATOM     21  C   UNL     1      29.508 -24.954 -15.109  0.00  0.00    +0.005 C 
ATOM     22  C   UNL     1      30.034 -22.758 -15.854  0.00  0.00    +0.101 C 
ATOM     23  C   UNL     1      28.589 -25.054 -16.148  0.00  0.00    +0.021 C 
ATOM     24  C   UNL     1      28.449 -23.967 -16.996  0.00  0.00    +0.099 C 
ENDBRANCH  16  20
ENDBRANCH   6  13
ENDBRANCH   2   5
BRANCH   3  30
ATOM     25  C   UNL     1      35.648 -19.473 -21.359  0.00  0.00    -0.043 C 
ATOM     26  C   UNL     1      34.417 -20.048 -21.073  0.00  0.00    -0.006 C 
ATOM     27  C   UNL     1      36.779 -19.801 -20.623  0.00  0.00    -0.006 C 
ATOM     28  C   UNL     1      34.316 -20.969 -20.029  0.00  0.00    +0.004 C 
ATOM     29  C   UNL     1      36.677 -20.721 -19.580  0.00  0.00    +0.004 C 
ATOM     30  C   UNL     1      35.445 -21.305 -19.283  0.00  0.00    +0.054 C 
BRANCH  25  31
ATOM     31  C   UNL     1      35.758 -18.478 -22.484  0.00  0.00    -0.050 C 
BRANCH  31  32
ATOM     32  N   UNL     1      34.861 -17.340 -22.291  0.00  0.00    +0.387 N 
ATOM     33  N   UNL     1      34.297 -14.513 -22.065  0.00  0.00    +0.383 N 
ATOM     34  C   UNL     1      35.228 -16.584 -21.088  0.00  0.00    -0.100 C 
ATOM     35  C   UNL     1      34.870 -16.464 -23.469  0.00  0.00    -0.100 C 
ATOM     36  C   UNL     1      34.290 -15.389 -20.887  0.00  0.00    -0.101 C 
ATOM     37  C   UNL     1      33.930 -15.271 -23.268  0.00  0.00    -0.101 C 
ATOM     38  C   UNL     1      33.399 -13.377 -21.874  0.00  0.00    -0.101 C 
ATOM     39  H   UNL     1      33.915 -17.702 -22.167  0.00  0.00    -0.079 HD
ATOM     40  H   UNL     1      35.242 -14.150 -22.189  0.00  0.00    -0.080 HD
ENDBRANCH  31  32
ENDBRANCH  25  31
ENDBRANCH   3  30
TORSDOF 6
ENDMDL
MODEL 3
REMARK VINA RESULT:     -10.0      5.202     10.739
REMARK  Name = 10074640
REMARK  6 active torsions:
REMARK  status: ('A' for Active; 'I' for Inactive)
REMARK    1  A    between atoms: N_2  and  C_5
REMARK    2  A    between atoms: C_3  and  C_30
REMARK    3  A    between atoms: C_6  and  N_13
REMARK    4  A    between atoms: C_16  and  C_20
REMARK    5  A    between atoms: C_25  and  C_31
REMARK    6  A    between atoms: C_31  and  N_32
REMARK                            x       y       z     vdW  Elec       q    Type
REMARK                         _______ _______ _______ _____ _____    ______ ____
ROOT
ATOM      1  O   UNL     1      32.273 -14.038 -21.325  0.00  0.00    -0.270 OA
ATOM      2  N   UNL     1      33.413 -13.837 -23.365  0.00  0.00    -0.280 N 
ATOM      3  C   UNL     1      32.720 -13.344 -22.252  0.00  0.00    +0.249 C 
ATOM      4  H   UNL     1      33.708 -13.162 -24.019  0.00  0.00    +0.155 HD
ENDROOT
BRANCH   2   5
ATOM      5  C   UNL     1      33.747 -15.179 -23.673  0.00  0.00    +0.052 C 
ATOM      6  C   UNL     1      35.153 -17.092 -23.343  0.00  0.00    +0.048 C 
ATOM      7  C   UNL     1      34.827 -15.770 -23.040  0.00  0.00    +0.029 C 
ATOM      8  C   UNL     1      34.395 -17.803 -24.273  0.00  0.00    -0.008 C 
ATOM      9  C   UNL     1      32.983 -15.870 -24.598  0.00  0.00    +0.014 C 
ATOM     10  C   UNL     1      33.309 -17.191 -24.901  0.00  0.00    -0.002 C 
ATOM     11  C   UNL     1      34.723 -19.219 -24.616  0.00  0.00    +0.032 C 
BRANCH   6  13
ATOM     12  S   UNL     1      37.784 -19.064 -21.005  0.00  0.00    -0.059 S 
ATOM     13  N   UNL     1      36.255 -17.695 -22.698  0.00  0.00    -0.283 N 
ATOM     14  N   UNL     1      35.224 -19.290 -21.289  0.00  0.00    -0.384 NA
ATOM     15  C   UNL     1      36.284 -18.653 -21.722  0.00  0.00    +0.211 C 
ATOM     16  C   UNL     1      35.616 -20.180 -20.307  0.00  0.00    +0.124 C 
ATOM     17  C   UNL     1      36.964 -20.200 -20.017  0.00  0.00    +0.125 C 
ATOM     18  H   UNL     1      37.138 -17.379 -22.998  0.00  0.00    +0.155 HD
BRANCH  16  20
ATOM     19  N   UNL     1      32.368 -21.664 -19.278  0.00  0.00    -0.242 NA
ATOM     20  C   UNL     1      34.670 -21.026 -19.639  0.00  0.00    +0.046 C 
ATOM     21  C   UNL     1      35.090 -21.995 -18.736  0.00  0.00    +0.005 C 
ATOM     22  C   UNL     1      33.311 -20.900 -19.874  0.00  0.00    +0.101 C 
ATOM     23  C   UNL     1      34.149 -22.801 -18.104  0.00  0.00    +0.021 C 
ATOM     24  C   UNL     1      32.812 -22.596 -18.407  0.00  0.00    +0.099 C 
ENDBRANCH  16  20
ENDBRANCH   6  13
ENDBRANCH   2   5
BRANCH   3  30
ATOM     25  C   UNL     1      32.087  -9.162 -22.171  0.00  0.00    -0.043 C 
ATOM     26  C   UNL     1      31.555  -9.953 -21.161  0.00  0.00    -0.006 C 
ATOM     27  C   UNL     1      32.823  -9.722 -23.205  0.00  0.00    -0.006 C 
ATOM     28  C   UNL     1      31.765 -11.333 -21.189  0.00  0.00    +0.004 C 
ATOM     29  C   UNL     1      33.033 -11.100 -23.232  0.00  0.00    +0.004 C 
ATOM     30  C   UNL     1      32.504 -11.905 -22.224  0.00  0.00    +0.054 C 
BRANCH  25  31
ATOM     31  C   UNL     1      31.862  -7.673 -22.141  0.00  0.00    -0.050 C 
BRANCH  31  32
ATOM     32  N   UNL     1      32.422  -7.015 -23.320  0.00  0.00    +0.387 N 
ATOM     33  N   UNL     1      33.434  -4.716 -24.751  0.00  0.00    +0.383 N 
ATOM     34  C   UNL     1      31.521  -5.965 -23.809  0.00  0.00    -0.100 C 
ATOM     35  C   UNL     1      33.747  -6.457 -23.026  0.00  0.00    -0.100 C 
ATOM     36  C   UNL     1      32.108  -5.273 -25.044  0.00  0.00    -0.101 C 
ATOM     37  C   UNL     1      34.335  -5.767 -24.261  0.00  0.00    -0.101 C 
ATOM     38  C   UNL     1      33.994  -4.060 -25.931  0.00  0.00    -0.101 C 
ATOM     39  H   UNL     1      32.525  -7.718 -24.053  0.00  0.00    -0.079 HD
ATOM     40  H   UNL     1      33.332  -4.012 -24.019  0.00  0.00    -0.080 HD
ENDBRANCH  31  32
ENDBRANCH  25  31
ENDBRANCH   3  30
TORSDOF 6
ENDMDL
