MODEL 1
REMARK VINA RESULT:     -11.8      0.000      0.000
REMARK  Name = 4261
REMARK  8 active torsions:
REMARK  status: ('A' for Active; 'I' for Inactive)
REMARK    1  A    between atoms: C_1  and  C_20
REMARK    2  A    between atoms: C_2  and  C_9
REMARK    3  A    between atoms: N_8  and  C_11
REMARK    4  A    between atoms: C_12  and  N_17
REMARK    5  A    between atoms: C_20  and  N_22
REMARK    6  A    between atoms: C_23  and  O_25
REMARK    7  A    between atoms: O_25  and  C_26
REMARK    8  A    between atoms: C_26  and  C_28
REMARK                            x       y       z     vdW  Elec       q    Type
REMARK                         _______ _______ _______ _____ _____    ______ ____
ROOT
ATOM      1  C   UNL     1      35.363 -20.389 -20.368  0.00  0.00    -0.002 C 
ATOM      2  C   UNL     1      34.038 -22.218 -18.745  0.00  0.00    +0.054 C 
ATOM      3  C   UNL     1      33.973 -20.446 -20.386  0.00  0.00    -0.002 C 
ATOM      4  C   UNL     1      36.096 -21.238 -19.546  0.00  0.00    -0.002 C 
ATOM      5  C   UNL     1      33.310 -21.363 -19.572  0.00  0.00    +0.004 C 
ATOM      6  C   UNL     1      35.432 -22.154 -18.732  0.00  0.00    +0.004 C 
ENDROOT
BRANCH   2   9
ATOM      7  O   UNL     1      33.481 -24.388 -18.122  0.00  0.00    -0.270 OA
ATOM      8  N   UNL     1      32.583 -22.629 -16.855  0.00  0.00    -0.279 N 
ATOM      9  C   UNL     1      33.346 -23.175 -17.898  0.00  0.00    +0.250 C 
ATOM     10  H   UNL     1      32.571 -21.646 -16.803  0.00  0.00    +0.155 HD
BRANCH   8  11
ATOM     11  C   UNL     1      31.828 -23.306 -15.867  0.00  0.00    +0.064 C 
ATOM     12  C   UNL     1      32.398 -23.623 -14.645  0.00  0.00    +0.055 C 
ATOM     13  C   UNL     1      30.514 -23.640 -16.157  0.00  0.00    +0.016 C 
ATOM     14  C   UNL     1      31.634 -24.292 -13.687  0.00  0.00    +0.015 C 
ATOM     15  C   UNL     1      29.750 -24.307 -15.200  0.00  0.00    +0.001 C 
ATOM     16  C   UNL     1      30.311 -24.633 -13.965  0.00  0.00    +0.001 C 
BRANCH  12  17
ATOM     17  N   UNL     1      33.736 -23.286 -14.342  0.00  0.00    -0.356 N 
ATOM     18  H   UNL     1      34.253 -22.721 -14.961  0.00  0.00    +0.142 HD
ATOM     19  H   UNL     1      34.151 -23.616 -13.513  0.00  0.00    +0.142 HD
ENDBRANCH  12  17
ENDBRANCH   8  11
ENDBRANCH   2   9
BRANCH   1  20
ATOM     20  C   UNL     1      36.077 -19.401 -21.243  0.00  0.00    +0.119 C 
BRANCH  20  22
ATOM     21  O   UNL     1      35.218 -17.501 -23.264  0.00  0.00    -0.226 OA
ATOM     22  N   UNL     1      35.594 -18.054 -21.044  0.00  0.00    -0.267 N 
ATOM     23  C   UNL     1      35.206 -17.221 -22.071  0.00  0.00    +0.402 C 
ATOM     24  H   UNL     1      35.538 -17.713 -20.121  0.00  0.00    +0.153 HD
BRANCH  23  25
ATOM     25  O   UNL     1      34.800 -16.020 -21.561  0.00  0.00    -0.430 OA
BRANCH  25  26
ATOM     26  C   UNL     1      34.569 -14.980 -22.519  0.00  0.00    +0.238 C 
BRANCH  26  28
ATOM     27  N   UNL     1      32.147 -12.101 -22.311  0.00  0.00    -0.243 NA
ATOM     28  C   UNL     1      33.555 -14.022 -21.967  0.00  0.00    +0.040 C 
ATOM     29  C   UNL     1      33.099 -14.151 -20.667  0.00  0.00    +0.002 C 
ATOM     30  C   UNL     1      33.060 -12.998 -22.746  0.00  0.00    +0.098 C 
ATOM     31  C   UNL     1      32.160 -13.249 -20.183  0.00  0.00    +0.020 C 
ATOM     32  C   UNL     1      31.719 -12.250 -21.037  0.00  0.00    +0.099 C 
ENDBRANCH  26  28
ENDBRANCH  25  26
ENDBRANCH  23  25
ENDBRANCH  20  22
ENDBRANCH   1  20
TORSDOF 8
ENDMDL
MODEL 2
REMARK VINA RESULT:     -11.4      1.413      2.005
REMARK  Name = 4261
REMARK  8 active torsions:
REMARK  status: ('A' for Active; 'I' for Inactive)
REMARK    1  A    between atoms: C_1  and  C_20
REMARK    2  A    between atoms: C_2  and  C_9
REMARK    3  A    between atoms: N_8  and  C_11
REMARK    4  A    between atoms: C_12  and  N_17
REMARK    5  A    between atoms: C_20  and  N_22
REMARK    6  A    between atoms: C_23  and  O_25
REMARK    7  A    between atoms: O_25  and  C_26
REMARK    8  A    between atoms: C_26  and  C_28
REMARK                            x       y       z     vdW  Elec       q    Type
REMARK                         _______ _______ _______ _____ _____    ______ ____
ROOT
ATOM      1  C   UNL     1      35.409 -20.452 -20.279  0.00  0.00    -0.002 C 
ATOM      2  C   UNL     1      34.059 -22.280 -18.676  0.00  0.00    +0.054 C 
ATOM      3  C   UNL     1      36.131 -21.311 -19.457  0.00  0.00    -0.002 C 
ATOM      4  C   UNL     1      34.020 -20.497 -20.306  0.00  0.00    -0.002 C 
ATOM      5  C   UNL     1      35.454 -22.228 -18.654  0.00  0.00    +0.004 C 
ATOM      6  C   UNL     1      33.343 -21.414 -19.503  0.00  0.00    +0.004 C 
ENDROOT
BRANCH   2   9
ATOM      7  O   UNL     1      33.484 -24.448 -18.063  0.00  0.00    -0.270 OA
ATOM      8  N   UNL     1      32.585 -22.686 -16.800  0.00  0.00    -0.279 N 
ATOM      9  C   UNL     1      33.354 -23.234 -17.837  0.00  0.00    +0.250 C 
ATOM     10  H   UNL     1      32.579 -21.704 -16.746  0.00  0.00    +0.155 HD
BRANCH   8  11
ATOM     11  C   UNL     1      31.818 -23.362 -15.820  0.00  0.00    +0.064 C 
ATOM     12  C   UNL     1      32.365 -23.656 -14.582  0.00  0.00    +0.055 C 
ATOM     13  C   UNL     1      30.515 -23.716 -16.134  0.00  0.00    +0.016 C 
ATOM     14  C   UNL     1      31.589 -24.322 -13.633  0.00  0.00    +0.015 C 
ATOM     15  C   UNL     1      29.739 -24.382 -15.185  0.00  0.00    +0.001 C 
ATOM     16  C   UNL     1      30.277 -24.685 -13.935  0.00  0.00    +0.001 C 
BRANCH  12  17
ATOM     17  N   UNL     1      33.692 -23.297 -14.254  0.00  0.00    -0.356 N 
ATOM     18  H   UNL     1      34.443 -23.665 -14.773  0.00  0.00    +0.142 HD
ATOM     19  H   UNL     1      33.864 -22.680 -13.507  0.00  0.00    +0.142 HD
ENDBRANCH  12  17
ENDBRANCH   8  11
ENDBRANCH   2   9
BRANCH   1  20
ATOM     20  C   UNL     1      36.138 -19.466 -21.145  0.00  0.00    +0.119 C 
BRANCH  20  22
ATOM     21  O   UNL     1      35.034 -20.112 -23.752  0.00  0.00    -0.226 OA
ATOM     22  N   UNL     1      35.230 -18.674 -21.943  0.00  0.00    -0.267 N 
ATOM     23  C   UNL     1      34.757 -19.066 -23.177  0.00  0.00    +0.402 C 
ATOM     24  H   UNL     1      34.933 -17.807 -21.585  0.00  0.00    +0.153 HD
BRANCH  23  25
ATOM     25  O   UNL     1      33.922 -18.105 -23.676  0.00  0.00    -0.430 OA
BRANCH  25  26
ATOM     26  C   UNL     1      34.507 -17.192 -24.612  0.00  0.00    +0.238 C 
BRANCH  26  28
ATOM     27  N   UNL     1      33.256 -13.638 -24.644  0.00  0.00    -0.243 NA
ATOM     28  C   UNL     1      34.227 -15.787 -24.166  0.00  0.00    +0.040 C 
ATOM     29  C   UNL     1      34.654 -15.344 -22.927  0.00  0.00    +0.002 C 
ATOM     30  C   UNL     1      33.541 -14.915 -24.984  0.00  0.00    +0.098 C 
ATOM     31  C   UNL     1      34.380 -14.037 -22.542  0.00  0.00    +0.020 C 
ATOM     32  C   UNL     1      33.684 -13.231 -23.428  0.00  0.00    +0.099 C 
ENDBRANCH  26  28
ENDBRANCH  25  26
ENDBRANCH  23  25
ENDBRANCH  20  22
ENDBRANCH   1  20
TORSDOF 8
ENDMDL
MODEL 3
REMARK VINA RESULT:     -11.0      3.114     11.705
REMARK  Name = 4261
REMARK  8 active torsions:
REMARK  status: ('A' for Active; 'I' for Inactive)
REMARK    1  A    between atoms: C_1  and  C_20
REMARK    2  A    between atoms: C_2  and  C_9
REMARK    3  A    between atoms: N_8  and  C_11
REMARK    4  A    between atoms: C_12  and  N_17
REMARK    5  A    between atoms: C_20  and  N_22
REMARK    6  A    between atoms: C_23  and  O_25
REMARK    7  A    between atoms: O_25  and  C_26
REMARK    8  A    between atoms: C_26  and  C_28
REMARK                            x       y       z     vdW  Elec       q    Type
REMARK                         _______ _______ _______ _____ _____    ______ ____
ROOT
ATOM      1  C   UNL     1      34.101 -14.456 -22.929  0.00  0.00    -0.002 C 
ATOM      2  C   UNL     1      32.642 -12.164 -22.338  0.00  0.00    +0.054 C 
ATOM      3  C   UNL     1      34.069 -13.406 -23.841  0.00  0.00    -0.002 C 
ATOM      4  C   UNL     1      33.410 -14.371 -21.725  0.00  0.00    -0.002 C 
ATOM      5  C   UNL     1      33.338 -12.257 -23.544  0.00  0.00    +0.004 C 
ATOM      6  C   UNL     1      32.679 -13.222 -21.428  0.00  0.00    +0.004 C 
ENDROOT
BRANCH   2   9
ATOM      7  O   UNL     1      30.720 -11.083 -21.600  0.00  0.00    -0.270 OA
ATOM      8  N   UNL     1      32.546  -9.747 -22.226  0.00  0.00    -0.279 N 
ATOM      9  C   UNL     1      31.879 -10.966 -22.029  0.00  0.00    +0.250 C 
ATOM     10  H   UNL     1      33.465  -9.815 -22.573  0.00  0.00    +0.155 HD
BRANCH   8  11
ATOM     11  C   UNL     1      32.071  -8.435 -21.991  0.00  0.00    +0.064 C 
ATOM     12  C   UNL     1      32.262  -7.831 -20.758  0.00  0.00    +0.055 C 
ATOM     13  C   UNL     1      31.415  -7.778 -23.021  0.00  0.00    +0.016 C 
ATOM     14  C   UNL     1      31.785  -6.536 -20.550  0.00  0.00    +0.015 C 
ATOM     15  C   UNL     1      30.938  -6.484 -22.812  0.00  0.00    +0.001 C 
ATOM     16  C   UNL     1      31.123  -5.863 -21.577  0.00  0.00    +0.001 C 
BRANCH  12  17
ATOM     17  N   UNL     1      32.931  -8.494 -19.705  0.00  0.00    -0.356 N 
ATOM     18  H   UNL     1      33.639  -9.146 -19.906  0.00  0.00    +0.142 HD
ATOM     19  H   UNL     1      32.688  -8.302 -18.771  0.00  0.00    +0.142 HD
ENDBRANCH  12  17
ENDBRANCH   8  11
ENDBRANCH   2   9
BRANCH   1  20
ATOM     20  C   UNL     1      34.889 -15.693 -23.248  0.00  0.00    +0.119 C 
BRANCH  20  22
ATOM     21  O   UNL     1      35.318 -18.564 -23.165  0.00  0.00    -0.226 OA
ATOM     22  N   UNL     1      35.080 -16.527 -22.083  0.00  0.00    -0.267 N 
ATOM     23  C   UNL     1      35.277 -17.890 -22.143  0.00  0.00    +0.402 C 
ATOM     24  H   UNL     1      35.068 -16.097 -21.197  0.00  0.00    +0.153 HD
BRANCH  23  25
ATOM     25  O   UNL     1      35.424 -18.389 -20.879  0.00  0.00    -0.430 OA
BRANCH  25  26
ATOM     26  C   UNL     1      36.133 -19.630 -20.775  0.00  0.00    +0.238 C 
BRANCH  26  28
ATOM     27  N   UNL     1      35.071 -22.628 -18.756  0.00  0.00    -0.243 NA
ATOM     28  C   UNL     1      35.254 -20.641 -20.100  0.00  0.00    +0.040 C 
ATOM     29  C   UNL     1      33.876 -20.543 -20.183  0.00  0.00    +0.002 C 
ATOM     30  C   UNL     1      35.804 -21.684 -19.387  0.00  0.00    +0.098 C 
ATOM     31  C   UNL     1      33.088 -21.495 -19.548  0.00  0.00    +0.020 C 
ATOM     32  C   UNL     1      33.727 -22.509 -18.853  0.00  0.00    +0.099 C 
ENDBRANCH  26  28
ENDBRANCH  25  26
ENDBRANCH  23  25
ENDBRANCH  20  22
ENDBRANCH   1  20
TORSDOF 8
ENDMDL
MODEL 4
REMARK VINA RESULT:     -11.0      3.091      9.846
REMARK  Name = 4261
REMARK  8 active torsions:
REMARK  status: ('A' for Active; 'I' for Inactive)
REMARK    1  A    between atoms: C_1  and  C_20
REMARK    2  A    between atoms: C_2  and  C_9
REMARK    3  A    between atoms: N_8  and  C_11
REMARK    4  A    between atoms: C_12  and  N_17
REMARK    5  A    between atoms: C_20  and  N_22
REMARK    6  A    between atoms: C_23  and  O_25
REMARK    7  A    between atoms: O_25  and  C_26
REMARK    8  A    between atoms: C_26  and  C_28
REMARK                            x       y       z     vdW  Elec       q    Type
REMARK                         _______ _______ _______ _____ _____    ______ ____
ROOT
ATOM      1  C   UNL     1      34.749 -23.140 -16.885  0.00  0.00    -0.002 C 
ATOM      2  C   UNL     1      34.044 -21.589 -19.083  0.00  0.00    +0.054 C 
ATOM      3  C   UNL     1      35.729 -22.427 -17.567  0.00  0.00    -0.002 C 
ATOM      4  C   UNL     1      33.420 -23.085 -17.291  0.00  0.00    -0.002 C 
ATOM      5  C   UNL     1      35.375 -21.649 -18.669  0.00  0.00    +0.004 C 
ATOM      6  C   UNL     1      33.067 -22.307 -18.393  0.00  0.00    +0.004 C 
ENDROOT
BRANCH   2   9
ATOM      7  O   UNL     1      32.480 -20.696 -20.554  0.00  0.00    -0.270 OA
ATOM      8  N   UNL     1      34.732 -20.125 -20.884  0.00  0.00    -0.279 N 
ATOM      9  C   UNL     1      33.676 -20.779 -20.233  0.00  0.00    +0.250 C 
ATOM     10  H   UNL     1      35.629 -20.288 -20.513  0.00  0.00    +0.155 HD
BRANCH   8  11
ATOM     11  C   UNL     1      34.677 -19.260 -22.003  0.00  0.00    +0.064 C 
ATOM     12  C   UNL     1      34.995 -17.918 -21.867  0.00  0.00    +0.055 C 
ATOM     13  C   UNL     1      34.298 -19.790 -23.226  0.00  0.00    +0.016 C 
ATOM     14  C   UNL     1      34.933 -17.085 -22.985  0.00  0.00    +0.015 C 
ATOM     15  C   UNL     1      34.236 -18.957 -24.343  0.00  0.00    +0.001 C 
ATOM     16  C   UNL     1      34.553 -17.604 -24.222  0.00  0.00    +0.001 C 
BRANCH  12  17
ATOM     17  N   UNL     1      35.383 -17.370 -20.624  0.00  0.00    -0.356 N 
ATOM     18  H   UNL     1      35.998 -17.868 -20.038  0.00  0.00    +0.142 HD
ATOM     19  H   UNL     1      35.038 -16.492 -20.344  0.00  0.00    +0.142 HD
ENDBRANCH  12  17
ENDBRANCH   8  11
ENDBRANCH   2   9
BRANCH   1  20
ATOM     20  C   UNL     1      35.129 -23.975 -15.698  0.00  0.00    +0.119 C 
BRANCH  20  22
ATOM     21  O   UNL     1      35.060 -24.108 -12.797  0.00  0.00    -0.226 OA
ATOM     22  N   UNL     1      33.993 -24.259 -14.851  0.00  0.00    -0.267 N 
ATOM     23  C   UNL     1      34.057 -24.301 -13.475  0.00  0.00    +0.402 C 
ATOM     24  H   UNL     1      33.124 -24.432 -15.282  0.00  0.00    +0.153 HD
BRANCH  23  25
ATOM     25  O   UNL     1      32.822 -24.592 -12.965  0.00  0.00    -0.430 OA
BRANCH  25  26
ATOM     26  C   UNL     1      31.856 -23.536 -13.027  0.00  0.00    +0.238 C 
BRANCH  26  28
ATOM     27  N   UNL     1      29.103 -25.538 -14.643  0.00  0.00    -0.243 NA
ATOM     28  C   UNL     1      30.762 -23.929 -13.977  0.00  0.00    +0.040 C 
ATOM     29  C   UNL     1      30.407 -23.096 -15.024  0.00  0.00    +0.002 C 
ATOM     30  C   UNL     1      30.095 -25.125 -13.823  0.00  0.00    +0.098 C 
ATOM     31  C   UNL     1      29.392 -23.486 -15.888  0.00  0.00    +0.020 C 
ATOM     32  C   UNL     1      28.775 -24.705 -15.657  0.00  0.00    +0.099 C 
ENDBRANCH  26  28
ENDBRANCH  25  26
ENDBRANCH  23  25
ENDBRANCH  20  22
ENDBRANCH   1  20
TORSDOF 8
ENDMDL
MODEL 5
REMARK VINA RESULT:     -10.9      1.755      2.354
REMARK  Name = 4261
REMARK  8 active torsions:
REMARK  status: ('A' for Active; 'I' for Inactive)
REMARK    1  A    between atoms: C_1  and  C_20
REMARK    2  A    between atoms: C_2  and  C_9
REMARK    3  A    between atoms: N_8  and  C_11
REMARK    4  A    between atoms: C_12  and  N_17
REMARK    5  A    between atoms: C_20  and  N_22
REMARK    6  A    between atoms: C_23  and  O_25
REMARK    7  A    between atoms: O_25  and  C_26
REMARK    8  A    between atoms: C_26  and  C_28
REMARK                            x       y       z     vdW  Elec       q    Type
REMARK                         _______ _______ _______ _____ _____    ______ ____
ROOT
ATOM      1  C   UNL     1      35.398 -19.845 -21.143  0.00  0.00    -0.002 C 
ATOM      2  C   UNL     1      34.791 -21.701 -19.163  0.00  0.00    +0.054 C 
ATOM      3  C   UNL     1      36.426 -20.441 -20.420  0.00  0.00    -0.002 C 
ATOM      4  C   UNL     1      34.070 -20.167 -20.885  0.00  0.00    -0.002 C 
ATOM      5  C   UNL     1      36.121 -21.372 -19.428  0.00  0.00    +0.004 C 
ATOM      6  C   UNL     1      33.765 -21.097 -19.893  0.00  0.00    +0.004 C 
ENDROOT
BRANCH   2   9
ATOM      7  O   UNL     1      33.672 -23.583 -18.381  0.00  0.00    -0.270 OA
ATOM      8  N   UNL     1      35.138 -22.498 -16.904  0.00  0.00    -0.279 N 
ATOM      9  C   UNL     1      34.474 -22.669 -18.127  0.00  0.00    +0.250 C 
ATOM     10  H   UNL     1      35.746 -21.725 -16.853  0.00  0.00    +0.155 HD
BRANCH   8  11
ATOM     11  C   UNL     1      35.050 -23.290 -15.734  0.00  0.00    +0.064 C 
ATOM     12  C   UNL     1      36.199 -23.755 -15.115  0.00  0.00    +0.055 C 
ATOM     13  C   UNL     1      33.792 -23.585 -15.232  0.00  0.00    +0.016 C 
ATOM     14  C   UNL     1      36.087 -24.534 -13.963  0.00  0.00    +0.015 C 
ATOM     15  C   UNL     1      33.680 -24.364 -14.081  0.00  0.00    +0.001 C 
ATOM     16  C   UNL     1      34.828 -24.839 -13.447  0.00  0.00    +0.001 C 
BRANCH  12  17
ATOM     17  N   UNL     1      37.485 -23.458 -15.620  0.00  0.00    -0.356 N 
ATOM     18  H   UNL     1      37.803 -22.526 -15.637  0.00  0.00    +0.142 HD
ATOM     19  H   UNL     1      38.062 -24.182 -15.954  0.00  0.00    +0.142 HD
ENDBRANCH  12  17
ENDBRANCH   8  11
ENDBRANCH   2   9
BRANCH   1  20
ATOM     20  C   UNL     1      35.726 -18.844 -22.213  0.00  0.00    +0.119 C 
BRANCH  20  22
ATOM     21  O   UNL     1      35.067 -16.631 -23.974  0.00  0.00    -0.226 OA
ATOM     22  N   UNL     1      35.325 -17.506 -21.842  0.00  0.00    -0.267 N 
ATOM     23  C   UNL     1      35.031 -16.516 -22.754  0.00  0.00    +0.402 C 
ATOM     24  H   UNL     1      35.259 -17.290 -20.883  0.00  0.00    +0.153 HD
BRANCH  23  25
ATOM     25  O   UNL     1      34.687 -15.369 -22.093  0.00  0.00    -0.430 OA
BRANCH  25  26
ATOM     26  C   UNL     1      34.302 -14.264 -22.919  0.00  0.00    +0.238 C 
BRANCH  26  28
ATOM     27  N   UNL     1      31.929 -11.450 -22.113  0.00  0.00    -0.243 NA
ATOM     28  C   UNL     1      33.308 -13.420 -22.175  0.00  0.00    +0.040 C 
ATOM     29  C   UNL     1      32.863 -13.798 -20.921  0.00  0.00    +0.002 C 
ATOM     30  C   UNL     1      32.823 -12.255 -22.729  0.00  0.00    +0.098 C 
ATOM     31  C   UNL     1      31.944 -12.996 -20.256  0.00  0.00    +0.020 C 
ATOM     32  C   UNL     1      31.511 -11.842 -20.889  0.00  0.00    +0.099 C 
ENDBRANCH  26  28
ENDBRANCH  25  26
ENDBRANCH  23  25
ENDBRANCH  20  22
ENDBRANCH   1  20
TORSDOF 8
ENDMDL
MODEL 6
REMARK VINA RESULT:     -10.8      3.142      4.065
REMARK  Name = 4261
REMARK  8 active torsions:
REMARK  status: ('A' for Active; 'I' for Inactive)
REMARK    1  A    between atoms: C_1  and  C_20
REMARK    2  A    between atoms: C_2  and  C_9
REMARK    3  A    between atoms: N_8  and  C_11
REMARK    4  A    between atoms: C_12  and  N_17
REMARK    5  A    between atoms: C_20  and  N_22
REMARK    6  A    between atoms: C_23  and  O_25
REMARK    7  A    between atoms: O_25  and  C_26
REMARK    8  A    between atoms: C_26  and  C_28
REMARK                            x       y       z     vdW  Elec       q    Type
REMARK                         _______ _______ _______ _____ _____    ______ ____
ROOT
ATOM      1  C   UNL     1      34.878 -21.313 -19.497  0.00  0.00    -0.002 C 
ATOM      2  C   UNL     1      36.085 -22.367 -17.224  0.00  0.00    +0.054 C 
ATOM      3  C   UNL     1      34.142 -22.125 -18.641  0.00  0.00    -0.002 C 
ATOM      4  C   UNL     1      36.211 -21.023 -19.228  0.00  0.00    -0.002 C 
ATOM      5  C   UNL     1      34.747 -22.653 -17.501  0.00  0.00    +0.004 C 
ATOM      6  C   UNL     1      36.816 -21.551 -18.089  0.00  0.00    +0.004 C 
ENDROOT
BRANCH   2   9
ATOM      7  O   UNL     1      37.768 -22.409 -15.621  0.00  0.00    -0.270 OA
ATOM      8  N   UNL     1      36.048 -23.995 -15.433  0.00  0.00    -0.279 N 
ATOM      9  C   UNL     1      36.716 -22.919 -16.037  0.00  0.00    +0.250 C 
ATOM     10  H   UNL     1      35.222 -24.289 -15.880  0.00  0.00    +0.155 HD
BRANCH   8  11
ATOM     11  C   UNL     1      36.406 -24.711 -14.266  0.00  0.00    +0.064 C 
ATOM     12  C   UNL     1      35.696 -24.534 -13.090  0.00  0.00    +0.055 C 
ATOM     13  C   UNL     1      37.479 -25.586 -14.334  0.00  0.00    +0.016 C 
ATOM     14  C   UNL     1      36.068 -25.251 -11.952  0.00  0.00    +0.015 C 
ATOM     15  C   UNL     1      37.851 -26.303 -13.197  0.00  0.00    +0.001 C 
ATOM     16  C   UNL     1      37.146 -26.135 -12.006  0.00  0.00    +0.001 C 
BRANCH  12  17
ATOM     17  N   UNL     1      34.601 -23.644 -13.012  0.00  0.00    -0.356 N 
ATOM     18  H   UNL     1      34.457 -22.979 -13.723  0.00  0.00    +0.142 HD
ATOM     19  H   UNL     1      33.983 -23.690 -12.248  0.00  0.00    +0.142 HD
ENDBRANCH  12  17
ENDBRANCH   8  11
ENDBRANCH   2   9
BRANCH   1  20
ATOM     20  C   UNL     1      34.226 -20.743 -20.723  0.00  0.00    +0.119 C 
BRANCH  20  22
ATOM     21  O   UNL     1      34.462 -19.915 -23.497  0.00  0.00    -0.226 OA
ATOM     22  N   UNL     1      34.962 -19.617 -21.252  0.00  0.00    -0.267 N 
ATOM     23  C   UNL     1      35.016 -19.301 -22.592  0.00  0.00    +0.402 C 
ATOM     24  H   UNL     1      35.451 -19.044 -20.619  0.00  0.00    +0.153 HD
BRANCH  23  25
ATOM     25  O   UNL     1      35.787 -18.187 -22.771  0.00  0.00    -0.430 OA
BRANCH  25  26
ATOM     26  C   UNL     1      35.311 -16.989 -22.146  0.00  0.00    +0.238 C 
BRANCH  26  28
ATOM     27  N   UNL     1      33.831 -15.891 -25.432  0.00  0.00    -0.243 NA
ATOM     28  C   UNL     1      34.618 -16.143 -23.173  0.00  0.00    +0.040 C 
ATOM     29  C   UNL     1      34.141 -14.886 -22.843  0.00  0.00    +0.002 C 
ATOM     30  C   UNL     1      34.445 -16.602 -24.461  0.00  0.00    +0.098 C 
ATOM     31  C   UNL     1      33.503 -14.125 -23.815  0.00  0.00    +0.020 C 
ATOM     32  C   UNL     1      33.375 -14.667 -25.084  0.00  0.00    +0.099 C 
ENDBRANCH  26  28
ENDBRANCH  25  26
ENDBRANCH  23  25
ENDBRANCH  20  22
ENDBRANCH   1  20
TORSDOF 8
ENDMDL
MODEL 7
REMARK VINA RESULT:     -10.8      3.224     11.551
REMARK  Name = 4261
REMARK  8 active torsions:
REMARK  status: ('A' for Active; 'I' for Inactive)
REMARK    1  A    between atoms: C_1  and  C_20
REMARK    2  A    between atoms: C_2  and  C_9
REMARK    3  A    between atoms: N_8  and  C_11
REMARK    4  A    between atoms: C_12  and  N_17
REMARK    5  A    between atoms: C_20  and  N_22
REMARK    6  A    between atoms: C_23  and  O_25
REMARK    7  A    between atoms: O_25  and  C_26
REMARK    8  A    between atoms: C_26  and  C_28
REMARK                            x       y       z     vdW  Elec       q    Type
REMARK                         _______ _______ _______ _____ _____    ______ ____
ROOT
ATOM      1  C   UNL     1      34.234 -15.482 -24.079  0.00  0.00    -0.002 C 
ATOM      2  C   UNL     1      33.257 -13.063 -23.115  0.00  0.00    +0.054 C 
ATOM      3  C   UNL     1      34.522 -15.094 -22.775  0.00  0.00    -0.002 C 
ATOM      4  C   UNL     1      33.463 -14.672 -24.905  0.00  0.00    -0.002 C 
ATOM      5  C   UNL     1      34.032 -13.882 -22.292  0.00  0.00    +0.004 C 
ATOM      6  C   UNL     1      32.973 -13.460 -24.422  0.00  0.00    +0.004 C 
ENDROOT
BRANCH   2   9
ATOM      7  O   UNL     1      31.979 -11.803 -21.636  0.00  0.00    -0.270 OA
ATOM      8  N   UNL     1      33.201 -10.649 -23.274  0.00  0.00    -0.279 N 
ATOM      9  C   UNL     1      32.748 -11.799 -22.611  0.00  0.00    +0.250 C 
ATOM     10  H   UNL     1      33.810 -10.804 -24.032  0.00  0.00    +0.155 HD
BRANCH   8  11
ATOM     11  C   UNL     1      32.900  -9.294 -22.994  0.00  0.00    +0.064 C 
ATOM     12  C   UNL     1      33.878  -8.320 -23.110  0.00  0.00    +0.055 C 
ATOM     13  C   UNL     1      31.608  -8.974 -22.606  0.00  0.00    +0.016 C 
ATOM     14  C   UNL     1      33.557  -6.991 -22.829  0.00  0.00    +0.015 C 
ATOM     15  C   UNL     1      31.287  -7.647 -22.325  0.00  0.00    +0.001 C 
ATOM     16  C   UNL     1      32.261  -6.655 -22.437  0.00  0.00    +0.001 C 
BRANCH  12  17
ATOM     17  N   UNL     1      35.197  -8.638 -23.507  0.00  0.00    -0.356 N 
ATOM     18  H   UNL     1      35.586  -8.212 -24.305  0.00  0.00    +0.142 HD
ATOM     19  H   UNL     1      35.725  -9.284 -22.986  0.00  0.00    +0.142 HD
ENDBRANCH  12  17
ENDBRANCH   8  11
ENDBRANCH   2   9
BRANCH   1  20
ATOM     20  C   UNL     1      34.760 -16.788 -24.599  0.00  0.00    +0.119 C 
BRANCH  20  22
ATOM     21  O   UNL     1      33.823 -19.496 -24.127  0.00  0.00    -0.226 OA
ATOM     22  N   UNL     1      35.139 -17.682 -23.529  0.00  0.00    -0.267 N 
ATOM     23  C   UNL     1      34.638 -18.958 -23.386  0.00  0.00    +0.402 C 
ATOM     24  H   UNL     1      35.792 -17.362 -22.865  0.00  0.00    +0.153 HD
BRANCH  23  25
ATOM     25  O   UNL     1      35.188 -19.547 -22.282  0.00  0.00    -0.430 OA
BRANCH  25  26
ATOM     26  C   UNL     1      34.594 -19.198 -21.026  0.00  0.00    +0.238 C 
BRANCH  26  28
ATOM     27  N   UNL     1      32.762 -21.990 -19.281  0.00  0.00    -0.243 NA
ATOM     28  C   UNL     1      34.344 -20.450 -20.237  0.00  0.00    +0.040 C 
ATOM     29  C   UNL     1      35.401 -21.199 -19.752  0.00  0.00    +0.002 C 
ATOM     30  C   UNL     1      33.057 -20.874 -19.984  0.00  0.00    +0.098 C 
ATOM     31  C   UNL     1      35.138 -22.354 -19.024  0.00  0.00    +0.020 C 
ATOM     32  C   UNL     1      33.813 -22.704 -18.818  0.00  0.00    +0.099 C 
ENDBRANCH  26  28
ENDBRANCH  25  26
ENDBRANCH  23  25
ENDBRANCH  20  22
ENDBRANCH   1  20
TORSDOF 8
ENDMDL
MODEL 8
REMARK VINA RESULT:     -10.8      3.126      3.876
REMARK  Name = 4261
REMARK  8 active torsions:
REMARK  status: ('A' for Active; 'I' for Inactive)
REMARK    1  A    between atoms: C_1  and  C_20
REMARK    2  A    between atoms: C_2  and  C_9
REMARK    3  A    between atoms: N_8  and  C_11
REMARK    4  A    between atoms: C_12  and  N_17
REMARK    5  A    between atoms: C_20  and  N_22
REMARK    6  A    between atoms: C_23  and  O_25
REMARK    7  A    between atoms: O_25  and  C_26
REMARK    8  A    between atoms: C_26  and  C_28
REMARK                            x       y       z     vdW  Elec       q    Type
REMARK                         _______ _______ _______ _____ _____    ______ ____
ROOT
ATOM      1  C   UNL     1      35.189 -21.464 -19.473  0.00  0.00    -0.002 C 
ATOM      2  C   UNL     1      35.388 -22.670 -16.976  0.00  0.00    +0.054 C 
ATOM      3  C   UNL     1      36.391 -21.409 -18.776  0.00  0.00    -0.002 C 
ATOM      4  C   UNL     1      34.086 -22.116 -18.934  0.00  0.00    -0.002 C 
ATOM      5  C   UNL     1      36.490 -22.014 -17.524  0.00  0.00    +0.004 C 
ATOM      6  C   UNL     1      34.185 -22.721 -17.682  0.00  0.00    +0.004 C 
ENDROOT
BRANCH   2   9
ATOM      7  O   UNL     1      34.556 -23.175 -14.864  0.00  0.00    -0.270 OA
ATOM      8  N   UNL     1      36.664 -24.034 -15.436  0.00  0.00    -0.279 N 
ATOM      9  C   UNL     1      35.492 -23.300 -15.670  0.00  0.00    +0.250 C 
ATOM     10  H   UNL     1      37.317 -24.042 -16.172  0.00  0.00    +0.155 HD
BRANCH   8  11
ATOM     11  C   UNL     1      37.028 -24.767 -14.281  0.00  0.00    +0.064 C 
ATOM     12  C   UNL     1      36.805 -26.133 -14.218  0.00  0.00    +0.055 C 
ATOM     13  C   UNL     1      37.611 -24.084 -13.225  0.00  0.00    +0.016 C 
ATOM     14  C   UNL     1      37.173 -26.834 -13.069  0.00  0.00    +0.015 C 
ATOM     15  C   UNL     1      37.979 -24.784 -12.076  0.00  0.00    +0.001 C 
ATOM     16  C   UNL     1      37.759 -26.159 -11.998  0.00  0.00    +0.001 C 
BRANCH  12  17
ATOM     17  N   UNL     1      36.212 -26.837 -15.291  0.00  0.00    -0.356 N 
ATOM     18  H   UNL     1      35.642 -27.619 -15.110  0.00  0.00    +0.142 HD
ATOM     19  H   UNL     1      36.370 -26.545 -16.217  0.00  0.00    +0.142 HD
ENDBRANCH  12  17
ENDBRANCH   8  11
ENDBRANCH   2   9
BRANCH   1  20
ATOM     20  C   UNL     1      35.082 -20.814 -20.822  0.00  0.00    +0.119 C 
BRANCH  20  22
ATOM     21  O   UNL     1      36.224 -18.738 -22.502  0.00  0.00    -0.226 OA
ATOM     22  N   UNL     1      34.889 -19.385 -20.719  0.00  0.00    -0.267 N 
ATOM     23  C   UNL     1      35.476 -18.472 -21.568  0.00  0.00    +0.402 C 
ATOM     24  H   UNL     1      34.305 -19.046 -20.003  0.00  0.00    +0.153 HD
BRANCH  23  25
ATOM     25  O   UNL     1      35.100 -17.206 -21.213  0.00  0.00    -0.430 OA
BRANCH  25  26
ATOM     26  C   UNL     1      35.225 -16.208 -22.233  0.00  0.00    +0.238 C 
BRANCH  26  28
ATOM     27  N   UNL     1      32.682 -13.507 -22.892  0.00  0.00    -0.243 NA
ATOM     28  C   UNL     1      34.212 -15.128 -21.987  0.00  0.00    +0.040 C 
ATOM     29  C   UNL     1      33.878 -14.757 -20.697  0.00  0.00    +0.002 C 
ATOM     30  C   UNL     1      33.600 -14.487 -23.043  0.00  0.00    +0.098 C 
ATOM     31  C   UNL     1      32.938 -13.753 -20.500  0.00  0.00    +0.020 C 
ATOM     32  C   UNL     1      32.373 -13.164 -21.620  0.00  0.00    +0.099 C 
ENDBRANCH  26  28
ENDBRANCH  25  26
ENDBRANCH  23  25
ENDBRANCH  20  22
ENDBRANCH   1  20
TORSDOF 8
ENDMDL
MODEL 9
REMARK VINA RESULT:     -10.8      1.990      9.979
REMARK  Name = 4261
REMARK  8 active torsions:
REMARK  status: ('A' for Active; 'I' for Inactive)
REMARK    1  A    between atoms: C_1  and  C_20
REMARK    2  A    between atoms: C_2  and  C_9
REMARK    3  A    between atoms: N_8  and  C_11
REMARK    4  A    between atoms: C_12  and  N_17
REMARK    5  A    between atoms: C_20  and  N_22
REMARK    6  A    between atoms: C_23  and  O_25
REMARK    7  A    between atoms: O_25  and  C_26
REMARK    8  A    between atoms: C_26  and  C_28
REMARK                            x       y       z     vdW  Elec       q    Type
REMARK                         _______ _______ _______ _____ _____    ______ ____
ROOT
ATOM      1  C   UNL     1      36.108 -20.581 -19.890  0.00  0.00    -0.002 C 
ATOM      2  C   UNL     1      35.273 -18.854 -21.902  0.00  0.00    +0.054 C 
ATOM      3  C   UNL     1      36.995 -19.640 -20.400  0.00  0.00    -0.002 C 
ATOM      4  C   UNL     1      34.808 -20.668 -20.376  0.00  0.00    -0.002 C 
ATOM      5  C   UNL     1      36.576 -18.773 -21.409  0.00  0.00    +0.004 C 
ATOM      6  C   UNL     1      34.389 -19.802 -21.385  0.00  0.00    +0.004 C 
ENDROOT
BRANCH   2   9
ATOM      7  O   UNL     1      34.575 -18.414 -24.076  0.00  0.00    -0.270 OA
ATOM      8  N   UNL     1      34.725 -16.600 -22.595  0.00  0.00    -0.279 N 
ATOM      9  C   UNL     1      34.838 -17.951 -22.955  0.00  0.00    +0.250 C 
ATOM     10  H   UNL     1      34.969 -16.383 -21.667  0.00  0.00    +0.155 HD
BRANCH   8  11
ATOM     11  C   UNL     1      34.306 -15.508 -23.393  0.00  0.00    +0.064 C 
ATOM     12  C   UNL     1      34.261 -14.229 -22.861  0.00  0.00    +0.055 C 
ATOM     13  C   UNL     1      33.946 -15.754 -24.709  0.00  0.00    +0.016 C 
ATOM     14  C   UNL     1      33.844 -13.169 -23.666  0.00  0.00    +0.015 C 
ATOM     15  C   UNL     1      33.530 -14.694 -25.513  0.00  0.00    +0.001 C 
ATOM     16  C   UNL     1      33.478 -13.401 -24.992  0.00  0.00    +0.001 C 
BRANCH  12  17
ATOM     17  N   UNL     1      34.627 -13.970 -21.521  0.00  0.00    -0.356 N 
ATOM     18  H   UNL     1      35.547 -14.149 -21.220  0.00  0.00    +0.142 HD
ATOM     19  H   UNL     1      33.963 -13.612 -20.890  0.00  0.00    +0.142 HD
ENDBRANCH  12  17
ENDBRANCH   8  11
ENDBRANCH   2   9
BRANCH   1  20
ATOM     20  C   UNL     1      36.558 -21.513 -18.803  0.00  0.00    +0.119 C 
BRANCH  20  22
ATOM     21  O   UNL     1      36.032 -22.541 -16.137  0.00  0.00    -0.226 OA
ATOM     22  N   UNL     1      35.505 -22.413 -18.392  0.00  0.00    -0.267 N 
ATOM     23  C   UNL     1      35.333 -22.849 -17.096  0.00  0.00    +0.402 C 
ATOM     24  H   UNL     1      34.874 -22.733 -19.078  0.00  0.00    +0.153 HD
BRANCH  23  25
ATOM     25  O   UNL     1      34.255 -23.687 -17.031  0.00  0.00    -0.430 OA
BRANCH  25  26
ATOM     26  C   UNL     1      32.981 -23.088 -17.294  0.00  0.00    +0.238 C 
BRANCH  26  28
ATOM     27  N   UNL     1      29.895 -23.298 -15.142  0.00  0.00    -0.243 NA
ATOM     28  C   UNL     1      32.108 -23.240 -16.082  0.00  0.00    +0.040 C 
ATOM     29  C   UNL     1      32.668 -23.451 -14.835  0.00  0.00    +0.002 C 
ATOM     30  C   UNL     1      30.736 -23.170 -16.192  0.00  0.00    +0.098 C 
ATOM     31  C   UNL     1      31.836 -23.588 -13.731  0.00  0.00    +0.020 C 
ATOM     32  C   UNL     1      30.468 -23.504 -13.935  0.00  0.00    +0.099 C 
ENDBRANCH  26  28
ENDBRANCH  25  26
ENDBRANCH  23  25
ENDBRANCH  20  22
ENDBRANCH   1  20
TORSDOF 8
ENDMDL
