MODEL 1
REMARK VINA RESULT:     -12.6      0.000      0.000
REMARK  Name = 60870
REMARK  7 active torsions:
REMARK  status: ('A' for Active; 'I' for Inactive)
REMARK    1  A    between atoms: C_2  and  C_4
REMARK    2  A    between atoms: C_2  and  C_18
REMARK    3  A    between atoms: C_3  and  C_9
REMARK    4  A    between atoms: C_9  and  C_14
REMARK    5  A    between atoms: C_18  and  C_19
REMARK    6  A    between atoms: C_19  and  C_22
REMARK    7  A    between atoms: C_24  and  C_26
REMARK                            x       y       z     vdW  Elec       q    Type
REMARK                         _______ _______ _______ _____ _____    ______ ____
ROOT
ATOM      1  O   UNL     1      33.453 -24.476 -18.020  0.00  0.00    -0.291 OA
ATOM      2  C   UNL     1      33.245 -23.254 -17.872  0.00  0.00    +0.173 C 
ENDROOT
BRANCH   2   4
ATOM      3  C   UNL     1      35.015 -20.428 -20.471  0.00  0.00    -0.021 C 
ATOM      4  C   UNL     1      33.854 -22.282 -18.767  0.00  0.00    +0.035 C 
ATOM      5  C   UNL     1      35.825 -21.304 -19.764  0.00  0.00    -0.004 C 
ATOM      6  C   UNL     1      33.635 -20.463 -20.341  0.00  0.00    -0.004 C 
ATOM      7  C   UNL     1      35.241 -22.237 -18.907  0.00  0.00    +0.003 C 
ATOM      8  C   UNL     1      33.051 -21.396 -19.484  0.00  0.00    +0.003 C 
BRANCH   3   9
ATOM      9  C   UNL     1      35.646 -19.420 -21.398  0.00  0.00    +0.047 C 
BRANCH   9  14
ATOM     10  S   UNL     1      34.528 -18.601 -23.778  0.00  0.00    -0.048 S 
ATOM     11  O   UNL     1      35.201 -16.572 -20.565  0.00  0.00    -0.274 OA
ATOM     12  O   UNL     1      34.933 -16.410 -25.173  0.00  0.00    -0.263 OA
ATOM     13  N   UNL     1      35.099 -16.288 -22.858  0.00  0.00    -0.246 N 
ATOM     14  C   UNL     1      34.623 -18.454 -21.967  0.00  0.00    +0.137 C 
ATOM     15  C   UNL     1      35.006 -17.017 -21.691  0.00  0.00    +0.239 C 
ATOM     16  C   UNL     1      34.885 -16.911 -24.060  0.00  0.00    +0.279 C 
ATOM     17  H   UNL     1      35.316 -15.329 -22.828  0.00  0.00    +0.158 HD
ENDBRANCH   9  14
ENDBRANCH   3   9
ENDBRANCH   2   4
BRANCH   2  18
ATOM     18  C   UNL     1      32.330 -22.779 -16.728  0.00  0.00    +0.076 C 
BRANCH  18  19
ATOM     19  C   UNL     1      31.716 -23.925 -15.920  0.00  0.00    +0.066 C 
BRANCH  19  22
ATOM     20  O   UNL     1      33.115 -24.804 -12.663  0.00  0.00    -0.449 OA
ATOM     21  N   UNL     1      33.847 -24.064 -14.672  0.00  0.00    -0.373 NA
ATOM     22  C   UNL     1      32.500 -24.229 -14.678  0.00  0.00    +0.130 C 
ATOM     23  C   UNL     1      32.036 -24.672 -13.485  0.00  0.00    +0.216 C 
ATOM     24  C   UNL     1      34.160 -24.421 -13.446  0.00  0.00    +0.277 C 
ATOM     25  C   UNL     1      30.725 -25.016 -12.926  0.00  0.00    +0.055 C 
BRANCH  24  26
ATOM     26  C   UNL     1      35.448 -24.467 -12.811  0.00  0.00    +0.066 C 
ATOM     27  C   UNL     1      36.502 -25.166 -13.406  0.00  0.00    +0.006 C 
ATOM     28  C   UNL     1      35.655 -23.812 -11.593  0.00  0.00    +0.006 C 
ATOM     29  C   UNL     1      37.752 -25.212 -12.789  0.00  0.00    +0.000 C 
ATOM     30  C   UNL     1      36.905 -23.858 -10.976  0.00  0.00    +0.000 C 
ATOM     31  C   UNL     1      37.953 -24.558 -11.574  0.00  0.00    +0.000 C 
ENDBRANCH  24  26
ENDBRANCH  19  22
ENDBRANCH  18  19
ENDBRANCH   2  18
TORSDOF 7
ENDMDL
MODEL 2
REMARK VINA RESULT:     -12.4      3.509     11.307
REMARK  Name = 60870
REMARK  7 active torsions:
REMARK  status: ('A' for Active; 'I' for Inactive)
REMARK    1  A    between atoms: C_2  and  C_4
REMARK    2  A    between atoms: C_2  and  C_18
REMARK    3  A    between atoms: C_3  and  C_9
REMARK    4  A    between atoms: C_9  and  C_14
REMARK    5  A    between atoms: C_18  and  C_19
REMARK    6  A    between atoms: C_19  and  C_22
REMARK    7  A    between atoms: C_24  and  C_26
REMARK                            x       y       z     vdW  Elec       q    Type
REMARK                         _______ _______ _______ _____ _____    ______ ____
ROOT
ATOM      1  O   UNL     1      34.843 -19.680 -22.618  0.00  0.00    -0.291 OA
ATOM      2  C   UNL     1      34.843 -19.449 -21.391  0.00  0.00    +0.173 C 
ENDROOT
BRANCH   2   4
ATOM      3  C   UNL     1      33.838 -22.481 -18.621  0.00  0.00    -0.021 C 
ATOM      4  C   UNL     1      34.497 -20.491 -20.437  0.00  0.00    +0.035 C 
ATOM      5  C   UNL     1      35.169 -22.271 -18.948  0.00  0.00    -0.004 C 
ATOM      6  C   UNL     1      32.831 -21.713 -19.186  0.00  0.00    -0.004 C 
ATOM      7  C   UNL     1      35.501 -21.270 -19.862  0.00  0.00    +0.003 C 
ATOM      8  C   UNL     1      33.162 -20.712 -20.100  0.00  0.00    +0.003 C 
BRANCH   3   9
ATOM      9  C   UNL     1      33.480 -23.561 -17.633  0.00  0.00    +0.047 C 
BRANCH   9  14
ATOM     10  S   UNL     1      34.073 -23.740 -14.949  0.00  0.00    -0.048 S 
ATOM     11  O   UNL     1      30.702 -22.970 -16.663  0.00  0.00    -0.274 OA
ATOM     12  O   UNL     1      32.746 -24.893 -12.995  0.00  0.00    -0.263 OA
ATOM     13  N   UNL     1      31.537 -23.968 -14.751  0.00  0.00    -0.246 N 
ATOM     14  C   UNL     1      33.089 -22.988 -16.282  0.00  0.00    +0.137 C 
ATOM     15  C   UNL     1      31.645 -23.293 -15.950  0.00  0.00    +0.239 C 
ATOM     16  C   UNL     1      32.673 -24.298 -14.060  0.00  0.00    +0.279 C 
ATOM     17  H   UNL     1      30.652 -24.209 -14.396  0.00  0.00    +0.158 HD
ENDBRANCH   9  14
ENDBRANCH   3   9
ENDBRANCH   2   4
BRANCH   2  18
ATOM     18  C   UNL     1      35.216 -18.041 -20.891  0.00  0.00    +0.076 C 
BRANCH  18  19
ATOM     19  C   UNL     1      35.821 -17.147 -21.976  0.00  0.00    +0.066 C 
BRANCH  19  22
ATOM     20  O   UNL     1      33.464 -14.904 -23.634  0.00  0.00    -0.449 OA
ATOM     21  N   UNL     1      34.508 -15.079 -21.635  0.00  0.00    -0.373 NA
ATOM     22  C   UNL     1      34.858 -16.101 -22.455  0.00  0.00    +0.130 C 
ATOM     23  C   UNL     1      34.246 -16.020 -23.660  0.00  0.00    +0.216 C 
ATOM     24  C   UNL     1      33.676 -14.396 -22.389  0.00  0.00    +0.277 C 
ATOM     25  C   UNL     1      34.239 -16.811 -24.895  0.00  0.00    +0.055 C 
BRANCH  24  26
ATOM     26  C   UNL     1      32.956 -13.190 -22.090  0.00  0.00    +0.066 C 
ATOM     27  C   UNL     1      32.215 -13.087 -20.909  0.00  0.00    +0.006 C 
ATOM     28  C   UNL     1      32.990 -12.112 -22.980  0.00  0.00    +0.006 C 
ATOM     29  C   UNL     1      31.514 -11.916 -20.620  0.00  0.00    +0.000 C 
ATOM     30  C   UNL     1      32.289 -10.941 -22.690  0.00  0.00    +0.000 C 
ATOM     31  C   UNL     1      31.551 -10.844 -21.510  0.00  0.00    +0.000 C 
ENDBRANCH  24  26
ENDBRANCH  19  22
ENDBRANCH  18  19
ENDBRANCH   2  18
TORSDOF 7
ENDMDL
MODEL 3
REMARK VINA RESULT:     -12.3      5.198     12.249
REMARK  Name = 60870
REMARK  7 active torsions:
REMARK  status: ('A' for Active; 'I' for Inactive)
REMARK    1  A    between atoms: C_2  and  C_4
REMARK    2  A    between atoms: C_2  and  C_18
REMARK    3  A    between atoms: C_3  and  C_9
REMARK    4  A    between atoms: C_9  and  C_14
REMARK    5  A    between atoms: C_18  and  C_19
REMARK    6  A    between atoms: C_19  and  C_22
REMARK    7  A    between atoms: C_24  and  C_26
REMARK                            x       y       z     vdW  Elec       q    Type
REMARK                         _______ _______ _______ _____ _____    ______ ____
ROOT
ATOM      1  O   UNL     1      34.714 -16.013 -25.125  0.00  0.00    -0.291 OA
ATOM      2  C   UNL     1      34.639 -16.034 -23.880  0.00  0.00    +0.173 C 
ENDROOT
BRANCH   2   4
ATOM      3  C   UNL     1      35.093 -19.656 -21.747  0.00  0.00    -0.021 C 
ATOM      4  C   UNL     1      34.794 -17.280 -23.145  0.00  0.00    +0.035 C 
ATOM      5  C   UNL     1      35.470 -18.462 -21.150  0.00  0.00    -0.004 C 
ATOM      6  C   UNL     1      34.569 -19.683 -23.030  0.00  0.00    -0.004 C 
ATOM      7  C   UNL     1      35.319 -17.267 -21.854  0.00  0.00    +0.003 C 
ATOM      8  C   UNL     1      34.418 -18.487 -23.734  0.00  0.00    +0.003 C 
BRANCH   3   9
ATOM      9  C   UNL     1      35.254 -20.947 -20.986  0.00  0.00    +0.047 C 
BRANCH   9  14
ATOM     10  S   UNL     1      35.416 -22.043 -18.464  0.00  0.00    -0.048 S 
ATOM     11  O   UNL     1      32.324 -20.739 -20.372  0.00  0.00    -0.274 OA
ATOM     12  O   UNL     1      33.866 -23.808 -17.283  0.00  0.00    -0.263 OA
ATOM     13  N   UNL     1      32.900 -22.335 -18.801  0.00  0.00    -0.246 N 
ATOM     14  C   UNL     1      34.614 -20.880 -19.611  0.00  0.00    +0.137 C 
ATOM     15  C   UNL     1      33.158 -21.286 -19.659  0.00  0.00    +0.239 C 
ATOM     16  C   UNL     1      33.928 -22.881 -18.077  0.00  0.00    +0.279 C 
ATOM     17  H   UNL     1      31.987 -22.689 -18.709  0.00  0.00    +0.158 HD
ENDBRANCH   9  14
ENDBRANCH   3   9
ENDBRANCH   2   4
BRANCH   2  18
ATOM     18  C   UNL     1      34.381 -14.720 -23.119  0.00  0.00    +0.076 C 
BRANCH  18  19
ATOM     19  C   UNL     1      33.065 -14.038 -23.506  0.00  0.00    +0.066 C 
BRANCH  19  22
ATOM     20  O   UNL     1      32.106 -11.813 -20.774  0.00  0.00    -0.449 OA
ATOM     21  N   UNL     1      32.602 -11.667 -22.976  0.00  0.00    -0.373 NA
ATOM     22  C   UNL     1      32.684 -12.951 -22.545  0.00  0.00    +0.130 C 
ATOM     23  C   UNL     1      32.391 -13.065 -21.229  0.00  0.00    +0.216 C 
ATOM     24  C   UNL     1      32.254 -11.033 -21.879  0.00  0.00    +0.277 C 
ATOM     25  C   UNL     1      32.319 -14.160 -20.255  0.00  0.00    +0.055 C 
BRANCH  24  26
ATOM     26  C   UNL     1      32.007  -9.632 -21.676  0.00  0.00    +0.066 C 
ATOM     27  C   UNL     1      31.462  -8.856 -22.703  0.00  0.00    +0.006 C 
ATOM     28  C   UNL     1      32.312  -9.035 -20.449  0.00  0.00    +0.006 C 
ATOM     29  C   UNL     1      31.224  -7.496 -22.506  0.00  0.00    +0.000 C 
ATOM     30  C   UNL     1      32.074  -7.675 -20.252  0.00  0.00    +0.000 C 
ATOM     31  C   UNL     1      31.530  -6.905 -21.281  0.00  0.00    +0.000 C 
ENDBRANCH  24  26
ENDBRANCH  19  22
ENDBRANCH  18  19
ENDBRANCH   2  18
TORSDOF 7
ENDMDL
MODEL 4
REMARK VINA RESULT:     -12.0      6.017     10.066
REMARK  Name = 60870
REMARK  7 active torsions:
REMARK  status: ('A' for Active; 'I' for Inactive)
REMARK    1  A    between atoms: C_2  and  C_4
REMARK    2  A    between atoms: C_2  and  C_18
REMARK    3  A    between atoms: C_3  and  C_9
REMARK    4  A    between atoms: C_9  and  C_14
REMARK    5  A    between atoms: C_18  and  C_19
REMARK    6  A    between atoms: C_19  and  C_22
REMARK    7  A    between atoms: C_24  and  C_26
REMARK                            x       y       z     vdW  Elec       q    Type
REMARK                         _______ _______ _______ _____ _____    ______ ____
ROOT
ATOM      1  O   UNL     1      34.544 -14.944 -20.630  0.00  0.00    -0.291 OA
ATOM      2  C   UNL     1      34.088 -14.617 -21.745  0.00  0.00    +0.173 C 
ENDROOT
BRANCH   2   4
ATOM      3  C   UNL     1      31.842 -11.065 -22.203  0.00  0.00    -0.021 C 
ATOM      4  C   UNL     1      33.314 -13.396 -21.903  0.00  0.00    +0.035 C 
ATOM      5  C   UNL     1      32.822 -11.376 -23.133  0.00  0.00    -0.004 C 
ATOM      6  C   UNL     1      31.585 -11.899 -21.125  0.00  0.00    -0.004 C 
ATOM      7  C   UNL     1      33.563 -12.549 -22.983  0.00  0.00    +0.003 C 
ATOM      8  C   UNL     1      32.326 -13.072 -20.975  0.00  0.00    +0.003 C 
BRANCH   3   9
ATOM      9  C   UNL     1      31.040  -9.799 -22.366  0.00  0.00    +0.047 C 
BRANCH   9  14
ATOM     10  S   UNL     1      31.561  -7.388 -21.140  0.00  0.00    -0.048 S 
ATOM     11  O   UNL     1      31.808  -8.338 -24.873  0.00  0.00    -0.274 OA
ATOM     12  O   UNL     1      30.918  -4.945 -21.868  0.00  0.00    -0.263 OA
ATOM     13  N   UNL     1      31.344  -6.513 -23.530  0.00  0.00    -0.246 N 
ATOM     14  C   UNL     1      31.930  -8.573 -22.470  0.00  0.00    +0.137 C 
ATOM     15  C   UNL     1      31.694  -7.827 -23.764  0.00  0.00    +0.239 C 
ATOM     16  C   UNL     1      31.221  -6.069 -22.240  0.00  0.00    +0.279 C 
ATOM     17  H   UNL     1      31.184  -5.900 -24.283  0.00  0.00    +0.158 HD
ENDBRANCH   9  14
ENDBRANCH   3   9
ENDBRANCH   2   4
BRANCH   2  18
ATOM     18  C   UNL     1      34.355 -15.523 -22.963  0.00  0.00    +0.076 C 
BRANCH  18  19
ATOM     19  C   UNL     1      35.523 -16.491 -22.760  0.00  0.00    +0.066 C 
BRANCH  19  22
ATOM     20  O   UNL     1      34.210 -19.884 -22.448  0.00  0.00    -0.449 OA
ATOM     21  N   UNL     1      35.270 -18.358 -21.157  0.00  0.00    -0.373 NA
ATOM     22  C   UNL     1      35.061 -17.874 -22.407  0.00  0.00    +0.130 C 
ATOM     23  C   UNL     1      34.427 -18.769 -23.200  0.00  0.00    +0.216 C 
ATOM     24  C   UNL     1      34.742 -19.559 -21.238  0.00  0.00    +0.277 C 
ATOM     25  C   UNL     1      33.958 -18.802 -24.590  0.00  0.00    +0.055 C 
BRANCH  24  26
ATOM     26  C   UNL     1      34.646 -20.581 -20.233  0.00  0.00    +0.066 C 
ATOM     27  C   UNL     1      35.803 -21.116 -19.660  0.00  0.00    +0.006 C 
ATOM     28  C   UNL     1      33.393 -21.049 -19.824  0.00  0.00    +0.006 C 
ATOM     29  C   UNL     1      35.709 -22.110 -18.685  0.00  0.00    +0.000 C 
ATOM     30  C   UNL     1      33.300 -22.043 -18.849  0.00  0.00    +0.000 C 
ATOM     31  C   UNL     1      34.458 -22.573 -18.280  0.00  0.00    +0.000 C 
ENDBRANCH  24  26
ENDBRANCH  19  22
ENDBRANCH  18  19
ENDBRANCH   2  18
TORSDOF 7
ENDMDL
MODEL 5
REMARK VINA RESULT:     -11.9      1.551      2.055
REMARK  Name = 60870
REMARK  7 active torsions:
REMARK  status: ('A' for Active; 'I' for Inactive)
REMARK    1  A    between atoms: C_2  and  C_4
REMARK    2  A    between atoms: C_2  and  C_18
REMARK    3  A    between atoms: C_3  and  C_9
REMARK    4  A    between atoms: C_9  and  C_14
REMARK    5  A    between atoms: C_18  and  C_19
REMARK    6  A    between atoms: C_19  and  C_22
REMARK    7  A    between atoms: C_24  and  C_26
REMARK                            x       y       z     vdW  Elec       q    Type
REMARK                         _______ _______ _______ _____ _____    ______ ____
ROOT
ATOM      1  O   UNL     1      36.301 -22.375 -17.816  0.00  0.00    -0.291 OA
ATOM      2  C   UNL     1      35.425 -22.182 -18.683  0.00  0.00    +0.173 C 
ENDROOT
BRANCH   2   4
ATOM      3  C   UNL     1      35.792 -19.013 -21.458  0.00  0.00    -0.021 C 
ATOM      4  C   UNL     1      35.552 -21.092 -19.639  0.00  0.00    +0.035 C 
ATOM      5  C   UNL     1      36.888 -19.374 -20.688  0.00  0.00    -0.004 C 
ATOM      6  C   UNL     1      34.579 -19.673 -21.335  0.00  0.00    -0.004 C 
ATOM      7  C   UNL     1      36.767 -20.421 -19.773  0.00  0.00    +0.003 C 
ATOM      8  C   UNL     1      34.458 -20.719 -20.419  0.00  0.00    +0.003 C 
BRANCH   3   9
ATOM      9  C   UNL     1      35.923 -17.883 -22.448  0.00  0.00    +0.047 C 
BRANCH   9  14
ATOM     10  S   UNL     1      34.192 -17.473 -24.550  0.00  0.00    -0.048 S 
ATOM     11  O   UNL     1      34.844 -15.266 -21.452  0.00  0.00    -0.274 OA
ATOM     12  O   UNL     1      33.682 -15.289 -25.921  0.00  0.00    -0.263 OA
ATOM     13  N   UNL     1      34.237 -15.074 -23.675  0.00  0.00    -0.246 N 
ATOM     14  C   UNL     1      34.578 -17.265 -22.784  0.00  0.00    +0.137 C 
ATOM     15  C   UNL     1      34.578 -15.773 -22.536  0.00  0.00    +0.239 C 
ATOM     16  C   UNL     1      33.990 -15.758 -24.836  0.00  0.00    +0.279 C 
ATOM     17  H   UNL     1      34.172 -14.092 -23.654  0.00  0.00    +0.158 HD
ENDBRANCH   9  14
ENDBRANCH   3   9
ENDBRANCH   2   4
BRANCH   2  18
ATOM     18  C   UNL     1      34.201 -23.115 -18.738  0.00  0.00    +0.076 C 
BRANCH  18  19
ATOM     19  C   UNL     1      33.137 -22.788 -17.686  0.00  0.00    +0.066 C 
BRANCH  19  22
ATOM     20  O   UNL     1      33.300 -24.221 -14.331  0.00  0.00    -0.449 OA
ATOM     21  N   UNL     1      34.641 -23.998 -16.138  0.00  0.00    -0.373 NA
ATOM     22  C   UNL     1      33.426 -23.438 -16.365  0.00  0.00    +0.130 C 
ATOM     23  C   UNL     1      32.603 -23.558 -15.296  0.00  0.00    +0.216 C 
ATOM     24  C   UNL     1      34.509 -24.448 -14.911  0.00  0.00    +0.277 C 
ATOM     25  C   UNL     1      31.228 -23.162 -14.974  0.00  0.00    +0.055 C 
BRANCH  24  26
ATOM     26  C   UNL     1      35.459 -25.148 -14.091  0.00  0.00    +0.066 C 
ATOM     27  C   UNL     1      36.266 -26.146 -14.644  0.00  0.00    +0.006 C 
ATOM     28  C   UNL     1      35.579 -24.837 -12.733  0.00  0.00    +0.006 C 
ATOM     29  C   UNL     1      37.187 -26.827 -13.847  0.00  0.00    +0.000 C 
ATOM     30  C   UNL     1      36.500 -25.517 -11.936  0.00  0.00    +0.000 C 
ATOM     31  C   UNL     1      37.304 -26.513 -12.493  0.00  0.00    +0.000 C 
ENDBRANCH  24  26
ENDBRANCH  19  22
ENDBRANCH  18  19
ENDBRANCH   2  18
TORSDOF 7
ENDMDL
MODEL 6
REMARK VINA RESULT:     -11.8      5.512     13.121
REMARK  Name = 60870
REMARK  7 active torsions:
REMARK  status: ('A' for Active; 'I' for Inactive)
REMARK    1  A    between atoms: C_2  and  C_4
REMARK    2  A    between atoms: C_2  and  C_18
REMARK    3  A    between atoms: C_3  and  C_9
REMARK    4  A    between atoms: C_9  and  C_14
REMARK    5  A    between atoms: C_18  and  C_19
REMARK    6  A    between atoms: C_19  and  C_22
REMARK    7  A    between atoms: C_24  and  C_26
REMARK                            x       y       z     vdW  Elec       q    Type
REMARK                         _______ _______ _______ _____ _____    ______ ____
ROOT
ATOM      1  O   UNL     1      33.531 -15.357 -25.855  0.00  0.00    -0.291 OA
ATOM      2  C   UNL     1      33.922 -15.346 -24.669  0.00  0.00    +0.173 C 
ENDROOT
BRANCH   2   4
ATOM      3  C   UNL     1      34.894 -18.949 -22.680  0.00  0.00    -0.021 C 
ATOM      4  C   UNL     1      34.257 -16.586 -23.985  0.00  0.00    +0.035 C 
ATOM      5  C   UNL     1      34.200 -18.998 -23.880  0.00  0.00    -0.004 C 
ATOM      6  C   UNL     1      35.275 -17.738 -22.122  0.00  0.00    -0.004 C 
ATOM      7  C   UNL     1      33.880 -17.810 -24.537  0.00  0.00    +0.003 C 
ATOM      8  C   UNL     1      34.955 -16.549 -22.779  0.00  0.00    +0.003 C 
BRANCH   3   9
ATOM      9  C   UNL     1      35.241 -20.233 -21.971  0.00  0.00    +0.047 C 
BRANCH   9  14
ATOM     10  S   UNL     1      36.083 -21.185 -19.528  0.00  0.00    -0.048 S 
ATOM     11  O   UNL     1      32.518 -20.300 -20.711  0.00  0.00    -0.274 OA
ATOM     12  O   UNL     1      35.044 -23.042 -17.985  0.00  0.00    -0.263 OA
ATOM     13  N   UNL     1      33.605 -21.751 -19.276  0.00  0.00    -0.246 N 
ATOM     14  C   UNL     1      34.921 -20.167 -20.488  0.00  0.00    +0.137 C 
ATOM     15  C   UNL     1      33.546 -20.723 -20.194  0.00  0.00    +0.239 C 
ATOM     16  C   UNL     1      34.823 -22.153 -18.793  0.00  0.00    +0.279 C 
ATOM     17  H   UNL     1      32.781 -22.193 -18.971  0.00  0.00    +0.158 HD
ENDBRANCH   9  14
ENDBRANCH   3   9
ENDBRANCH   2   4
BRANCH   2  18
ATOM     18  C   UNL     1      34.051 -14.001 -23.931  0.00  0.00    +0.076 C 
BRANCH  18  19
ATOM     19  C   UNL     1      32.779 -13.591 -23.183  0.00  0.00    +0.066 C 
BRANCH  19  22
ATOM     20  O   UNL     1      32.398 -10.174 -21.952  0.00  0.00    -0.449 OA
ATOM     21  N   UNL     1      33.399 -11.247 -23.673  0.00  0.00    -0.373 NA
ATOM     22  C   UNL     1      32.753 -12.125 -22.865  0.00  0.00    +0.130 C 
ATOM     23  C   UNL     1      32.145 -11.507 -21.825  0.00  0.00    +0.216 C 
ATOM     24  C   UNL     1      33.152 -10.100 -23.081  0.00  0.00    +0.277 C 
ATOM     25  C   UNL     1      31.334 -11.926 -20.677  0.00  0.00    +0.055 C 
BRANCH  24  26
ATOM     26  C   UNL     1      33.567  -8.775 -23.454  0.00  0.00    +0.066 C 
ATOM     27  C   UNL     1      32.635  -7.859 -23.948  0.00  0.00    +0.006 C 
ATOM     28  C   UNL     1      34.907  -8.396 -23.326  0.00  0.00    +0.006 C 
ATOM     29  C   UNL     1      33.038  -6.573 -24.311  0.00  0.00    +0.000 C 
ATOM     30  C   UNL     1      35.310  -7.111 -23.689  0.00  0.00    +0.000 C 
ATOM     31  C   UNL     1      34.375  -6.200 -24.181  0.00  0.00    +0.000 C 
ENDBRANCH  24  26
ENDBRANCH  19  22
ENDBRANCH  18  19
ENDBRANCH   2  18
TORSDOF 7
ENDMDL
MODEL 7
REMARK VINA RESULT:     -11.8      3.229     10.251
REMARK  Name = 60870
REMARK  7 active torsions:
REMARK  status: ('A' for Active; 'I' for Inactive)
REMARK    1  A    between atoms: C_2  and  C_4
REMARK    2  A    between atoms: C_2  and  C_18
REMARK    3  A    between atoms: C_3  and  C_9
REMARK    4  A    between atoms: C_9  and  C_14
REMARK    5  A    between atoms: C_18  and  C_19
REMARK    6  A    between atoms: C_19  and  C_22
REMARK    7  A    between atoms: C_24  and  C_26
REMARK                            x       y       z     vdW  Elec       q    Type
REMARK                         _______ _______ _______ _____ _____    ______ ____
ROOT
ATOM      1  O   UNL     1      32.163 -23.550 -16.665  0.00  0.00    -0.291 OA
ATOM      2  C   UNL     1      33.378 -23.354 -16.869  0.00  0.00    +0.173 C 
ENDROOT
BRANCH   2   4
ATOM      3  C   UNL     1      36.161 -23.531 -13.691  0.00  0.00    -0.021 C 
ATOM      4  C   UNL     1      34.336 -23.416 -15.776  0.00  0.00    +0.035 C 
ATOM      5  C   UNL     1      34.893 -24.064 -13.516  0.00  0.00    -0.004 C 
ATOM      6  C   UNL     1      36.533 -22.943 -14.890  0.00  0.00    -0.004 C 
ATOM      7  C   UNL     1      33.974 -24.005 -14.565  0.00  0.00    +0.003 C 
ATOM      8  C   UNL     1      35.615 -22.884 -15.939  0.00  0.00    +0.003 C 
BRANCH   3   9
ATOM      9  C   UNL     1      37.154 -23.595 -12.558  0.00  0.00    +0.047 C 
BRANCH   9  14
ATOM     10  S   UNL     1      38.389 -25.460 -14.166  0.00  0.00    -0.048 S 
ATOM     11  O   UNL     1      36.381 -25.981 -10.910  0.00  0.00    -0.274 OA
ATOM     12  O   UNL     1      37.544 -27.809 -14.989  0.00  0.00    -0.263 OA
ATOM     13  N   UNL     1      36.860 -27.065 -12.896  0.00  0.00    -0.246 N 
ATOM     14  C   UNL     1      37.867 -24.934 -12.503  0.00  0.00    +0.137 C 
ATOM     15  C   UNL     1      36.954 -26.027 -11.993  0.00  0.00    +0.239 C 
ATOM     16  C   UNL     1      37.528 -26.983 -14.090  0.00  0.00    +0.279 C 
ATOM     17  H   UNL     1      36.317 -27.859 -12.685  0.00  0.00    +0.158 HD
ENDBRANCH   9  14
ENDBRANCH   3   9
ENDBRANCH   2   4
BRANCH   2  18
ATOM     18  C   UNL     1      33.861 -23.044 -18.299  0.00  0.00    +0.076 C 
BRANCH  18  19
ATOM     19  C   UNL     1      33.110 -21.885 -18.960  0.00  0.00    +0.066 C 
BRANCH  19  22
ATOM     20  O   UNL     1      35.719 -20.103 -20.789  0.00  0.00    -0.449 OA
ATOM     21  N   UNL     1      33.460 -20.218 -20.753  0.00  0.00    -0.373 NA
ATOM     22  C   UNL     1      34.003 -21.050 -19.829  0.00  0.00    +0.130 C 
ATOM     23  C   UNL     1      35.356 -21.000 -19.830  0.00  0.00    +0.216 C 
ATOM     24  C   UNL     1      34.529 -19.679 -21.295  0.00  0.00    +0.277 C 
ATOM     25  C   UNL     1      36.437 -21.651 -19.083  0.00  0.00    +0.055 C 
BRANCH  24  26
ATOM     26  C   UNL     1      34.624 -18.706 -22.348  0.00  0.00    +0.066 C 
ATOM     27  C   UNL     1      35.160 -17.440 -22.091  0.00  0.00    +0.006 C 
ATOM     28  C   UNL     1      34.179 -19.018 -23.636  0.00  0.00    +0.006 C 
ATOM     29  C   UNL     1      35.251 -16.495 -23.113  0.00  0.00    +0.000 C 
ATOM     30  C   UNL     1      34.269 -18.073 -24.658  0.00  0.00    +0.000 C 
ATOM     31  C   UNL     1      34.805 -16.811 -24.396  0.00  0.00    +0.000 C 
ENDBRANCH  24  26
ENDBRANCH  19  22
ENDBRANCH  18  19
ENDBRANCH   2  18
TORSDOF 7
ENDMDL
MODEL 8
REMARK VINA RESULT:     -11.7      3.675      9.887
REMARK  Name = 60870
REMARK  7 active torsions:
REMARK  status: ('A' for Active; 'I' for Inactive)
REMARK    1  A    between atoms: C_2  and  C_4
REMARK    2  A    between atoms: C_2  and  C_18
REMARK    3  A    between atoms: C_3  and  C_9
REMARK    4  A    between atoms: C_9  and  C_14
REMARK    5  A    between atoms: C_18  and  C_19
REMARK    6  A    between atoms: C_19  and  C_22
REMARK    7  A    between atoms: C_24  and  C_26
REMARK                            x       y       z     vdW  Elec       q    Type
REMARK                         _______ _______ _______ _____ _____    ______ ____
ROOT
ATOM      1  O   UNL     1      32.074 -24.121 -15.434  0.00  0.00    -0.291 OA
ATOM      2  C   UNL     1      33.090 -23.623 -15.959  0.00  0.00    +0.173 C 
ENDROOT
BRANCH   2   4
ATOM      3  C   UNL     1      36.928 -24.329 -14.332  0.00  0.00    -0.021 C 
ATOM      4  C   UNL     1      34.412 -23.866 -15.400  0.00  0.00    +0.035 C 
ATOM      5  C   UNL     1      36.173 -25.400 -14.786  0.00  0.00    -0.004 C 
ATOM      6  C   UNL     1      36.447 -23.030 -14.404  0.00  0.00    -0.004 C 
ATOM      7  C   UNL     1      34.907 -25.167 -15.323  0.00  0.00    +0.003 C 
ATOM      8  C   UNL     1      35.181 -22.797 -14.941  0.00  0.00    +0.003 C 
BRANCH   3   9
ATOM      9  C   UNL     1      38.297 -24.581 -13.753  0.00  0.00    +0.047 C 
BRANCH   9  14
ATOM     10  S   UNL     1      37.001 -26.111 -11.865  0.00  0.00    -0.048 S 
ATOM     11  O   UNL     1      38.409 -22.530 -11.565  0.00  0.00    -0.274 OA
ATOM     12  O   UNL     1      35.122 -25.450 -10.149  0.00  0.00    -0.263 OA
ATOM     13  N   UNL     1      36.699 -23.843 -10.729  0.00  0.00    -0.246 N 
ATOM     14  C   UNL     1      38.242 -24.839 -12.258  0.00  0.00    +0.137 C 
ATOM     15  C   UNL     1      37.818 -23.602 -11.498  0.00  0.00    +0.239 C 
ATOM     16  C   UNL     1      36.111 -25.081 -10.764  0.00  0.00    +0.279 C 
ATOM     17  H   UNL     1      36.325 -23.133 -10.160  0.00  0.00    +0.158 HD
ENDBRANCH   9  14
ENDBRANCH   3   9
ENDBRANCH   2   4
BRANCH   2  18
ATOM     18  C   UNL     1      32.936 -22.744 -17.214  0.00  0.00    +0.076 C 
BRANCH  18  19
ATOM     19  C   UNL     1      33.779 -23.219 -18.401  0.00  0.00    +0.066 C 
BRANCH  19  22
ATOM     20  O   UNL     1      36.040 -20.621 -19.614  0.00  0.00    -0.449 OA
ATOM     21  N   UNL     1      33.955 -21.384 -20.049  0.00  0.00    -0.373 NA
ATOM     22  C   UNL     1      34.533 -22.096 -19.049  0.00  0.00    +0.130 C 
ATOM     23  C   UNL     1      35.783 -21.658 -18.769  0.00  0.00    +0.216 C 
ATOM     24  C   UNL     1      34.898 -20.518 -20.347  0.00  0.00    +0.277 C 
ATOM     25  C   UNL     1      36.844 -22.029 -17.826  0.00  0.00    +0.055 C 
BRANCH  24  26
ATOM     26  C   UNL     1      34.899 -19.477 -21.338  0.00  0.00    +0.066 C 
ATOM     27  C   UNL     1      35.329 -18.190 -21.007  0.00  0.00    +0.006 C 
ATOM     28  C   UNL     1      34.466 -19.747 -22.640  0.00  0.00    +0.006 C 
ATOM     29  C   UNL     1      35.329 -17.179 -21.969  0.00  0.00    +0.000 C 
ATOM     30  C   UNL     1      34.466 -18.736 -23.602  0.00  0.00    +0.000 C 
ATOM     31  C   UNL     1      34.897 -17.453 -23.266  0.00  0.00    +0.000 C 
ENDBRANCH  24  26
ENDBRANCH  19  22
ENDBRANCH  18  19
ENDBRANCH   2  18
TORSDOF 7
ENDMDL
MODEL 9
REMARK VINA RESULT:     -11.7      1.820      3.889
REMARK  Name = 60870
REMARK  7 active torsions:
REMARK  status: ('A' for Active; 'I' for Inactive)
REMARK    1  A    between atoms: C_2  and  C_4
REMARK    2  A    between atoms: C_2  and  C_18
REMARK    3  A    between atoms: C_3  and  C_9
REMARK    4  A    between atoms: C_9  and  C_14
REMARK    5  A    between atoms: C_18  and  C_19
REMARK    6  A    between atoms: C_19  and  C_22
REMARK    7  A    between atoms: C_24  and  C_26
REMARK                            x       y       z     vdW  Elec       q    Type
REMARK                         _______ _______ _______ _____ _____    ______ ____
ROOT
ATOM      1  O   UNL     1      34.793 -22.843 -18.427  0.00  0.00    -0.291 OA
ATOM      2  C   UNL     1      35.782 -22.084 -18.493  0.00  0.00    +0.173 C 
ENDROOT
BRANCH   2   4
ATOM      3  C   UNL     1      35.969 -19.026 -21.406  0.00  0.00    -0.021 C 
ATOM      4  C   UNL     1      35.846 -21.031 -19.495  0.00  0.00    +0.035 C 
ATOM      5  C   UNL     1      34.773 -19.696 -21.198  0.00  0.00    -0.004 C 
ATOM      6  C   UNL     1      37.104 -19.340 -20.675  0.00  0.00    -0.004 C 
ATOM      7  C   UNL     1      34.711 -20.705 -20.236  0.00  0.00    +0.003 C 
ATOM      8  C   UNL     1      37.042 -20.349 -19.713  0.00  0.00    +0.003 C 
BRANCH   3   9
ATOM      9  C   UNL     1      36.035 -17.935 -22.445  0.00  0.00    +0.047 C 
BRANCH   9  14
ATOM     10  S   UNL     1      34.274 -17.567 -24.530  0.00  0.00    -0.048 S 
ATOM     11  O   UNL     1      34.852 -15.382 -21.401  0.00  0.00    -0.274 OA
ATOM     12  O   UNL     1      33.661 -15.386 -25.864  0.00  0.00    -0.263 OA
ATOM     13  N   UNL     1      34.222 -15.182 -23.617  0.00  0.00    -0.246 N 
ATOM     14  C   UNL     1      34.662 -17.370 -22.764  0.00  0.00    +0.137 C 
ATOM     15  C   UNL     1      34.600 -15.884 -22.492  0.00  0.00    +0.239 C 
ATOM     16  C   UNL     1      33.996 -15.858 -24.788  0.00  0.00    +0.279 C 
ATOM     17  H   UNL     1      34.115 -14.205 -23.580  0.00  0.00    +0.158 HD
ENDBRANCH   9  14
ENDBRANCH   3   9
ENDBRANCH   2   4
BRANCH   2  18
ATOM     18  C   UNL     1      36.942 -22.270 -17.497  0.00  0.00    +0.076 C 
BRANCH  18  19
ATOM     19  C   UNL     1      36.561 -21.954 -16.048  0.00  0.00    +0.066 C 
BRANCH  19  22
ATOM     20  O   UNL     1      34.851 -24.782 -14.497  0.00  0.00    -0.449 OA
ATOM     21  N   UNL     1      34.316 -22.803 -15.451  0.00  0.00    -0.373 NA
ATOM     22  C   UNL     1      35.659 -22.996 -15.457  0.00  0.00    +0.130 C 
ATOM     23  C   UNL     1      36.005 -24.175 -14.890  0.00  0.00    +0.216 C 
ATOM     24  C   UNL     1      33.885 -23.899 -14.868  0.00  0.00    +0.277 C 
ATOM     25  C   UNL     1      37.259 -24.890 -14.625  0.00  0.00    +0.055 C 
BRANCH  24  26
ATOM     26  C   UNL     1      32.539 -24.300 -14.564  0.00  0.00    +0.066 C 
ATOM     27  C   UNL     1      31.492 -23.964 -15.426  0.00  0.00    +0.006 C 
ATOM     28  C   UNL     1      32.269 -25.028 -13.401  0.00  0.00    +0.006 C 
ATOM     29  C   UNL     1      30.185 -24.353 -15.129  0.00  0.00    +0.000 C 
ATOM     30  C   UNL     1      30.962 -25.416 -13.104  0.00  0.00    +0.000 C 
ATOM     31  C   UNL     1      29.921 -25.078 -13.968  0.00  0.00    +0.000 C 
ENDBRANCH  24  26
ENDBRANCH  19  22
ENDBRANCH  18  19
ENDBRANCH   2  18
TORSDOF 7
ENDMDL
