MODEL 1
REMARK VINA RESULT:     -11.5      0.000      0.000
REMARK  Name = 24905142
REMARK  2 active torsions:
REMARK  status: ('A' for Active; 'I' for Inactive)
REMARK    1  A    between atoms: N_1  and  C_20
REMARK    2  A    between atoms: C_7  and  C_12
REMARK                            x       y       z     vdW  Elec       q    Type
REMARK                         _______ _______ _______ _____ _____    ______ ____
ROOT
ATOM      1  N   UNL     1      33.578 -23.058 -17.576  0.00  0.00    -0.200 N 
ATOM      2  N   UNL     1      34.717 -23.416 -16.955  0.00  0.00    -0.181 NA
ATOM      3  N   UNL     1      31.205 -22.875 -17.131  0.00  0.00    -0.232 NA
ATOM      4  N   UNL     1      30.663 -23.541 -14.848  0.00  0.00    -0.234 NA
ATOM      5  C   UNL     1      32.471 -23.161 -16.787  0.00  0.00    +0.137 C 
ATOM      6  C   UNL     1      32.918 -23.620 -15.561  0.00  0.00    +0.150 C 
ATOM      7  C   UNL     1      34.309 -23.758 -15.728  0.00  0.00    +0.091 C 
ATOM      8  C   UNL     1      31.961 -23.809 -14.570  0.00  0.00    +0.112 C 
ATOM      9  C   UNL     1      30.370 -23.097 -16.094  0.00  0.00    +0.252 C 
ATOM     10  N   UNL     1      32.316 -24.273 -13.291  0.00  0.00    -0.346 N 
ATOM     11  H   UNL     1      31.623 -24.401 -12.602  0.00  0.00    +0.143 HD
ATOM     12  H   UNL     1      33.258 -24.470 -13.081  0.00  0.00    +0.143 HD
ENDROOT
BRANCH   7  15
ATOM     13  N   UNL     1      36.586 -26.059 -13.875  0.00  0.00    -0.229 NA
ATOM     14  N   UNL     1      37.969 -25.439 -12.002  0.00  0.00    -0.297 N 
ATOM     15  C   UNL     1      35.265 -24.205 -14.757  0.00  0.00    +0.035 C 
ATOM     16  C   UNL     1      35.782 -23.320 -13.814  0.00  0.00    +0.006 C 
ATOM     17  C   UNL     1      35.692 -25.525 -14.739  0.00  0.00    +0.102 C 
ATOM     18  C   UNL     1      36.715 -23.817 -12.890  0.00  0.00    +0.033 C 
ATOM     19  C   UNL     1      37.055 -25.164 -12.985  0.00  0.00    +0.132 C 
ATOM     20  C   UNL     1      37.460 -23.281 -11.807  0.00  0.00    +0.019 C 
ATOM     21  C   UNL     1      38.223 -24.301 -11.280  0.00  0.00    +0.063 C 
ATOM     22  H   UNL     1      38.380 -26.318 -11.839  0.00  0.00    +0.154 HD
ENDBRANCH   7  15
BRANCH   1  23
ATOM     23  C   UNL     1      33.627 -22.598 -19.016  0.00  0.00    +0.098 C 
ATOM     24  C   UNL     1      35.051 -22.391 -19.574  0.00  0.00    +0.022 C 
ATOM     25  C   UNL     1      32.898 -21.260 -19.233  0.00  0.00    +0.022 C 
ATOM     26  C   UNL     1      35.141 -20.915 -19.944  0.00  0.00    +0.002 C 
ATOM     27  C   UNL     1      33.713 -20.544 -20.299  0.00  0.00    +0.002 C 
ENDBRANCH   1  23
TORSDOF 2
ENDMDL
MODEL 2
REMARK VINA RESULT:     -10.2      1.988      6.636
REMARK  Name = 24905142
REMARK  2 active torsions:
REMARK  status: ('A' for Active; 'I' for Inactive)
REMARK    1  A    between atoms: N_1  and  C_20
REMARK    2  A    between atoms: C_7  and  C_12
REMARK                            x       y       z     vdW  Elec       q    Type
REMARK                         _______ _______ _______ _____ _____    ______ ____
ROOT
ATOM      1  N   UNL     1      35.915 -23.466 -14.414  0.00  0.00    -0.200 N 
ATOM      2  N   UNL     1      34.686 -23.847 -14.018  0.00  0.00    -0.181 NA
ATOM      3  N   UNL     1      37.045 -22.611 -16.377  0.00  0.00    -0.232 NA
ATOM      4  N   UNL     1      35.512 -22.337 -18.253  0.00  0.00    -0.234 NA
ATOM      5  C   UNL     1      35.965 -23.046 -15.710  0.00  0.00    +0.137 C 
ATOM      6  C   UNL     1      34.675 -23.160 -16.198  0.00  0.00    +0.150 C 
ATOM      7  C   UNL     1      33.935 -23.658 -15.109  0.00  0.00    +0.091 C 
ATOM      8  C   UNL     1      34.464 -22.786 -17.520  0.00  0.00    +0.112 C 
ATOM      9  C   UNL     1      36.720 -22.278 -17.644  0.00  0.00    +0.252 C 
ATOM     10  N   UNL     1      33.189 -22.865 -18.107  0.00  0.00    -0.346 N 
ATOM     11  H   UNL     1      33.060 -22.595 -19.046  0.00  0.00    +0.143 HD
ATOM     12  H   UNL     1      32.423 -23.189 -17.580  0.00  0.00    +0.143 HD
ENDROOT
BRANCH   7  15
ATOM     13  N   UNL     1      30.772 -25.440 -14.251  0.00  0.00    -0.229 NA
ATOM     14  N   UNL     1      28.569 -24.794 -14.981  0.00  0.00    -0.297 N 
ATOM     15  C   UNL     1      32.534 -23.962 -15.071  0.00  0.00    +0.035 C 
ATOM     16  C   UNL     1      31.618 -23.160 -15.749  0.00  0.00    +0.006 C 
ATOM     17  C   UNL     1      32.065 -25.057 -14.359  0.00  0.00    +0.102 C 
ATOM     18  C   UNL     1      30.260 -23.509 -15.673  0.00  0.00    +0.033 C 
ATOM     19  C   UNL     1      29.928 -24.634 -14.924  0.00  0.00    +0.132 C 
ATOM     20  C   UNL     1      29.045 -22.988 -16.191  0.00  0.00    +0.019 C 
ATOM     21  C   UNL     1      28.021 -23.798 -15.748  0.00  0.00    +0.063 C 
ATOM     22  H   UNL     1      28.063 -25.512 -14.538  0.00  0.00    +0.154 HD
ENDBRANCH   7  15
BRANCH   1  23
ATOM     23  C   UNL     1      37.068 -23.535 -13.437  0.00  0.00    +0.098 C 
ATOM     24  C   UNL     1      37.962 -24.784 -13.590  0.00  0.00    +0.022 C 
ATOM     25  C   UNL     1      36.600 -23.536 -11.971  0.00  0.00    +0.022 C 
ATOM     26  C   UNL     1      37.852 -25.536 -12.268  0.00  0.00    +0.002 C 
ATOM     27  C   UNL     1      37.587 -24.441 -11.250  0.00  0.00    +0.002 C 
ENDBRANCH   1  23
TORSDOF 2
ENDMDL
MODEL 3
REMARK VINA RESULT:     -10.2      1.625      6.219
REMARK  Name = 24905142
REMARK  2 active torsions:
REMARK  status: ('A' for Active; 'I' for Inactive)
REMARK    1  A    between atoms: N_1  and  C_20
REMARK    2  A    between atoms: C_7  and  C_12
REMARK                            x       y       z     vdW  Elec       q    Type
REMARK                         _______ _______ _______ _____ _____    ______ ____
ROOT
ATOM      1  N   UNL     1      34.942 -24.702 -14.724  0.00  0.00    -0.200 N 
ATOM      2  N   UNL     1      35.295 -24.037 -15.839  0.00  0.00    -0.181 NA
ATOM      3  N   UNL     1      32.966 -25.205 -13.417  0.00  0.00    -0.232 NA
ATOM      4  N   UNL     1      30.963 -24.213 -14.391  0.00  0.00    -0.234 NA
ATOM      5  C   UNL     1      33.607 -24.642 -14.453  0.00  0.00    +0.137 C 
ATOM      6  C   UNL     1      33.046 -23.882 -15.465  0.00  0.00    +0.150 C 
ATOM      7  C   UNL     1      34.137 -23.539 -16.286  0.00  0.00    +0.091 C 
ATOM      8  C   UNL     1      31.673 -23.673 -15.411  0.00  0.00    +0.112 C 
ATOM      9  C   UNL     1      31.645 -24.935 -13.470  0.00  0.00    +0.252 C 
ATOM     10  N   UNL     1      31.010 -22.915 -16.393  0.00  0.00    -0.346 N 
ATOM     11  H   UNL     1      30.036 -22.778 -16.337  0.00  0.00    +0.143 HD
ATOM     12  H   UNL     1      31.519 -22.520 -17.138  0.00  0.00    +0.143 HD
ENDROOT
BRANCH   7  15
ATOM     13  N   UNL     1      32.780 -21.798 -19.293  0.00  0.00    -0.229 NA
ATOM     14  N   UNL     1      34.082 -20.524 -20.870  0.00  0.00    -0.297 N 
ATOM     15  C   UNL     1      34.114 -22.752 -17.485  0.00  0.00    +0.035 C 
ATOM     16  C   UNL     1      35.290 -22.205 -17.994  0.00  0.00    +0.006 C 
ATOM     17  C   UNL     1      32.923 -22.522 -18.159  0.00  0.00    +0.102 C 
ATOM     18  C   UNL     1      35.203 -21.444 -19.170  0.00  0.00    +0.033 C 
ATOM     19  C   UNL     1      33.943 -21.292 -19.743  0.00  0.00    +0.132 C 
ATOM     20  C   UNL     1      36.117 -20.735 -19.994  0.00  0.00    +0.019 C 
ATOM     21  C   UNL     1      35.399 -20.179 -21.031  0.00  0.00    +0.063 C 
ATOM     22  H   UNL     1      33.348 -20.260 -21.469  0.00  0.00    +0.154 HD
ENDBRANCH   7  15
BRANCH   1  23
ATOM     23  C   UNL     1      36.000 -25.418 -13.915  0.00  0.00    +0.098 C 
ATOM     24  C   UNL     1      37.197 -24.535 -13.503  0.00  0.00    +0.022 C 
ATOM     25  C   UNL     1      36.607 -26.616 -14.667  0.00  0.00    +0.022 C 
ATOM     26  C   UNL     1      38.421 -25.164 -14.159  0.00  0.00    +0.002 C 
ATOM     27  C   UNL     1      38.068 -26.638 -14.244  0.00  0.00    +0.002 C 
ENDBRANCH   1  23
TORSDOF 2
ENDMDL
MODEL 4
REMARK VINA RESULT:     -10.0      2.471      6.237
REMARK  Name = 24905142
REMARK  2 active torsions:
REMARK  status: ('A' for Active; 'I' for Inactive)
REMARK    1  A    between atoms: N_1  and  C_20
REMARK    2  A    between atoms: C_7  and  C_12
REMARK                            x       y       z     vdW  Elec       q    Type
REMARK                         _______ _______ _______ _____ _____    ______ ____
ROOT
ATOM      1  N   UNL     1      30.468 -23.699 -15.787  0.00  0.00    -0.200 N 
ATOM      2  N   UNL     1      30.951 -23.072 -16.875  0.00  0.00    -0.181 NA
ATOM      3  N   UNL     1      31.259 -24.819 -13.791  0.00  0.00    -0.232 NA
ATOM      4  N   UNL     1      33.695 -24.840 -13.674  0.00  0.00    -0.234 NA
ATOM      5  C   UNL     1      31.438 -24.159 -14.946  0.00  0.00    +0.137 C 
ATOM      6  C   UNL     1      32.643 -23.807 -15.526  0.00  0.00    +0.150 C 
ATOM      7  C   UNL     1      32.277 -23.141 -16.710  0.00  0.00    +0.091 C 
ATOM      8  C   UNL     1      33.801 -24.171 -14.847  0.00  0.00    +0.112 C 
ATOM      9  C   UNL     1      32.448 -25.118 -13.225  0.00  0.00    +0.252 C 
ATOM     10  N   UNL     1      35.075 -23.858 -15.355  0.00  0.00    -0.346 N 
ATOM     11  H   UNL     1      35.883 -24.125 -14.859  0.00  0.00    +0.143 HD
ATOM     12  H   UNL     1      35.160 -23.371 -16.207  0.00  0.00    +0.143 HD
ENDROOT
BRANCH   7  15
ATOM     13  N   UNL     1      35.414 -22.401 -18.591  0.00  0.00    -0.229 NA
ATOM     14  N   UNL     1      35.584 -20.925 -20.486  0.00  0.00    -0.297 N 
ATOM     15  C   UNL     1      33.148 -22.566 -17.694  0.00  0.00    +0.035 C 
ATOM     16  C   UNL     1      32.651 -21.680 -18.648  0.00  0.00    +0.006 C 
ATOM     17  C   UNL     1      34.500 -22.879 -17.714  0.00  0.00    +0.102 C 
ATOM     18  C   UNL     1      33.553 -21.151 -19.585  0.00  0.00    +0.033 C 
ATOM     19  C   UNL     1      34.883 -21.551 -19.490  0.00  0.00    +0.132 C 
ATOM     20  C   UNL     1      33.471 -20.253 -20.682  0.00  0.00    +0.019 C 
ATOM     21  C   UNL     1      34.736 -20.134 -21.218  0.00  0.00    +0.063 C 
ATOM     22  H   UNL     1      36.549 -21.028 -20.652  0.00  0.00    +0.154 HD
ENDBRANCH   7  15
BRANCH   1  23
ATOM     23  C   UNL     1      28.972 -23.830 -15.605  0.00  0.00    +0.098 C 
ATOM     24  C   UNL     1      28.191 -24.105 -16.907  0.00  0.00    +0.022 C 
ATOM     25  C   UNL     1      28.338 -22.566 -14.998  0.00  0.00    +0.022 C 
ATOM     26  C   UNL     1      27.252 -22.917 -17.085  0.00  0.00    +0.002 C 
ATOM     27  C   UNL     1      26.975 -22.459 -15.664  0.00  0.00    +0.002 C 
ENDBRANCH   1  23
TORSDOF 2
ENDMDL
MODEL 5
REMARK VINA RESULT:     -10.0     10.762     14.337
REMARK  Name = 24905142
REMARK  2 active torsions:
REMARK  status: ('A' for Active; 'I' for Inactive)
REMARK    1  A    between atoms: N_1  and  C_20
REMARK    2  A    between atoms: C_7  and  C_12
REMARK                            x       y       z     vdW  Elec       q    Type
REMARK                         _______ _______ _______ _____ _____    ______ ____
ROOT
ATOM      1  N   UNL     1      33.433  -9.818 -23.253  0.00  0.00    -0.200 N 
ATOM      2  N   UNL     1      33.888 -10.925 -23.869  0.00  0.00    -0.181 NA
ATOM      3  N   UNL     1      32.022  -9.184 -21.389  0.00  0.00    -0.232 NA
ATOM      4  N   UNL     1      31.120 -11.134 -20.237  0.00  0.00    -0.234 NA
ATOM      5  C   UNL     1      32.620 -10.080 -22.190  0.00  0.00    +0.137 C 
ATOM      6  C   UNL     1      32.537 -11.459 -22.104  0.00  0.00    +0.150 C 
ATOM      7  C   UNL     1      33.339 -11.921 -23.164  0.00  0.00    +0.091 C 
ATOM      8  C   UNL     1      31.753 -11.982 -21.082  0.00  0.00    +0.112 C 
ATOM      9  C   UNL     1      31.291  -9.806 -20.440  0.00  0.00    +0.252 C 
ATOM     10  N   UNL     1      31.607 -13.371 -20.912  0.00  0.00    -0.346 N 
ATOM     11  H   UNL     1      31.046 -13.721 -20.181  0.00  0.00    +0.143 HD
ATOM     12  H   UNL     1      32.065 -13.993 -21.522  0.00  0.00    +0.143 HD
ENDROOT
BRANCH   7  15
ATOM     13  N   UNL     1      33.354 -15.045 -25.203  0.00  0.00    -0.229 NA
ATOM     14  N   UNL     1      34.358 -17.133 -24.543  0.00  0.00    -0.297 N 
ATOM     15  C   UNL     1      33.601 -13.282 -23.532  0.00  0.00    +0.035 C 
ATOM     16  C   UNL     1      34.299 -14.126 -22.670  0.00  0.00    +0.006 C 
ATOM     17  C   UNL     1      33.166 -13.784 -24.750  0.00  0.00    +0.102 C 
ATOM     18  C   UNL     1      34.525 -15.447 -23.087  0.00  0.00    +0.033 C 
ATOM     19  C   UNL     1      34.033 -15.819 -24.335  0.00  0.00    +0.132 C 
ATOM     20  C   UNL     1      35.166 -16.591 -22.541  0.00  0.00    +0.019 C 
ATOM     21  C   UNL     1      35.048 -17.612 -23.459  0.00  0.00    +0.063 C 
ATOM     22  H   UNL     1      34.132 -17.652 -25.348  0.00  0.00    +0.154 HD
ENDBRANCH   7  15
BRANCH   1  23
ATOM     23  C   UNL     1      33.842  -8.456 -23.768  0.00  0.00    +0.098 C 
ATOM     24  C   UNL     1      34.440  -7.520 -22.696  0.00  0.00    +0.022 C 
ATOM     25  C   UNL     1      32.666  -7.681 -24.388  0.00  0.00    +0.022 C 
ATOM     26  C   UNL     1      33.503  -6.319 -22.627  0.00  0.00    +0.002 C 
ATOM     27  C   UNL     1      32.929  -6.227 -24.029  0.00  0.00    +0.002 C 
ENDBRANCH   1  23
TORSDOF 2
ENDMDL
MODEL 6
REMARK VINA RESULT:     -10.0      1.289      3.871
REMARK  Name = 24905142
REMARK  2 active torsions:
REMARK  status: ('A' for Active; 'I' for Inactive)
REMARK    1  A    between atoms: N_1  and  C_20
REMARK    2  A    between atoms: C_7  and  C_12
REMARK                            x       y       z     vdW  Elec       q    Type
REMARK                         _______ _______ _______ _____ _____    ______ ____
ROOT
ATOM      1  N   UNL     1      32.251 -23.727 -16.348  0.00  0.00    -0.200 N 
ATOM      2  N   UNL     1      32.975 -24.207 -15.319  0.00  0.00    -0.181 NA
ATOM      3  N   UNL     1      32.552 -22.474 -18.398  0.00  0.00    -0.232 NA
ATOM      4  N   UNL     1      34.888 -21.868 -18.749  0.00  0.00    -0.234 NA
ATOM      5  C   UNL     1      32.996 -23.058 -17.273  0.00  0.00    +0.137 C 
ATOM      6  C   UNL     1      34.301 -23.102 -16.817  0.00  0.00    +0.150 C 
ATOM      7  C   UNL     1      34.223 -23.823 -15.611  0.00  0.00    +0.091 C 
ATOM      8  C   UNL     1      35.266 -22.478 -17.600  0.00  0.00    +0.112 C 
ATOM      9  C   UNL     1      33.573 -21.904 -19.072  0.00  0.00    +0.252 C 
ATOM     10  N   UNL     1      36.620 -22.469 -17.222  0.00  0.00    -0.346 N 
ATOM     11  H   UNL     1      37.288 -22.021 -17.791  0.00  0.00    +0.143 HD
ATOM     12  H   UNL     1      36.902 -22.911 -16.388  0.00  0.00    +0.143 HD
ENDROOT
BRANCH   7  15
ATOM     13  N   UNL     1      37.028 -25.768 -14.106  0.00  0.00    -0.229 NA
ATOM     14  N   UNL     1      38.331 -25.083 -12.199  0.00  0.00    -0.297 N 
ATOM     15  C   UNL     1      35.298 -24.159 -14.723  0.00  0.00    +0.035 C 
ATOM     16  C   UNL     1      35.655 -23.299 -13.686  0.00  0.00    +0.006 C 
ATOM     17  C   UNL     1      36.000 -25.346 -14.878  0.00  0.00    +0.102 C 
ATOM     18  C   UNL     1      36.716 -23.684 -12.851  0.00  0.00    +0.033 C 
ATOM     19  C   UNL     1      37.334 -24.902 -13.121  0.00  0.00    +0.132 C 
ATOM     20  C   UNL     1      37.378 -23.128 -11.724  0.00  0.00    +0.019 C 
ATOM     21  C   UNL     1      38.367 -24.011 -11.345  0.00  0.00    +0.063 C 
ATOM     22  H   UNL     1      38.929 -25.863 -12.156  0.00  0.00    +0.154 HD
ENDBRANCH   7  15
BRANCH   1  23
ATOM     23  C   UNL     1      30.758 -23.963 -16.382  0.00  0.00    +0.098 C 
ATOM     24  C   UNL     1      29.905 -22.696 -16.158  0.00  0.00    +0.022 C 
ATOM     25  C   UNL     1      30.294 -24.970 -15.315  0.00  0.00    +0.022 C 
ATOM     26  C   UNL     1      29.103 -22.957 -14.888  0.00  0.00    +0.002 C 
ATOM     27  C   UNL     1      28.930 -24.465 -14.873  0.00  0.00    +0.002 C 
ENDBRANCH   1  23
TORSDOF 2
ENDMDL
MODEL 7
REMARK VINA RESULT:     -10.0      1.747      6.396
REMARK  Name = 24905142
REMARK  2 active torsions:
REMARK  status: ('A' for Active; 'I' for Inactive)
REMARK    1  A    between atoms: N_1  and  C_20
REMARK    2  A    between atoms: C_7  and  C_12
REMARK                            x       y       z     vdW  Elec       q    Type
REMARK                         _______ _______ _______ _____ _____    ______ ____
ROOT
ATOM      1  N   UNL     1      35.210 -24.433 -14.903  0.00  0.00    -0.200 N 
ATOM      2  N   UNL     1      35.758 -23.730 -15.912  0.00  0.00    -0.181 NA
ATOM      3  N   UNL     1      33.032 -24.997 -14.009  0.00  0.00    -0.232 NA
ATOM      4  N   UNL     1      31.233 -23.998 -15.319  0.00  0.00    -0.234 NA
ATOM      5  C   UNL     1      33.847 -24.396 -14.890  0.00  0.00    +0.137 C 
ATOM      6  C   UNL     1      33.476 -23.612 -15.968  0.00  0.00    +0.150 C 
ATOM      7  C   UNL     1      34.697 -23.232 -16.557  0.00  0.00    +0.091 C 
ATOM      8  C   UNL     1      32.114 -23.420 -16.170  0.00  0.00    +0.112 C 
ATOM      9  C   UNL     1      31.740 -24.740 -14.305  0.00  0.00    +0.252 C 
ATOM     10  N   UNL     1      31.637 -22.640 -17.239  0.00  0.00    -0.346 N 
ATOM     11  H   UNL     1      30.668 -22.516 -17.365  0.00  0.00    +0.143 HD
ATOM     12  H   UNL     1      32.272 -22.217 -17.862  0.00  0.00    +0.143 HD
ENDROOT
BRANCH   7  15
ATOM     13  N   UNL     1      36.461 -21.216 -19.153  0.00  0.00    -0.229 NA
ATOM     14  N   UNL     1      35.400 -20.085 -20.996  0.00  0.00    -0.297 N 
ATOM     15  C   UNL     1      34.889 -22.409 -17.716  0.00  0.00    +0.035 C 
ATOM     16  C   UNL     1      33.801 -22.016 -18.492  0.00  0.00    +0.006 C 
ATOM     17  C   UNL     1      36.159 -21.990 -18.085  0.00  0.00    +0.102 C 
ATOM     18  C   UNL     1      34.053 -21.211 -19.615  0.00  0.00    +0.033 C 
ATOM     19  C   UNL     1      35.377 -20.864 -19.869  0.00  0.00    +0.132 C 
ATOM     20  C   UNL     1      33.268 -20.612 -20.635  0.00  0.00    +0.019 C 
ATOM     21  C   UNL     1      34.123 -19.927 -21.471  0.00  0.00    +0.063 C 
ATOM     22  H   UNL     1      36.209 -19.701 -21.403  0.00  0.00    +0.154 HD
ENDBRANCH   7  15
BRANCH   1  23
ATOM     23  C   UNL     1      36.108 -25.161 -13.928  0.00  0.00    +0.098 C 
ATOM     24  C   UNL     1      37.358 -24.368 -13.494  0.00  0.00    +0.022 C 
ATOM     25  C   UNL     1      36.635 -26.492 -14.493  0.00  0.00    +0.022 C 
ATOM     26  C   UNL     1      38.554 -25.190 -13.962  0.00  0.00    +0.002 C 
ATOM     27  C   UNL     1      38.043 -26.619 -13.931  0.00  0.00    +0.002 C 
ENDBRANCH   1  23
TORSDOF 2
ENDMDL
MODEL 8
REMARK VINA RESULT:      -9.8      1.665      6.609
REMARK  Name = 24905142
REMARK  2 active torsions:
REMARK  status: ('A' for Active; 'I' for Inactive)
REMARK    1  A    between atoms: N_1  and  C_20
REMARK    2  A    between atoms: C_7  and  C_12
REMARK                            x       y       z     vdW  Elec       q    Type
REMARK                         _______ _______ _______ _____ _____    ______ ____
ROOT
ATOM      1  N   UNL     1      35.813 -24.039 -15.309  0.00  0.00    -0.200 N 
ATOM      2  N   UNL     1      35.971 -23.330 -16.442  0.00  0.00    -0.181 NA
ATOM      3  N   UNL     1      34.047 -24.871 -13.877  0.00  0.00    -0.232 NA
ATOM      4  N   UNL     1      31.841 -24.255 -14.714  0.00  0.00    -0.234 NA
ATOM      5  C   UNL     1      34.509 -24.212 -14.951  0.00  0.00    +0.137 C 
ATOM      6  C   UNL     1      33.759 -23.571 -15.921  0.00  0.00    +0.150 C 
ATOM      7  C   UNL     1      34.716 -23.048 -16.810  0.00  0.00    +0.091 C 
ATOM      8  C   UNL     1      32.376 -23.607 -15.777  0.00  0.00    +0.112 C 
ATOM      9  C   UNL     1      32.698 -24.839 -13.842  0.00  0.00    +0.252 C 
ATOM     10  N   UNL     1      31.528 -22.985 -16.711  0.00  0.00    -0.346 N 
ATOM     11  H   UNL     1      30.551 -23.022 -16.590  0.00  0.00    +0.143 HD
ATOM     12  H   UNL     1      31.910 -22.513 -17.486  0.00  0.00    +0.143 HD
ENDROOT
BRANCH   7  15
ATOM     13  N   UNL     1      32.852 -21.485 -19.639  0.00  0.00    -0.229 NA
ATOM     14  N   UNL     1      33.833 -20.129 -21.372  0.00  0.00    -0.297 N 
ATOM     15  C   UNL     1      34.477 -22.287 -18.002  0.00  0.00    +0.035 C 
ATOM     16  C   UNL     1      35.529 -21.648 -18.656  0.00  0.00    +0.006 C 
ATOM     17  C   UNL     1      33.197 -22.173 -18.526  0.00  0.00    +0.102 C 
ATOM     18  C   UNL     1      35.230 -20.918 -19.818  0.00  0.00    +0.033 C 
ATOM     19  C   UNL     1      33.902 -20.887 -20.232  0.00  0.00    +0.132 C 
ATOM     20  C   UNL     1      35.971 -20.146 -20.753  0.00  0.00    +0.019 C 
ATOM     21  C   UNL     1      35.084 -19.673 -21.697  0.00  0.00    +0.063 C 
ATOM     22  H   UNL     1      33.011 -19.940 -21.878  0.00  0.00    +0.154 HD
ENDBRANCH   7  15
BRANCH   1  23
ATOM     23  C   UNL     1      37.032 -24.550 -14.574  0.00  0.00    +0.098 C 
ATOM     24  C   UNL     1      37.164 -26.088 -14.547  0.00  0.00    +0.022 C 
ATOM     25  C   UNL     1      37.063 -24.104 -13.101  0.00  0.00    +0.022 C 
ATOM     26  C   UNL     1      37.109 -26.482 -13.075  0.00  0.00    +0.002 C 
ATOM     27  C   UNL     1      37.684 -25.276 -12.356  0.00  0.00    +0.002 C 
ENDBRANCH   1  23
TORSDOF 2
ENDMDL
MODEL 9
REMARK VINA RESULT:      -9.7     12.833     16.760
REMARK  Name = 24905142
REMARK  2 active torsions:
REMARK  status: ('A' for Active; 'I' for Inactive)
REMARK    1  A    between atoms: N_1  and  C_20
REMARK    2  A    between atoms: C_7  and  C_12
REMARK                            x       y       z     vdW  Elec       q    Type
REMARK                         _______ _______ _______ _____ _____    ______ ____
ROOT
ATOM      1  N   UNL     1      32.277 -11.483 -21.820  0.00  0.00    -0.200 N 
ATOM      2  N   UNL     1      32.519 -10.698 -22.886  0.00  0.00    -0.181 NA
ATOM      3  N   UNL     1      31.768 -11.294 -19.460  0.00  0.00    -0.232 NA
ATOM      4  N   UNL     1      31.647  -8.965 -18.747  0.00  0.00    -0.234 NA
ATOM      5  C   UNL     1      32.038 -10.785 -20.673  0.00  0.00    +0.137 C 
ATOM      6  C   UNL     1      32.131  -9.448 -21.013  0.00  0.00    +0.150 C 
ATOM      7  C   UNL     1      32.429  -9.459 -22.389  0.00  0.00    +0.091 C 
ATOM      8  C   UNL     1      31.924  -8.521 -19.997  0.00  0.00    +0.112 C 
ATOM      9  C   UNL     1      31.587 -10.305 -18.559  0.00  0.00    +0.252 C 
ATOM     10  N   UNL     1      31.996  -7.138 -20.244  0.00  0.00    -0.346 N 
ATOM     11  H   UNL     1      31.846  -6.498 -19.509  0.00  0.00    +0.143 HD
ATOM     12  H   UNL     1      32.196  -6.809 -21.149  0.00  0.00    +0.143 HD
ENDROOT
BRANCH   7  15
ATOM     13  N   UNL     1      31.624  -6.634 -24.687  0.00  0.00    -0.229 NA
ATOM     14  N   UNL     1      33.236  -5.138 -25.672  0.00  0.00    -0.297 N 
ATOM     15  C   UNL     1      32.632  -8.329 -23.248  0.00  0.00    +0.035 C 
ATOM     16  C   UNL     1      33.916  -7.841 -23.484  0.00  0.00    +0.006 C 
ATOM     17  C   UNL     1      31.556  -7.703 -23.860  0.00  0.00    +0.102 C 
ATOM     18  C   UNL     1      34.048  -6.732 -24.335  0.00  0.00    +0.033 C 
ATOM     19  C   UNL     1      32.884  -6.201 -24.882  0.00  0.00    +0.132 C 
ATOM     20  C   UNL     1      35.127  -5.948 -24.824  0.00  0.00    +0.019 C 
ATOM     21  C   UNL     1      34.597  -4.975 -25.643  0.00  0.00    +0.063 C 
ATOM     22  H   UNL     1      32.607  -4.578 -26.181  0.00  0.00    +0.154 HD
ENDBRANCH   7  15
BRANCH   1  23
ATOM     23  C   UNL     1      32.291 -12.986 -21.982  0.00  0.00    +0.098 C 
ATOM     24  C   UNL     1      32.981 -13.748 -20.831  0.00  0.00    +0.022 C 
ATOM     25  C   UNL     1      33.010 -13.435 -23.267  0.00  0.00    +0.022 C 
ATOM     26  C   UNL     1      34.160 -14.477 -21.465  0.00  0.00    +0.002 C 
ATOM     27  C   UNL     1      33.702 -14.735 -22.889  0.00  0.00    +0.002 C 
ENDBRANCH   1  23
TORSDOF 2
ENDMDL
