MODEL 1
REMARK VINA RESULT:     -11.7      0.000      0.000
REMARK  Name = 23650961
REMARK  5 active torsions:
REMARK  status: ('A' for Active; 'I' for Inactive)
REMARK    1  A    between atoms: N_1  and  C_23
REMARK    2  A    between atoms: C_5  and  C_12
REMARK    3  A    between atoms: C_23  and  C_24
REMARK    4  A    between atoms: C_24  and  C_25
REMARK    5  A    between atoms: C_25  and  C_27
REMARK                            x       y       z     vdW  Elec       q    Type
REMARK                         _______ _______ _______ _____ _____    ______ ____
ROOT
ATOM      1  N   UNL     1      34.956 -17.613 -23.544  0.00  0.00    -0.268 N 
ATOM      2  N   UNL     1      34.049 -15.706 -24.566  0.00  0.00    -0.342 NA
ATOM      3  N   UNL     1      34.926 -15.610 -22.324  0.00  0.00    -0.170 NA
ATOM      4  C   UNL     1      34.634 -16.267 -23.476  0.00  0.00    +0.144 C 
ATOM      5  C   UNL     1      34.001 -13.634 -23.341  0.00  0.00    +0.061 C 
ATOM      6  C   UNL     1      33.747 -14.395 -24.465  0.00  0.00    +0.123 C 
ATOM      7  C   UNL     1      34.598 -14.301 -22.291  0.00  0.00    +0.113 C 
ATOM      8  C   UNL     1      33.104 -13.789 -25.670  0.00  0.00    +0.067 C 
ATOM      9  H   UNL     1      34.749 -18.098 -24.375  0.00  0.00    +0.159 HD
ENDROOT
BRANCH   5  12
ATOM     10  N   UNL     1      32.462 -11.803 -22.780  0.00  0.00    -0.314 N 
ATOM     11  N   UNL     1      34.459 -11.231 -23.568  0.00  0.00    -0.315 N 
ATOM     12  C   UNL     1      33.675 -12.236 -23.243  0.00  0.00    +0.171 C 
ATOM     13  C   UNL     1      32.465 -10.432 -22.809  0.00  0.00    +0.059 C 
ATOM     14  C   UNL     1      33.722 -10.099 -23.304  0.00  0.00    +0.055 C 
ATOM     15  C   UNL     1      34.060  -8.744 -23.462  0.00  0.00    -0.008 C 
ATOM     16  C   UNL     1      31.505  -9.483 -22.454  0.00  0.00    +0.011 C 
ATOM     17  C   UNL     1      31.857  -8.139 -22.618  0.00  0.00    -0.021 C 
ATOM     18  C   UNL     1      33.110  -7.774 -23.113  0.00  0.00    -0.007 C 
ATOM     19  C   UNL     1      35.387  -8.303 -23.987  0.00  0.00    +0.032 C 
ATOM     20  C   UNL     1      30.872  -7.076 -22.256  0.00  0.00    +0.031 C 
ATOM     21  H   UNL     1      31.719 -12.374 -22.480  0.00  0.00    +0.149 HD
ATOM     22  H   UNL     1      35.377 -11.277 -23.924  0.00  0.00    +0.149 HD
ENDBRANCH   5  12
BRANCH   1  23
ATOM     23  C   UNL     1      35.580 -18.344 -22.467  0.00  0.00    +0.098 C 
BRANCH  23  24
ATOM     24  C   UNL     1      34.644 -19.424 -21.932  0.00  0.00    +0.022 C 
BRANCH  24  25
ATOM     25  C   UNL     1      35.394 -20.531 -21.190  0.00  0.00    +0.002 C 
BRANCH  25  27
ATOM     26  N   UNL     1      33.079 -22.750 -18.297  0.00  0.00    +0.385 N 
ATOM     27  C   UNL     1      34.698 -20.888 -19.879  0.00  0.00    -0.004 C 
ATOM     28  C   UNL     1      35.273 -22.177 -19.284  0.00  0.00    -0.023 C 
ATOM     29  C   UNL     1      33.187 -21.041 -20.082  0.00  0.00    -0.023 C 
ATOM     30  C   UNL     1      34.514 -22.597 -18.025  0.00  0.00    -0.077 C 
ATOM     31  C   UNL     1      32.497 -21.497 -18.796  0.00  0.00    -0.077 C 
ATOM     32  C   UNL     1      32.374 -23.200 -17.097  0.00  0.00    -0.101 C 
ATOM     33  H   UNL     1      32.971 -23.458 -19.024  0.00  0.00    -0.080 HD
ENDBRANCH  25  27
ENDBRANCH  24  25
ENDBRANCH  23  24
ENDBRANCH   1  23
TORSDOF 5
ENDMDL
MODEL 2
REMARK VINA RESULT:     -11.3      3.887     13.000
REMARK  Name = 23650961
REMARK  5 active torsions:
REMARK  status: ('A' for Active; 'I' for Inactive)
REMARK    1  A    between atoms: N_1  and  C_23
REMARK    2  A    between atoms: C_5  and  C_12
REMARK    3  A    between atoms: C_23  and  C_24
REMARK    4  A    between atoms: C_24  and  C_25
REMARK    5  A    between atoms: C_25  and  C_27
REMARK                            x       y       z     vdW  Elec       q    Type
REMARK                         _______ _______ _______ _____ _____    ______ ____
ROOT
ATOM      1  N   UNL     1      35.008 -20.776 -20.556  0.00  0.00    -0.268 N 
ATOM      2  N   UNL     1      34.294 -22.186 -18.821  0.00  0.00    -0.342 NA
ATOM      3  N   UNL     1      36.446 -21.104 -18.731  0.00  0.00    -0.170 NA
ATOM      4  C   UNL     1      35.257 -21.374 -19.330  0.00  0.00    +0.144 C 
ATOM      5  C   UNL     1      35.746 -22.546 -16.934  0.00  0.00    +0.061 C 
ATOM      6  C   UNL     1      34.570 -22.752 -17.628  0.00  0.00    +0.123 C 
ATOM      7  C   UNL     1      36.656 -21.704 -17.541  0.00  0.00    +0.113 C 
ATOM      8  C   UNL     1      33.503 -23.642 -17.078  0.00  0.00    +0.067 C 
ATOM      9  H   UNL     1      34.149 -20.964 -20.998  0.00  0.00    +0.159 HD
ENDROOT
BRANCH   5  12
ATOM     10  N   UNL     1      35.213 -22.989 -14.577  0.00  0.00    -0.314 N 
ATOM     11  N   UNL     1      37.064 -23.921 -15.382  0.00  0.00    -0.315 N 
ATOM     12  C   UNL     1      36.030 -23.155 -15.663  0.00  0.00    +0.171 C 
ATOM     13  C   UNL     1      35.755 -23.691 -13.531  0.00  0.00    +0.059 C 
ATOM     14  C   UNL     1      36.909 -24.264 -14.058  0.00  0.00    +0.055 C 
ATOM     15  C   UNL     1      37.716 -25.064 -13.232  0.00  0.00    -0.008 C 
ATOM     16  C   UNL     1      35.347 -23.869 -12.208  0.00  0.00    +0.011 C 
ATOM     17  C   UNL     1      36.162 -24.668 -11.400  0.00  0.00    -0.021 C 
ATOM     18  C   UNL     1      37.325 -25.256 -11.900  0.00  0.00    -0.007 C 
ATOM     19  C   UNL     1      38.969 -25.714 -13.720  0.00  0.00    +0.032 C 
ATOM     20  C   UNL     1      35.777 -24.898  -9.975  0.00  0.00    +0.031 C 
ATOM     21  H   UNL     1      34.384 -22.460 -14.552  0.00  0.00    +0.149 HD
ATOM     22  H   UNL     1      37.792 -24.190 -15.989  0.00  0.00    +0.149 HD
ENDBRANCH   5  12
BRANCH   1  23
ATOM     23  C   UNL     1      35.935 -19.891 -21.219  0.00  0.00    +0.098 C 
BRANCH  23  24
ATOM     24  C   UNL     1      35.255 -18.579 -21.599  0.00  0.00    +0.022 C 
BRANCH  24  25
ATOM     25  C   UNL     1      34.939 -18.495 -23.092  0.00  0.00    +0.002 C 
BRANCH  25  27
ATOM     26  N   UNL     1      33.519 -14.487 -23.852  0.00  0.00    +0.385 N 
ATOM     27  C   UNL     1      34.921 -17.046 -23.573  0.00  0.00    -0.004 C 
ATOM     28  C   UNL     1      34.733 -16.079 -22.400  0.00  0.00    -0.023 C 
ATOM     29  C   UNL     1      33.815 -16.823 -24.610  0.00  0.00    -0.023 C 
ATOM     30  C   UNL     1      34.614 -14.633 -22.883  0.00  0.00    -0.077 C 
ATOM     31  C   UNL     1      33.727 -15.352 -25.021  0.00  0.00    -0.077 C 
ATOM     32  C   UNL     1      33.384 -13.091 -24.267  0.00  0.00    -0.101 C 
ATOM     33  H   UNL     1      32.654 -14.778 -23.396  0.00  0.00    -0.080 HD
ENDBRANCH  25  27
ENDBRANCH  24  25
ENDBRANCH  23  24
ENDBRANCH   1  23
TORSDOF 5
ENDMDL
MODEL 3
REMARK VINA RESULT:     -11.3      2.701     11.671
REMARK  Name = 23650961
REMARK  5 active torsions:
REMARK  status: ('A' for Active; 'I' for Inactive)
REMARK    1  A    between atoms: N_1  and  C_23
REMARK    2  A    between atoms: C_5  and  C_12
REMARK    3  A    between atoms: C_23  and  C_24
REMARK    4  A    between atoms: C_24  and  C_25
REMARK    5  A    between atoms: C_25  and  C_27
REMARK                            x       y       z     vdW  Elec       q    Type
REMARK                         _______ _______ _______ _____ _____    ______ ____
ROOT
ATOM      1  N   UNL     1      35.208 -19.561 -22.277  0.00  0.00    -0.268 N 
ATOM      2  N   UNL     1      35.756 -20.764 -20.338  0.00  0.00    -0.342 NA
ATOM      3  N   UNL     1      33.458 -20.440 -20.985  0.00  0.00    -0.170 NA
ATOM      4  C   UNL     1      34.794 -20.278 -21.165  0.00  0.00    +0.144 C 
ATOM      5  C   UNL     1      33.984 -21.678 -18.989  0.00  0.00    +0.061 C 
ATOM      6  C   UNL     1      35.318 -21.456 -19.266  0.00  0.00    +0.123 C 
ATOM      7  C   UNL     1      33.089 -21.141 -19.892  0.00  0.00    +0.113 C 
ATOM      8  C   UNL     1      36.385 -21.986 -18.364  0.00  0.00    +0.067 C 
ATOM      9  H   UNL     1      36.174 -19.439 -22.416  0.00  0.00    +0.159 HD
ENDROOT
BRANCH   5  12
ATOM     10  N   UNL     1      32.198 -22.636 -17.600  0.00  0.00    -0.314 N 
ATOM     11  N   UNL     1      34.287 -22.957 -16.913  0.00  0.00    -0.315 N 
ATOM     12  C   UNL     1      33.527 -22.416 -17.842  0.00  0.00    +0.171 C 
ATOM     13  C   UNL     1      32.095 -23.364 -16.442  0.00  0.00    +0.059 C 
ATOM     14  C   UNL     1      33.412 -23.552 -16.033  0.00  0.00    +0.055 C 
ATOM     15  C   UNL     1      33.668 -24.274 -14.855  0.00  0.00    -0.008 C 
ATOM     16  C   UNL     1      30.996 -23.859 -15.738  0.00  0.00    +0.011 C 
ATOM     17  C   UNL     1      31.268 -24.575 -14.568  0.00  0.00    -0.021 C 
ATOM     18  C   UNL     1      32.578 -24.780 -14.132  0.00  0.00    -0.007 C 
ATOM     19  C   UNL     1      35.051 -24.520 -14.347  0.00  0.00    +0.032 C 
ATOM     20  C   UNL     1      30.134 -25.132 -13.772  0.00  0.00    +0.031 C 
ATOM     21  H   UNL     1      31.449 -22.327 -18.157  0.00  0.00    +0.149 HD
ATOM     22  H   UNL     1      35.271 -22.940 -16.859  0.00  0.00    +0.149 HD
ENDBRANCH   5  12
BRANCH   1  23
ATOM     23  C   UNL     1      34.303 -18.986 -23.242  0.00  0.00    +0.098 C 
BRANCH  23  24
ATOM     24  C   UNL     1      34.733 -17.569 -23.611  0.00  0.00    +0.022 C 
BRANCH  24  25
ATOM     25  C   UNL     1      35.320 -16.809 -22.421  0.00  0.00    +0.002 C 
BRANCH  25  27
ATOM     26  N   UNL     1      32.492 -13.569 -22.016  0.00  0.00    +0.385 N 
ATOM     27  C   UNL     1      34.767 -15.387 -22.346  0.00  0.00    -0.004 C 
ATOM     28  C   UNL     1      34.118 -15.121 -20.984  0.00  0.00    -0.023 C 
ATOM     29  C   UNL     1      33.751 -15.132 -23.463  0.00  0.00    -0.023 C 
ATOM     30  C   UNL     1      33.473 -13.735 -20.936  0.00  0.00    -0.077 C 
ATOM     31  C   UNL     1      33.118 -13.745 -23.333  0.00  0.00    -0.077 C 
ATOM     32  C   UNL     1      31.847 -12.260 -21.927  0.00  0.00    -0.101 C 
ATOM     33  H   UNL     1      31.779 -14.292 -21.908  0.00  0.00    -0.080 HD
ENDBRANCH  25  27
ENDBRANCH  24  25
ENDBRANCH  23  24
ENDBRANCH   1  23
TORSDOF 5
ENDMDL
MODEL 4
REMARK VINA RESULT:     -11.2      1.083      1.843
REMARK  Name = 23650961
REMARK  5 active torsions:
REMARK  status: ('A' for Active; 'I' for Inactive)
REMARK    1  A    between atoms: N_1  and  C_23
REMARK    2  A    between atoms: C_5  and  C_12
REMARK    3  A    between atoms: C_23  and  C_24
REMARK    4  A    between atoms: C_24  and  C_25
REMARK    5  A    between atoms: C_25  and  C_27
REMARK                            x       y       z     vdW  Elec       q    Type
REMARK                         _______ _______ _______ _____ _____    ______ ____
ROOT
ATOM      1  N   UNL     1      35.453 -17.910 -23.464  0.00  0.00    -0.268 N 
ATOM      2  N   UNL     1      34.311 -16.074 -24.377  0.00  0.00    -0.342 NA
ATOM      3  N   UNL     1      34.994 -16.082 -22.067  0.00  0.00    -0.170 NA
ATOM      4  C   UNL     1      34.902 -16.649 -23.297  0.00  0.00    +0.144 C 
ATOM      5  C   UNL     1      33.822 -14.183 -22.971  0.00  0.00    +0.061 C 
ATOM      6  C   UNL     1      33.784 -14.849 -24.180  0.00  0.00    +0.123 C 
ATOM      7  C   UNL     1      34.446 -14.855 -21.939  0.00  0.00    +0.113 C 
ATOM      8  C   UNL     1      33.137 -14.227 -25.375  0.00  0.00    +0.067 C 
ATOM      9  H   UNL     1      35.392 -18.329 -24.353  0.00  0.00    +0.159 HD
ENDROOT
BRANCH   5  12
ATOM     10  N   UNL     1      33.432 -11.861 -23.672  0.00  0.00    -0.314 N 
ATOM     11  N   UNL     1      32.526 -12.494 -21.744  0.00  0.00    -0.315 N 
ATOM     12  C   UNL     1      33.257 -12.876 -22.770  0.00  0.00    +0.171 C 
ATOM     13  C   UNL     1      32.775 -10.756 -23.196  0.00  0.00    +0.059 C 
ATOM     14  C   UNL     1      32.217 -11.176 -21.992  0.00  0.00    +0.055 C 
ATOM     15  C   UNL     1      31.461 -10.267 -21.232  0.00  0.00    -0.008 C 
ATOM     16  C   UNL     1      32.624  -9.462 -23.700  0.00  0.00    +0.011 C 
ATOM     17  C   UNL     1      31.870  -8.571 -22.931  0.00  0.00    -0.021 C 
ATOM     18  C   UNL     1      31.298  -8.963 -21.719  0.00  0.00    -0.007 C 
ATOM     19  C   UNL     1      30.831 -10.639 -19.930  0.00  0.00    +0.032 C 
ATOM     20  C   UNL     1      31.671  -7.173 -23.418  0.00  0.00    +0.031 C 
ATOM     21  H   UNL     1      33.941 -11.914 -24.513  0.00  0.00    +0.149 HD
ATOM     22  H   UNL     1      32.259 -13.035 -20.965  0.00  0.00    +0.149 HD
ENDBRANCH   5  12
BRANCH   1  23
ATOM     23  C   UNL     1      36.112 -18.642 -22.410  0.00  0.00    +0.098 C 
BRANCH  23  24
ATOM     24  C   UNL     1      35.430 -19.987 -22.176  0.00  0.00    +0.022 C 
BRANCH  24  25
ATOM     25  C   UNL     1      34.069 -19.841 -21.496  0.00  0.00    +0.002 C 
BRANCH  25  27
ATOM     26  N   UNL     1      33.992 -22.843 -18.390  0.00  0.00    +0.385 N 
ATOM     27  C   UNL     1      34.078 -20.465 -20.102  0.00  0.00    -0.004 C 
ATOM     28  C   UNL     1      35.284 -21.392 -19.922  0.00  0.00    -0.023 C 
ATOM     29  C   UNL     1      32.784 -21.241 -19.837  0.00  0.00    -0.023 C 
ATOM     30  C   UNL     1      35.247 -22.098 -18.566  0.00  0.00    -0.077 C 
ATOM     31  C   UNL     1      32.829 -21.951 -18.483  0.00  0.00    -0.077 C 
ATOM     32  C   UNL     1      33.993 -23.553 -17.112  0.00  0.00    -0.101 C 
ATOM     33  H   UNL     1      33.925 -23.527 -19.145  0.00  0.00    -0.080 HD
ENDBRANCH  25  27
ENDBRANCH  24  25
ENDBRANCH  23  24
ENDBRANCH   1  23
TORSDOF 5
ENDMDL
MODEL 5
REMARK VINA RESULT:     -11.2      1.509      2.523
REMARK  Name = 23650961
REMARK  5 active torsions:
REMARK  status: ('A' for Active; 'I' for Inactive)
REMARK    1  A    between atoms: N_1  and  C_23
REMARK    2  A    between atoms: C_5  and  C_12
REMARK    3  A    between atoms: C_23  and  C_24
REMARK    4  A    between atoms: C_24  and  C_25
REMARK    5  A    between atoms: C_25  and  C_27
REMARK                            x       y       z     vdW  Elec       q    Type
REMARK                         _______ _______ _______ _____ _____    ______ ____
ROOT
ATOM      1  N   UNL     1      35.753 -18.839 -22.212  0.00  0.00    -0.268 N 
ATOM      2  N   UNL     1      34.773 -17.151 -23.514  0.00  0.00    -0.342 NA
ATOM      3  N   UNL     1      35.247 -16.794 -21.179  0.00  0.00    -0.170 NA
ATOM      4  C   UNL     1      35.242 -17.554 -22.304  0.00  0.00    +0.144 C 
ATOM      5  C   UNL     1      34.240 -15.041 -22.486  0.00  0.00    +0.061 C 
ATOM      6  C   UNL     1      34.282 -15.896 -23.569  0.00  0.00    +0.123 C 
ATOM      7  C   UNL     1      34.740 -15.549 -21.304  0.00  0.00    +0.113 C 
ATOM      8  C   UNL     1      33.770 -15.464 -24.905  0.00  0.00    +0.067 C 
ATOM      9  H   UNL     1      35.754 -19.397 -23.022  0.00  0.00    +0.159 HD
ENDROOT
BRANCH   5  12
ATOM     10  N   UNL     1      34.299 -12.729 -23.317  0.00  0.00    -0.314 N 
ATOM     11  N   UNL     1      32.646 -13.256 -21.926  0.00  0.00    -0.315 N 
ATOM     12  C   UNL     1      33.713 -13.704 -22.554  0.00  0.00    +0.171 C 
ATOM     13  C   UNL     1      33.564 -11.581 -23.169  0.00  0.00    +0.059 C 
ATOM     14  C   UNL     1      32.538 -11.935 -22.297  0.00  0.00    +0.055 C 
ATOM     15  C   UNL     1      31.586 -10.969 -21.930  0.00  0.00    -0.008 C 
ATOM     16  C   UNL     1      33.703 -10.301 -23.708  0.00  0.00    +0.011 C 
ATOM     17  C   UNL     1      32.748  -9.351 -23.331  0.00  0.00    -0.021 C 
ATOM     18  C   UNL     1      31.708  -9.676 -22.459  0.00  0.00    -0.007 C 
ATOM     19  C   UNL     1      30.457 -11.267 -20.999  0.00  0.00    +0.032 C 
ATOM     20  C   UNL     1      32.843  -7.963 -23.876  0.00  0.00    +0.031 C 
ATOM     21  H   UNL     1      35.104 -12.834 -23.871  0.00  0.00    +0.149 HD
ATOM     22  H   UNL     1      32.053 -13.758 -21.320  0.00  0.00    +0.149 HD
ENDBRANCH   5  12
BRANCH   1  23
ATOM     23  C   UNL     1      36.285 -19.404 -20.995  0.00  0.00    +0.098 C 
BRANCH  23  24
ATOM     24  C   UNL     1      35.391 -20.531 -20.485  0.00  0.00    +0.022 C 
BRANCH  24  25
ATOM     25  C   UNL     1      36.152 -21.533 -19.617  0.00  0.00    +0.002 C 
BRANCH  25  27
ATOM     26  N   UNL     1      34.535 -23.702 -16.249  0.00  0.00    +0.385 N 
ATOM     27  C   UNL     1      35.407 -21.812 -18.313  0.00  0.00    -0.004 C 
ATOM     28  C   UNL     1      36.358 -22.356 -17.242  0.00  0.00    -0.023 C 
ATOM     29  C   UNL     1      34.259 -22.801 -18.536  0.00  0.00    -0.023 C 
ATOM     30  C   UNL     1      35.603 -22.733 -15.967  0.00  0.00    -0.077 C 
ATOM     31  C   UNL     1      33.572 -23.163 -17.218  0.00  0.00    -0.077 C 
ATOM     32  C   UNL     1      33.856 -24.092 -15.014  0.00  0.00    -0.101 C 
ATOM     33  H   UNL     1      34.965 -24.532 -16.662  0.00  0.00    -0.080 HD
ENDBRANCH  25  27
ENDBRANCH  24  25
ENDBRANCH  23  24
ENDBRANCH   1  23
TORSDOF 5
ENDMDL
MODEL 6
REMARK VINA RESULT:     -10.8      2.059      3.739
REMARK  Name = 23650961
REMARK  5 active torsions:
REMARK  status: ('A' for Active; 'I' for Inactive)
REMARK    1  A    between atoms: N_1  and  C_23
REMARK    2  A    between atoms: C_5  and  C_12
REMARK    3  A    between atoms: C_23  and  C_24
REMARK    4  A    between atoms: C_24  and  C_25
REMARK    5  A    between atoms: C_25  and  C_27
REMARK                            x       y       z     vdW  Elec       q    Type
REMARK                         _______ _______ _______ _____ _____    ______ ____
ROOT
ATOM      1  N   UNL     1      33.457 -14.671 -22.811  0.00  0.00    -0.268 N 
ATOM      2  N   UNL     1      32.159 -12.817 -22.189  0.00  0.00    -0.342 NA
ATOM      3  N   UNL     1      34.188 -12.537 -23.459  0.00  0.00    -0.170 NA
ATOM      4  C   UNL     1      33.262 -13.298 -22.820  0.00  0.00    +0.144 C 
ATOM      5  C   UNL     1      32.881 -10.613 -22.837  0.00  0.00    +0.061 C 
ATOM      6  C   UNL     1      32.001 -11.478 -22.217  0.00  0.00    +0.123 C 
ATOM      7  C   UNL     1      33.968 -11.206 -23.448  0.00  0.00    +0.113 C 
ATOM      8  C   UNL     1      30.784 -10.960 -21.520  0.00  0.00    +0.067 C 
ATOM      9  H   UNL     1      32.791 -15.230 -22.351  0.00  0.00    +0.159 HD
ENDROOT
BRANCH   5  12
ATOM     10  N   UNL     1      32.394  -8.473 -21.733  0.00  0.00    -0.314 N 
ATOM     11  N   UNL     1      32.810  -8.407 -23.915  0.00  0.00    -0.315 N 
ATOM     12  C   UNL     1      32.703  -9.186 -22.860  0.00  0.00    +0.171 C 
ATOM     13  C   UNL     1      32.294  -7.152 -22.085  0.00  0.00    +0.059 C 
ATOM     14  C   UNL     1      32.559  -7.136 -23.451  0.00  0.00    +0.055 C 
ATOM     15  C   UNL     1      32.537  -5.911 -24.139  0.00  0.00    -0.008 C 
ATOM     16  C   UNL     1      32.005  -6.002 -21.347  0.00  0.00    +0.011 C 
ATOM     17  C   UNL     1      31.987  -4.792 -22.047  0.00  0.00    -0.021 C 
ATOM     18  C   UNL     1      32.248  -4.744 -23.418  0.00  0.00    -0.007 C 
ATOM     19  C   UNL     1      32.809  -5.808 -25.604  0.00  0.00    +0.032 C 
ATOM     20  C   UNL     1      31.685  -3.527 -21.313  0.00  0.00    +0.031 C 
ATOM     21  H   UNL     1      32.265  -8.843 -20.830  0.00  0.00    +0.149 HD
ATOM     22  H   UNL     1      33.024  -8.675 -24.839  0.00  0.00    +0.149 HD
ENDBRANCH   5  12
BRANCH   1  23
ATOM     23  C   UNL     1      34.580 -15.325 -23.438  0.00  0.00    +0.098 C 
BRANCH  23  24
ATOM     24  C   UNL     1      35.063 -16.500 -22.593  0.00  0.00    +0.022 C 
BRANCH  24  25
ATOM     25  C   UNL     1      34.880 -17.843 -23.301  0.00  0.00    +0.002 C 
BRANCH  25  27
ATOM     26  N   UNL     1      35.927 -20.230 -19.857  0.00  0.00    +0.385 N 
ATOM     27  C   UNL     1      35.451 -18.989 -22.470  0.00  0.00    -0.004 C 
ATOM     28  C   UNL     1      34.345 -19.703 -21.685  0.00  0.00    -0.023 C 
ATOM     29  C   UNL     1      36.528 -18.486 -21.504  0.00  0.00    -0.023 C 
ATOM     30  C   UNL     1      34.921 -20.787 -20.772  0.00  0.00    -0.077 C 
ATOM     31  C   UNL     1      37.033 -19.610 -20.599  0.00  0.00    -0.077 C 
ATOM     32  C   UNL     1      36.431 -21.267 -18.957  0.00  0.00    -0.101 C 
ATOM     33  H   UNL     1      35.476 -19.504 -19.299  0.00  0.00    -0.080 HD
ENDBRANCH  25  27
ENDBRANCH  24  25
ENDBRANCH  23  24
ENDBRANCH   1  23
TORSDOF 5
ENDMDL
MODEL 7
REMARK VINA RESULT:     -10.7      2.180     11.923
REMARK  Name = 23650961
REMARK  5 active torsions:
REMARK  status: ('A' for Active; 'I' for Inactive)
REMARK    1  A    between atoms: N_1  and  C_23
REMARK    2  A    between atoms: C_5  and  C_12
REMARK    3  A    between atoms: C_23  and  C_24
REMARK    4  A    between atoms: C_24  and  C_25
REMARK    5  A    between atoms: C_25  and  C_27
REMARK                            x       y       z     vdW  Elec       q    Type
REMARK                         _______ _______ _______ _____ _____    ______ ____
ROOT
ATOM      1  N   UNL     1      35.438 -19.757 -22.097  0.00  0.00    -0.268 N 
ATOM      2  N   UNL     1      35.645 -20.994 -20.113  0.00  0.00    -0.342 NA
ATOM      3  N   UNL     1      33.477 -20.412 -20.988  0.00  0.00    -0.170 NA
ATOM      4  C   UNL     1      34.834 -20.408 -21.033  0.00  0.00    +0.144 C 
ATOM      5  C   UNL     1      33.653 -21.681 -18.950  0.00  0.00    +0.061 C 
ATOM      6  C   UNL     1      35.025 -21.618 -19.091  0.00  0.00    +0.123 C 
ATOM      7  C   UNL     1      32.922 -21.053 -19.939  0.00  0.00    +0.113 C 
ATOM      8  C   UNL     1      35.927 -22.258 -18.087  0.00  0.00    +0.067 C 
ATOM      9  H   UNL     1      36.422 -19.750 -22.138  0.00  0.00    +0.159 HD
ENDROOT
BRANCH   5  12
ATOM     10  N   UNL     1      33.702 -23.033 -16.899  0.00  0.00    -0.314 N 
ATOM     11  N   UNL     1      31.704 -22.388 -17.631  0.00  0.00    -0.315 N 
ATOM     12  C   UNL     1      33.001 -22.348 -17.855  0.00  0.00    +0.171 C 
ATOM     13  C   UNL     1      32.800 -23.548 -16.004  0.00  0.00    +0.059 C 
ATOM     14  C   UNL     1      31.560 -23.131 -16.481  0.00  0.00    +0.055 C 
ATOM     15  C   UNL     1      30.398 -23.496 -15.781  0.00  0.00    -0.008 C 
ATOM     16  C   UNL     1      32.957 -24.319 -14.851  0.00  0.00    +0.011 C 
ATOM     17  C   UNL     1      31.790 -24.674 -14.166  0.00  0.00    -0.021 C 
ATOM     18  C   UNL     1      30.532 -24.271 -14.621  0.00  0.00    -0.007 C 
ATOM     19  C   UNL     1      29.031 -23.090 -16.227  0.00  0.00    +0.032 C 
ATOM     20  C   UNL     1      31.892 -25.497 -12.925  0.00  0.00    +0.031 C 
ATOM     21  H   UNL     1      34.679 -23.139 -16.862  0.00  0.00    +0.149 HD
ATOM     22  H   UNL     1      30.990 -21.975 -18.169  0.00  0.00    +0.149 HD
ENDBRANCH   5  12
BRANCH   1  23
ATOM     23  C   UNL     1      34.708 -19.091 -23.148  0.00  0.00    +0.098 C 
BRANCH  23  24
ATOM     24  C   UNL     1      35.132 -17.629 -23.260  0.00  0.00    +0.022 C 
BRANCH  24  25
ATOM     25  C   UNL     1      34.483 -16.923 -24.451  0.00  0.00    +0.002 C 
BRANCH  25  27
ATOM     26  N   UNL     1      33.916 -12.698 -23.753  0.00  0.00    +0.385 N 
ATOM     27  C   UNL     1      33.821 -15.615 -24.023  0.00  0.00    -0.004 C 
ATOM     28  C   UNL     1      33.642 -14.672 -25.218  0.00  0.00    -0.023 C 
ATOM     29  C   UNL     1      34.636 -14.916 -22.930  0.00  0.00    -0.023 C 
ATOM     30  C   UNL     1      33.072 -13.322 -24.781  0.00  0.00    -0.077 C 
ATOM     31  C   UNL     1      34.033 -13.558 -22.569  0.00  0.00    -0.077 C 
ATOM     32  C   UNL     1      33.387 -11.385 -23.383  0.00  0.00    -0.101 C 
ATOM     33  H   UNL     1      34.850 -12.574 -24.146  0.00  0.00    -0.080 HD
ENDBRANCH  25  27
ENDBRANCH  24  25
ENDBRANCH  23  24
ENDBRANCH   1  23
TORSDOF 5
ENDMDL
MODEL 8
REMARK VINA RESULT:     -10.7      3.229     12.518
REMARK  Name = 23650961
REMARK  5 active torsions:
REMARK  status: ('A' for Active; 'I' for Inactive)
REMARK    1  A    between atoms: N_1  and  C_23
REMARK    2  A    between atoms: C_5  and  C_12
REMARK    3  A    between atoms: C_23  and  C_24
REMARK    4  A    between atoms: C_24  and  C_25
REMARK    5  A    between atoms: C_25  and  C_27
REMARK                            x       y       z     vdW  Elec       q    Type
REMARK                         _______ _______ _______ _____ _____    ______ ____
ROOT
ATOM      1  N   UNL     1      34.614 -19.988 -21.462  0.00  0.00    -0.268 N 
ATOM      2  N   UNL     1      33.860 -21.377 -19.727  0.00  0.00    -0.342 NA
ATOM      3  N   UNL     1      36.147 -20.621 -19.802  0.00  0.00    -0.170 NA
ATOM      4  C   UNL     1      34.882 -20.684 -20.293  0.00  0.00    +0.144 C 
ATOM      5  C   UNL     1      35.407 -22.046 -18.008  0.00  0.00    +0.061 C 
ATOM      6  C   UNL     1      34.156 -22.043 -18.592  0.00  0.00    +0.123 C 
ATOM      7  C   UNL     1      36.373 -21.311 -18.664  0.00  0.00    +0.113 C 
ATOM      8  C   UNL     1      33.024 -22.801 -17.979  0.00  0.00    +0.067 C 
ATOM      9  H   UNL     1      33.700 -20.027 -21.825  0.00  0.00    +0.159 HD
ENDROOT
BRANCH   5  12
ATOM     10  N   UNL     1      36.999 -23.039 -16.422  0.00  0.00    -0.314 N 
ATOM     11  N   UNL     1      34.840 -23.220 -15.926  0.00  0.00    -0.315 N 
ATOM     12  C   UNL     1      35.712 -22.761 -16.797  0.00  0.00    +0.171 C 
ATOM     13  C   UNL     1      36.952 -23.723 -15.234  0.00  0.00    +0.059 C 
ATOM     14  C   UNL     1      35.595 -23.823 -14.945  0.00  0.00    +0.055 C 
ATOM     15  C   UNL     1      35.190 -24.480 -13.770  0.00  0.00    -0.008 C 
ATOM     16  C   UNL     1      37.952 -24.246 -14.411  0.00  0.00    +0.011 C 
ATOM     17  C   UNL     1      37.532 -24.898 -13.247  0.00  0.00    -0.021 C 
ATOM     18  C   UNL     1      36.177 -25.014 -12.930  0.00  0.00    -0.007 C 
ATOM     19  C   UNL     1      33.754 -24.631 -13.388  0.00  0.00    +0.032 C 
ATOM     20  C   UNL     1      38.554 -25.478 -12.326  0.00  0.00    +0.031 C 
ATOM     21  H   UNL     1      37.813 -22.793 -16.917  0.00  0.00    +0.149 HD
ATOM     22  H   UNL     1      33.858 -23.149 -15.966  0.00  0.00    +0.149 HD
ENDBRANCH   5  12
BRANCH   1  23
ATOM     23  C   UNL     1      35.598 -19.209 -22.174  0.00  0.00    +0.098 C 
BRANCH  23  24
ATOM     24  C   UNL     1      35.316 -17.717 -22.030  0.00  0.00    +0.022 C 
BRANCH  24  25
ATOM     25  C   UNL     1      35.213 -17.008 -23.381  0.00  0.00    +0.002 C 
BRANCH  25  27
ATOM     26  N   UNL     1      32.817 -13.518 -22.522  0.00  0.00    +0.385 N 
ATOM     27  C   UNL     1      34.823 -15.542 -23.208  0.00  0.00    -0.004 C 
ATOM     28  C   UNL     1      34.412 -15.249 -21.761  0.00  0.00    -0.023 C 
ATOM     29  C   UNL     1      33.685 -15.158 -24.157  0.00  0.00    -0.023 C 
ATOM     30  C   UNL     1      33.925 -13.808 -21.601  0.00  0.00    -0.077 C 
ATOM     31  C   UNL     1      33.222 -13.720 -23.919  0.00  0.00    -0.077 C 
ATOM     32  C   UNL     1      32.328 -12.154 -22.322  0.00  0.00    -0.101 C 
ATOM     33  H   UNL     1      32.059 -14.170 -22.317  0.00  0.00    -0.080 HD
ENDBRANCH  25  27
ENDBRANCH  24  25
ENDBRANCH  23  24
ENDBRANCH   1  23
TORSDOF 5
ENDMDL
MODEL 9
REMARK VINA RESULT:     -10.5      1.864      3.362
REMARK  Name = 23650961
REMARK  5 active torsions:
REMARK  status: ('A' for Active; 'I' for Inactive)
REMARK    1  A    between atoms: N_1  and  C_23
REMARK    2  A    between atoms: C_5  and  C_12
REMARK    3  A    between atoms: C_23  and  C_24
REMARK    4  A    between atoms: C_24  and  C_25
REMARK    5  A    between atoms: C_25  and  C_27
REMARK                            x       y       z     vdW  Elec       q    Type
REMARK                         _______ _______ _______ _____ _____    ______ ____
ROOT
ATOM      1  N   UNL     1      33.591 -15.378 -23.194  0.00  0.00    -0.268 N 
ATOM      2  N   UNL     1      32.435 -13.603 -22.185  0.00  0.00    -0.342 NA
ATOM      3  N   UNL     1      34.036 -13.198 -23.939  0.00  0.00    -0.170 NA
ATOM      4  C   UNL     1      33.347 -14.016 -23.104  0.00  0.00    +0.144 C 
ATOM      5  C   UNL     1      32.869 -11.353 -22.924  0.00  0.00    +0.061 C 
ATOM      6  C   UNL     1      32.222 -12.273 -22.122  0.00  0.00    +0.123 C 
ATOM      7  C   UNL     1      33.775 -11.879 -23.823  0.00  0.00    +0.113 C 
ATOM      8  C   UNL     1      31.217 -11.830 -21.108  0.00  0.00    +0.067 C 
ATOM      9  H   UNL     1      33.096 -15.979 -22.593  0.00  0.00    +0.159 HD
ENDROOT
BRANCH   5  12
ATOM     10  N   UNL     1      32.159  -9.220 -23.914  0.00  0.00    -0.314 N 
ATOM     11  N   UNL     1      32.833  -9.171 -21.797  0.00  0.00    -0.315 N 
ATOM     12  C   UNL     1      32.635  -9.936 -22.849  0.00  0.00    +0.171 C 
ATOM     13  C   UNL     1      32.046  -7.910 -23.524  0.00  0.00    +0.059 C 
ATOM     14  C   UNL     1      32.471  -7.905 -22.199  0.00  0.00    +0.055 C 
ATOM     15  C   UNL     1      32.480  -6.694 -21.486  0.00  0.00    -0.008 C 
ATOM     16  C   UNL     1      31.620  -6.763 -24.196  0.00  0.00    +0.011 C 
ATOM     17  C   UNL     1      31.634  -5.567 -23.472  0.00  0.00    -0.021 C 
ATOM     18  C   UNL     1      32.056  -5.530 -22.141  0.00  0.00    -0.007 C 
ATOM     19  C   UNL     1      32.922  -6.603 -20.062  0.00  0.00    +0.032 C 
ATOM     20  C   UNL     1      31.188  -4.305 -24.136  0.00  0.00    +0.031 C 
ATOM     21  H   UNL     1      31.939  -9.580 -24.803  0.00  0.00    +0.149 HD
ATOM     22  H   UNL     1      33.168  -9.444 -20.912  0.00  0.00    +0.149 HD
ENDBRANCH   5  12
BRANCH   1  23
ATOM     23  C   UNL     1      34.530 -15.963 -24.121  0.00  0.00    +0.098 C 
BRANCH  23  24
ATOM     24  C   UNL     1      34.909 -17.377 -23.688  0.00  0.00    +0.022 C 
BRANCH  24  25
ATOM     25  C   UNL     1      35.521 -17.415 -22.288  0.00  0.00    +0.002 C 
BRANCH  25  27
ATOM     26  N   UNL     1      35.579 -20.731 -19.521  0.00  0.00    +0.385 N 
ATOM     27  C   UNL     1      35.617 -18.846 -21.765  0.00  0.00    -0.004 C 
ATOM     28  C   UNL     1      34.320 -19.264 -21.064  0.00  0.00    -0.023 C 
ATOM     29  C   UNL     1      36.799 -19.004 -20.804  0.00  0.00    -0.023 C 
ATOM     30  C   UNL     1      34.443 -20.659 -20.450  0.00  0.00    -0.077 C 
ATOM     31  C   UNL     1      36.841 -20.408 -20.199  0.00  0.00    -0.077 C 
ATOM     32  C   UNL     1      35.654 -22.055 -18.903  0.00  0.00    -0.101 C 
ATOM     33  H   UNL     1      35.429 -20.037 -18.788  0.00  0.00    -0.080 HD
ENDBRANCH  25  27
ENDBRANCH  24  25
ENDBRANCH  23  24
ENDBRANCH   1  23
TORSDOF 5
ENDMDL
