MODEL 1
REMARK VINA RESULT:     -11.1      0.000      0.000
REMARK  Name = 11979006
REMARK  7 active torsions:
REMARK  status: ('A' for Active; 'I' for Inactive)
REMARK    1  A    between atoms: C_1  and  N_2
REMARK    2  A    between atoms: C_1  and  C_22
REMARK    3  A    between atoms: C_3  and  N_9
REMARK    4  A    between atoms: C_4  and  O_18
REMARK    5  A    between atoms: C_10  and  C_14
REMARK    6  A    between atoms: N_21  and  C_25
REMARK    7  A    between atoms: C_28  and  N_32
REMARK                            x       y       z     vdW  Elec       q    Type
REMARK                         _______ _______ _______ _____ _____    ______ ____
ROOT
ATOM      1  C   UNL     1      35.957 -20.822 -20.313  0.00  0.00    +0.010 C 
ENDROOT
BRANCH   1   2
ATOM      2  N   UNL     1      35.473 -21.272 -19.016  0.00  0.00    +0.396 N 
ATOM      3  C   UNL     1      35.805 -22.311 -16.979  0.00  0.00    +0.076 C 
ATOM      4  C   UNL     1      34.693 -23.073 -17.702  0.00  0.00    +0.106 C 
ATOM      5  C   UNL     1      36.561 -21.611 -18.099  0.00  0.00    -0.054 C 
ATOM      6  C   UNL     1      34.650 -22.483 -19.112  0.00  0.00    -0.045 C 
ATOM      7  H   UNL     1      34.929 -20.482 -18.668  0.00  0.00    -0.079 HD
BRANCH   3   9
ATOM      8  O   UNL     1      35.248 -23.272 -14.387  0.00  0.00    -0.270 OA
ATOM      9  N   UNL     1      36.652 -23.176 -16.204  0.00  0.00    -0.302 N 
ATOM     10  C   UNL     1      36.305 -23.611 -14.922  0.00  0.00    +0.252 C 
ATOM     11  H   UNL     1      37.507 -23.473 -16.589  0.00  0.00    +0.150 HD
BRANCH  10  14
ATOM     12 CL   UNL     1      40.806 -26.499 -13.746  0.00  0.00    -0.075 Cl
ATOM     13  S   UNL     1      38.789 -24.697 -14.970  0.00  0.00    -0.071 S 
ATOM     14  C   UNL     1      37.260 -24.519 -14.269  0.00  0.00    +0.084 C 
ATOM     15  C   UNL     1      37.063 -25.249 -13.149  0.00  0.00    +0.012 C 
ATOM     16  C   UNL     1      38.228 -26.006 -12.833  0.00  0.00    +0.019 C 
ATOM     17  C   UNL     1      39.241 -25.799 -13.741  0.00  0.00    +0.087 C 
ENDBRANCH  10  14
ENDBRANCH   3   9
BRANCH   4  18
ATOM     18  O   UNL     1      33.460 -22.859 -17.026  0.00  0.00    -0.385 OA
ATOM     19  H   UNL     1      33.532 -23.180 -16.114  0.00  0.00    +0.210 HD
ENDBRANCH   4  18
ENDBRANCH   1   2
BRANCH   1  22
ATOM     20  O   UNL     1      33.904 -19.953 -21.236  0.00  0.00    -0.277 OA
ATOM     21  N   UNL     1      35.690 -18.496 -20.793  0.00  0.00    -0.284 N 
ATOM     22  C   UNL     1      35.044 -19.729 -20.841  0.00  0.00    +0.205 C 
ATOM     23  H   UNL     1      36.610 -18.501 -20.440  0.00  0.00    +0.155 HD
BRANCH  21  25
ATOM     24  F   UNL     1      35.406 -17.844 -23.477  0.00  0.00    -0.203 F 
ATOM     25  C   UNL     1      35.181 -17.237 -21.192  0.00  0.00    +0.078 C 
ATOM     26  C   UNL     1      35.055 -16.951 -22.541  0.00  0.00    +0.155 C 
ATOM     27  C   UNL     1      34.820 -16.317 -20.221  0.00  0.00    +0.018 C 
ATOM     28  C   UNL     1      34.185 -14.771 -21.966  0.00  0.00    +0.061 C 
ATOM     29  C   UNL     1      34.553 -15.709 -22.931  0.00  0.00    +0.046 C 
ATOM     30  C   UNL     1      34.320 -15.075 -20.611  0.00  0.00    +0.017 C 
BRANCH  28  32
ATOM     31  O   UNL     1      31.831 -13.498 -20.869  0.00  0.00    -0.269 OA
ATOM     32  N   UNL     1      33.665 -13.480 -22.372  0.00  0.00    -0.233 N 
ATOM     33  C   UNL     1      32.520 -12.944 -21.726  0.00  0.00    +0.257 C 
ATOM     34  C   UNL     1      34.268 -12.768 -23.410  0.00  0.00    +0.072 C 
ATOM     35  C   UNL     1      32.078 -11.588 -22.173  0.00  0.00    +0.059 C 
ATOM     36  C   UNL     1      33.833 -11.570 -23.814  0.00  0.00    +0.017 C 
ATOM     37  C   UNL     1      32.708 -10.961 -23.169  0.00  0.00    +0.006 C 
ENDBRANCH  28  32
ENDBRANCH  21  25
ENDBRANCH   1  22
TORSDOF 7
ENDMDL
MODEL 2
REMARK VINA RESULT:     -10.8      7.375     13.878
REMARK  Name = 11979006
REMARK  7 active torsions:
REMARK  status: ('A' for Active; 'I' for Inactive)
REMARK    1  A    between atoms: C_1  and  N_2
REMARK    2  A    between atoms: C_1  and  C_22
REMARK    3  A    between atoms: C_3  and  N_9
REMARK    4  A    between atoms: C_4  and  O_18
REMARK    5  A    between atoms: C_10  and  C_14
REMARK    6  A    between atoms: N_21  and  C_25
REMARK    7  A    between atoms: C_28  and  N_32
REMARK                            x       y       z     vdW  Elec       q    Type
REMARK                         _______ _______ _______ _____ _____    ______ ____
ROOT
ATOM      1  C   UNL     1      33.771 -12.261 -24.209  0.00  0.00    +0.010 C 
ENDROOT
BRANCH   1   2
ATOM      2  N   UNL     1      32.614 -11.600 -23.624  0.00  0.00    +0.396 N 
ATOM      3  C   UNL     1      31.525  -9.700 -22.884  0.00  0.00    +0.076 C 
ATOM      4  C   UNL     1      31.631 -10.656 -21.694  0.00  0.00    +0.106 C 
ATOM      5  C   UNL     1      32.639 -10.150 -23.819  0.00  0.00    -0.054 C 
ATOM      6  C   UNL     1      32.529 -11.798 -22.172  0.00  0.00    -0.045 C 
ATOM      7  H   UNL     1      31.820 -12.024 -24.102  0.00  0.00    -0.079 HD
BRANCH   3   9
ATOM      8  O   UNL     1      31.076  -7.471 -24.552  0.00  0.00    -0.270 OA
ATOM      9  N   UNL     1      31.657  -8.322 -22.498  0.00  0.00    -0.302 N 
ATOM     10  C   UNL     1      31.416  -7.270 -23.385  0.00  0.00    +0.252 C 
ATOM     11  H   UNL     1      31.927  -8.112 -21.576  0.00  0.00    +0.150 HD
BRANCH  10  14
ATOM     12 CL   UNL     1      31.793  -1.827 -22.918  0.00  0.00    -0.075 Cl
ATOM     13  S   UNL     1      31.511  -4.611 -23.910  0.00  0.00    -0.071 S 
ATOM     14  C   UNL     1      31.562  -5.915 -22.833  0.00  0.00    +0.084 C 
ATOM     15  C   UNL     1      31.738  -5.572 -21.538  0.00  0.00    +0.012 C 
ATOM     16  C   UNL     1      31.839  -4.157 -21.403  0.00  0.00    +0.019 C 
ATOM     17  C   UNL     1      31.731  -3.513 -22.615  0.00  0.00    +0.087 C 
ENDBRANCH  10  14
ENDBRANCH   3   9
BRANCH   4  18
ATOM     18  O   UNL     1      30.335 -11.137 -21.361  0.00  0.00    -0.385 OA
ATOM     19  H   UNL     1      29.787 -10.400 -21.048  0.00  0.00    +0.210 HD
ENDBRANCH   4  18
ENDBRANCH   1   2
BRANCH   1  22
ATOM     20  O   UNL     1      32.958 -14.499 -24.600  0.00  0.00    -0.277 OA
ATOM     21  N   UNL     1      34.534 -14.112 -22.903  0.00  0.00    -0.284 N 
ATOM     22  C   UNL     1      33.685 -13.755 -23.948  0.00  0.00    +0.205 C 
ATOM     23  H   UNL     1      35.050 -13.379 -22.494  0.00  0.00    +0.155 HD
BRANCH  21  25
ATOM     24  F   UNL     1      34.533 -14.534 -20.159  0.00  0.00    -0.203 F 
ATOM     25  C   UNL     1      34.741 -15.402 -22.360  0.00  0.00    +0.078 C 
ATOM     26  C   UNL     1      34.734 -15.571 -20.985  0.00  0.00    +0.155 C 
ATOM     27  C   UNL     1      34.948 -16.469 -23.218  0.00  0.00    +0.018 C 
ATOM     28  C   UNL     1      35.149 -17.930 -21.304  0.00  0.00    +0.061 C 
ATOM     29  C   UNL     1      34.939 -16.844 -20.454  0.00  0.00    +0.046 C 
ATOM     30  C   UNL     1      35.154 -17.742 -22.687  0.00  0.00    +0.017 C 
BRANCH  28  32
ATOM     31  O   UNL     1      37.723 -19.063 -20.629  0.00  0.00    -0.269 OA
ATOM     32  N   UNL     1      35.363 -19.253 -20.750  0.00  0.00    -0.233 N 
ATOM     33  C   UNL     1      36.677 -19.678 -20.424  0.00  0.00    +0.257 C 
ATOM     34  C   UNL     1      34.287 -20.122 -20.556  0.00  0.00    +0.072 C 
ATOM     35  C   UNL     1      36.803 -21.038 -19.814  0.00  0.00    +0.059 C 
ATOM     36  C   UNL     1      34.431 -21.346 -20.039  0.00  0.00    +0.017 C 
ATOM     37  C   UNL     1      35.729 -21.813 -19.651  0.00  0.00    +0.006 C 
ENDBRANCH  28  32
ENDBRANCH  21  25
ENDBRANCH   1  22
TORSDOF 7
ENDMDL
MODEL 3
REMARK VINA RESULT:     -10.7      1.543      1.812
REMARK  Name = 11979006
REMARK  7 active torsions:
REMARK  status: ('A' for Active; 'I' for Inactive)
REMARK    1  A    between atoms: C_1  and  N_2
REMARK    2  A    between atoms: C_1  and  C_22
REMARK    3  A    between atoms: C_3  and  N_9
REMARK    4  A    between atoms: C_4  and  O_18
REMARK    5  A    between atoms: C_10  and  C_14
REMARK    6  A    between atoms: N_21  and  C_25
REMARK    7  A    between atoms: C_28  and  N_32
REMARK                            x       y       z     vdW  Elec       q    Type
REMARK                         _______ _______ _______ _____ _____    ______ ____
ROOT
ATOM      1  C   UNL     1      35.365 -21.757 -19.977  0.00  0.00    +0.010 C 
ENDROOT
BRANCH   1   2
ATOM      2  N   UNL     1      35.098 -21.950 -18.560  0.00  0.00    +0.396 N 
ATOM      3  C   UNL     1      35.737 -22.665 -16.457  0.00  0.00    +0.076 C 
ATOM      4  C   UNL     1      34.478 -23.447 -16.840  0.00  0.00    +0.106 C 
ATOM      5  C   UNL     1      36.314 -22.218 -17.792  0.00  0.00    -0.054 C 
ATOM      6  C   UNL     1      34.214 -23.094 -18.305  0.00  0.00    -0.045 C 
ATOM      7  H   UNL     1      34.663 -21.075 -18.269  0.00  0.00    -0.079 HD
BRANCH   3   9
ATOM      8  O   UNL     1      35.404 -23.467 -13.774  0.00  0.00    -0.270 OA
ATOM      9  N   UNL     1      36.665 -23.455 -15.695  0.00  0.00    -0.302 N 
ATOM     10  C   UNL     1      36.428 -23.813 -14.365  0.00  0.00    +0.252 C 
ATOM     11  H   UNL     1      37.498 -23.755 -16.125  0.00  0.00    +0.150 HD
BRANCH  10  14
ATOM     12 CL   UNL     1      40.909 -26.843 -13.512  0.00  0.00    -0.075 Cl
ATOM     13  S   UNL     1      38.767 -25.150 -14.678  0.00  0.00    -0.071 S 
ATOM     14  C   UNL     1      37.457 -24.650 -13.731  0.00  0.00    +0.084 C 
ATOM     15  C   UNL     1      37.487 -25.084 -12.451  0.00  0.00    +0.012 C 
ATOM     16  C   UNL     1      38.649 -25.875 -12.216  0.00  0.00    +0.019 C 
ATOM     17  C   UNL     1      39.431 -25.991 -13.343  0.00  0.00    +0.087 C 
ENDBRANCH  10  14
ENDBRANCH   3   9
BRANCH   4  18
ATOM     18  O   UNL     1      33.397 -23.031 -16.017  0.00  0.00    -0.385 OA
ATOM     19  H   UNL     1      32.956 -22.269 -16.423  0.00  0.00    +0.210 HD
ENDBRANCH   4  18
ENDBRANCH   1   2
BRANCH   1  22
ATOM     20  O   UNL     1      33.413 -20.361 -20.224  0.00  0.00    -0.277 OA
ATOM     21  N   UNL     1      35.440 -19.713 -21.215  0.00  0.00    -0.284 N 
ATOM     22  C   UNL     1      34.600 -20.542 -20.474  0.00  0.00    +0.205 C 
ATOM     23  H   UNL     1      36.373 -20.015 -21.311  0.00  0.00    +0.155 HD
BRANCH  21  25
ATOM     24  F   UNL     1      34.805 -19.610 -23.915  0.00  0.00    -0.203 F 
ATOM     25  C   UNL     1      35.111 -18.489 -21.844  0.00  0.00    +0.078 C 
ATOM     26  C   UNL     1      34.800 -18.480 -23.194  0.00  0.00    +0.155 C 
ATOM     27  C   UNL     1      35.108 -17.325 -21.094  0.00  0.00    +0.018 C 
ATOM     28  C   UNL     1      34.469 -16.090 -23.070  0.00  0.00    +0.061 C 
ATOM     29  C   UNL     1      34.476 -17.272 -23.811  0.00  0.00    +0.046 C 
ATOM     30  C   UNL     1      34.785 -16.116 -21.711  0.00  0.00    +0.017 C 
BRANCH  28  32
ATOM     31  O   UNL     1      33.433 -15.811 -25.756  0.00  0.00    -0.269 OA
ATOM     32  N   UNL     1      34.133 -14.834 -23.713  0.00  0.00    -0.233 N 
ATOM     33  C   UNL     1      33.593 -14.834 -25.026  0.00  0.00    +0.257 C 
ATOM     34  C   UNL     1      34.357 -13.622 -23.058  0.00  0.00    +0.072 C 
ATOM     35  C   UNL     1      33.231 -13.500 -25.596  0.00  0.00    +0.059 C 
ATOM     36  C   UNL     1      34.054 -12.439 -23.603  0.00  0.00    +0.017 C 
ATOM     37  C   UNL     1      33.467 -12.380 -24.909  0.00  0.00    +0.006 C 
ENDBRANCH  28  32
ENDBRANCH  21  25
ENDBRANCH   1  22
TORSDOF 7
ENDMDL
MODEL 4
REMARK VINA RESULT:     -10.6      5.505     11.514
REMARK  Name = 11979006
REMARK  7 active torsions:
REMARK  status: ('A' for Active; 'I' for Inactive)
REMARK    1  A    between atoms: C_1  and  N_2
REMARK    2  A    between atoms: C_1  and  C_22
REMARK    3  A    between atoms: C_3  and  N_9
REMARK    4  A    between atoms: C_4  and  O_18
REMARK    5  A    between atoms: C_10  and  C_14
REMARK    6  A    between atoms: N_21  and  C_25
REMARK    7  A    between atoms: C_28  and  N_32
REMARK                            x       y       z     vdW  Elec       q    Type
REMARK                         _______ _______ _______ _____ _____    ______ ____
ROOT
ATOM      1  C   UNL     1      36.274 -18.904 -22.546  0.00  0.00    +0.010 C 
ENDROOT
BRANCH   1   2
ATOM      2  N   UNL     1      35.684 -17.815 -23.310  0.00  0.00    +0.396 N 
ATOM      3  C   UNL     1      34.671 -15.741 -23.430  0.00  0.00    +0.076 C 
ATOM      4  C   UNL     1      33.711 -16.753 -24.058  0.00  0.00    +0.106 C 
ATOM      5  C   UNL     1      35.559 -16.586 -22.527  0.00  0.00    -0.054 C 
ATOM      6  C   UNL     1      34.327 -18.124 -23.774  0.00  0.00    -0.045 C 
ATOM      7  H   UNL     1      36.323 -17.689 -24.094  0.00  0.00    -0.079 HD
BRANCH   3   9
ATOM      8  O   UNL     1      33.432 -13.482 -24.576  0.00  0.00    -0.270 OA
ATOM      9  N   UNL     1      33.985 -14.704 -22.710  0.00  0.00    -0.302 N 
ATOM     10  C   UNL     1      33.394 -13.612 -23.351  0.00  0.00    +0.252 C 
ATOM     11  H   UNL     1      33.929 -14.764 -21.729  0.00  0.00    +0.150 HD
BRANCH  10  14
ATOM     12 CL   UNL     1      31.357  -8.982 -21.255  0.00  0.00    -0.075 Cl
ATOM     13  S   UNL     1      32.721 -11.020 -22.929  0.00  0.00    -0.071 S 
ATOM     14  C   UNL     1      32.701 -12.651 -22.481  0.00  0.00    +0.084 C 
ATOM     15  C   UNL     1      32.033 -12.915 -21.336  0.00  0.00    +0.012 C 
ATOM     16  C   UNL     1      31.498 -11.717 -20.780  0.00  0.00    +0.019 C 
ATOM     17  C   UNL     1      31.798 -10.613 -21.546  0.00  0.00    +0.087 C 
ENDBRANCH  10  14
ENDBRANCH   3   9
BRANCH   4  18
ATOM     18  O   UNL     1      33.627 -16.517 -25.458  0.00  0.00    -0.385 OA
ATOM     19  H   UNL     1      33.694 -15.565 -25.629  0.00  0.00    +0.210 HD
ENDBRANCH   4  18
ENDBRANCH   1   2
BRANCH   1  22
ATOM     20  O   UNL     1      34.922 -18.244 -20.660  0.00  0.00    -0.277 OA
ATOM     21  N   UNL     1      35.376 -20.518 -21.029  0.00  0.00    -0.284 N 
ATOM     22  C   UNL     1      35.444 -19.153 -21.299  0.00  0.00    +0.205 C 
ATOM     23  H   UNL     1      35.855 -21.109 -21.655  0.00  0.00    +0.155 HD
BRANCH  21  25
ATOM     24  F   UNL     1      36.766 -21.945 -19.094  0.00  0.00    -0.203 F 
ATOM     25  C   UNL     1      34.700 -21.156 -19.961  0.00  0.00    +0.078 C 
ATOM     26  C   UNL     1      35.430 -21.857 -19.016  0.00  0.00    +0.155 C 
ATOM     27  C   UNL     1      33.320 -21.062 -19.885  0.00  0.00    +0.018 C 
ATOM     28  C   UNL     1      33.371 -22.401 -17.874  0.00  0.00    +0.061 C 
ATOM     29  C   UNL     1      34.761 -22.484 -17.965  0.00  0.00    +0.046 C 
ATOM     30  C   UNL     1      32.651 -21.690 -18.835  0.00  0.00    +0.017 C 
BRANCH  28  32
ATOM     31  O   UNL     1      34.615 -24.050 -15.850  0.00  0.00    -0.269 OA
ATOM     32  N   UNL     1      32.677 -23.054 -16.782  0.00  0.00    -0.233 N 
ATOM     33  C   UNL     1      33.409 -23.807 -15.827  0.00  0.00    +0.257 C 
ATOM     34  C   UNL     1      31.287 -22.967 -16.674  0.00  0.00    +0.072 C 
ATOM     35  C   UNL     1      32.621 -24.407 -14.707  0.00  0.00    +0.059 C 
ATOM     36  C   UNL     1      30.602 -23.541 -15.680  0.00  0.00    +0.017 C 
ATOM     37  C   UNL     1      31.293 -24.277 -14.663  0.00  0.00    +0.006 C 
ENDBRANCH  28  32
ENDBRANCH  21  25
ENDBRANCH   1  22
TORSDOF 7
ENDMDL
MODEL 5
REMARK VINA RESULT:     -10.5      5.114     11.905
REMARK  Name = 11979006
REMARK  7 active torsions:
REMARK  status: ('A' for Active; 'I' for Inactive)
REMARK    1  A    between atoms: C_1  and  N_2
REMARK    2  A    between atoms: C_1  and  C_22
REMARK    3  A    between atoms: C_3  and  N_9
REMARK    4  A    between atoms: C_4  and  O_18
REMARK    5  A    between atoms: C_10  and  C_14
REMARK    6  A    between atoms: N_21  and  C_25
REMARK    7  A    between atoms: C_28  and  N_32
REMARK                            x       y       z     vdW  Elec       q    Type
REMARK                         _______ _______ _______ _____ _____    ______ ____
ROOT
ATOM      1  C   UNL     1      34.732 -20.169 -21.595  0.00  0.00    +0.010 C 
ENDROOT
BRANCH   1   2
ATOM      2  N   UNL     1      35.121 -18.853 -22.080  0.00  0.00    +0.396 N 
ATOM      3  C   UNL     1      34.960 -16.548 -22.036  0.00  0.00    +0.076 C 
ATOM      4  C   UNL     1      34.591 -17.002 -23.450  0.00  0.00    +0.106 C 
ATOM      5  C   UNL     1      34.711 -17.779 -21.176  0.00  0.00    -0.054 C 
ATOM      6  C   UNL     1      34.513 -18.528 -23.376  0.00  0.00    -0.045 C 
ATOM      7  H   UNL     1      36.137 -18.908 -22.152  0.00  0.00    -0.079 HD
BRANCH   3   9
ATOM      8  O   UNL     1      34.298 -14.308 -23.616  0.00  0.00    -0.270 OA
ATOM      9  N   UNL     1      34.191 -15.413 -21.604  0.00  0.00    -0.302 N 
ATOM     10  C   UNL     1      33.904 -14.338 -22.449  0.00  0.00    +0.252 C 
ATOM     11  H   UNL     1      33.855 -15.392 -20.680  0.00  0.00    +0.150 HD
BRANCH  10  14
ATOM     12 CL   UNL     1      31.241  -9.610 -21.714  0.00  0.00    -0.075 Cl
ATOM     13  S   UNL     1      32.883 -11.847 -22.771  0.00  0.00    -0.071 S 
ATOM     14  C   UNL     1      33.079 -13.266 -21.872  0.00  0.00    +0.084 C 
ATOM     15  C   UNL     1      32.443 -13.274 -20.680  0.00  0.00    +0.012 C 
ATOM     16  C   UNL     1      31.746 -12.047 -20.476  0.00  0.00    +0.019 C 
ATOM     17  C   UNL     1      31.901 -11.182 -21.536  0.00  0.00    +0.087 C 
ENDBRANCH  10  14
ENDBRANCH   3   9
BRANCH   4  18
ATOM     18  O   UNL     1      35.606 -16.591 -24.356  0.00  0.00    -0.385 OA
ATOM     19  H   UNL     1      35.999 -15.761 -24.046  0.00  0.00    +0.210 HD
ENDBRANCH   4  18
ENDBRANCH   1   2
BRANCH   1  22
ATOM     20  O   UNL     1      36.562 -19.930 -20.041  0.00  0.00    -0.277 OA
ATOM     21  N   UNL     1      34.849 -21.473 -19.595  0.00  0.00    -0.284 N 
ATOM     22  C   UNL     1      35.509 -20.491 -20.331  0.00  0.00    +0.205 C 
ATOM     23  H   UNL     1      34.006 -21.810 -19.979  0.00  0.00    +0.155 HD
BRANCH  21  25
ATOM     24  F   UNL     1      33.050 -22.880 -18.016  0.00  0.00    -0.203 F 
ATOM     25  C   UNL     1      35.246 -22.044 -18.363  0.00  0.00    +0.078 C 
ATOM     26  C   UNL     1      34.319 -22.738 -17.604  0.00  0.00    +0.155 C 
ATOM     27  C   UNL     1      36.557 -21.894 -17.942  0.00  0.00    +0.018 C 
ATOM     28  C   UNL     1      36.030 -23.158 -15.951  0.00  0.00    +0.061 C 
ATOM     29  C   UNL     1      34.714 -23.299 -16.390  0.00  0.00    +0.046 C 
ATOM     30  C   UNL     1      36.952 -22.454 -16.728  0.00  0.00    +0.017 C 
BRANCH  28  32
ATOM     31  O   UNL     1      36.144 -25.990 -15.375  0.00  0.00    -0.269 OA
ATOM     32  N   UNL     1      36.440 -23.740 -14.688  0.00  0.00    -0.233 N 
ATOM     33  C   UNL     1      36.491 -25.151 -14.544  0.00  0.00    +0.257 C 
ATOM     34  C   UNL     1      36.764 -22.923 -13.603  0.00  0.00    +0.072 C 
ATOM     35  C   UNL     1      36.969 -25.668 -13.225  0.00  0.00    +0.059 C 
ATOM     36  C   UNL     1      37.157 -23.411 -12.422  0.00  0.00    +0.017 C 
ATOM     37  C   UNL     1      37.269 -24.827 -12.233  0.00  0.00    +0.006 C 
ENDBRANCH  28  32
ENDBRANCH  21  25
ENDBRANCH   1  22
TORSDOF 7
ENDMDL
MODEL 6
REMARK VINA RESULT:     -10.5      4.401      6.680
REMARK  Name = 11979006
REMARK  7 active torsions:
REMARK  status: ('A' for Active; 'I' for Inactive)
REMARK    1  A    between atoms: C_1  and  N_2
REMARK    2  A    between atoms: C_1  and  C_22
REMARK    3  A    between atoms: C_3  and  N_9
REMARK    4  A    between atoms: C_4  and  O_18
REMARK    5  A    between atoms: C_10  and  C_14
REMARK    6  A    between atoms: N_21  and  C_25
REMARK    7  A    between atoms: C_28  and  N_32
REMARK                            x       y       z     vdW  Elec       q    Type
REMARK                         _______ _______ _______ _____ _____    ______ ____
ROOT
ATOM      1  C   UNL     1      37.430 -23.430 -15.423  0.00  0.00    +0.010 C 
ENDROOT
BRANCH   1   2
ATOM      2  N   UNL     1      36.405 -24.143 -14.676  0.00  0.00    +0.396 N 
ATOM      3  C   UNL     1      34.215 -24.819 -14.379  0.00  0.00    +0.076 C 
ATOM      4  C   UNL     1      34.614 -24.014 -13.140  0.00  0.00    +0.106 C 
ATOM      5  C   UNL     1      35.183 -24.346 -15.454  0.00  0.00    -0.054 C 
ATOM      6  C   UNL     1      35.985 -23.421 -13.469  0.00  0.00    -0.045 C 
ATOM      7  H   UNL     1      36.845 -25.032 -14.441  0.00  0.00    -0.079 HD
BRANCH   3   9
ATOM      8  O   UNL     1      31.966 -25.577 -12.857  0.00  0.00    -0.270 OA
ATOM      9  N   UNL     1      32.842 -24.614 -14.750  0.00  0.00    -0.302 N 
ATOM     10  C   UNL     1      31.779 -25.019 -13.939  0.00  0.00    +0.252 C 
ATOM     11  H   UNL     1      32.642 -24.172 -15.607  0.00  0.00    +0.150 HD
BRANCH  10  14
ATOM     12 CL   UNL     1      27.406 -22.358 -15.883  0.00  0.00    -0.075 Cl
ATOM     13  S   UNL     1      30.089 -23.107 -14.857  0.00  0.00    -0.071 S 
ATOM     14  C   UNL     1      30.431 -24.711 -14.441  0.00  0.00    +0.084 C 
ATOM     15  C   UNL     1      29.404 -25.572 -14.614  0.00  0.00    +0.012 C 
ATOM     16  C   UNL     1      28.258 -24.890 -15.119  0.00  0.00    +0.019 C 
ATOM     17  C   UNL     1      28.494 -23.546 -15.298  0.00  0.00    +0.087 C 
ENDBRANCH  10  14
ENDBRANCH   3   9
BRANCH   4  18
ATOM     18  O   UNL     1      34.695 -24.885 -12.020  0.00  0.00    -0.385 OA
ATOM     19  H   UNL     1      34.711 -24.362 -11.204  0.00  0.00    +0.210 HD
ENDBRANCH   4  18
ENDBRANCH   1   2
BRANCH   1  22
ATOM     20  O   UNL     1      36.219 -21.356 -15.658  0.00  0.00    -0.277 OA
ATOM     21  N   UNL     1      36.956 -22.497 -17.573  0.00  0.00    -0.284 N 
ATOM     22  C   UNL     1      36.788 -22.296 -16.204  0.00  0.00    +0.205 C 
ATOM     23  H   UNL     1      37.446 -23.311 -17.835  0.00  0.00    +0.155 HD
BRANCH  21  25
ATOM     24  F   UNL     1      34.371 -22.708 -18.563  0.00  0.00    -0.203 F 
ATOM     25  C   UNL     1      36.506 -21.671 -18.630  0.00  0.00    +0.078 C 
ATOM     26  C   UNL     1      35.209 -21.806 -19.095  0.00  0.00    +0.155 C 
ATOM     27  C   UNL     1      37.376 -20.742 -19.176  0.00  0.00    +0.018 C 
ATOM     28  C   UNL     1      35.632 -20.050 -20.699  0.00  0.00    +0.061 C 
ATOM     29  C   UNL     1      34.769 -20.990 -20.137  0.00  0.00    +0.046 C 
ATOM     30  C   UNL     1      36.937 -19.926 -20.219  0.00  0.00    +0.017 C 
BRANCH  28  32
ATOM     31  O   UNL     1      35.429 -17.167 -20.594  0.00  0.00    -0.269 OA
ATOM     32  N   UNL     1      35.175 -19.202 -21.783  0.00  0.00    -0.233 N 
ATOM     33  C   UNL     1      35.159 -17.792 -21.619  0.00  0.00    +0.257 C 
ATOM     34  C   UNL     1      34.728 -19.763 -22.980  0.00  0.00    +0.072 C 
ATOM     35  C   UNL     1      34.717 -16.991 -22.802  0.00  0.00    +0.059 C 
ATOM     36  C   UNL     1      34.306 -19.025 -24.012  0.00  0.00    +0.017 C 
ATOM     37  C   UNL     1      34.309 -17.595 -23.920  0.00  0.00    +0.006 C 
ENDBRANCH  28  32
ENDBRANCH  21  25
ENDBRANCH   1  22
TORSDOF 7
ENDMDL
MODEL 7
REMARK VINA RESULT:     -10.3      5.357     11.383
REMARK  Name = 11979006
REMARK  7 active torsions:
REMARK  status: ('A' for Active; 'I' for Inactive)
REMARK    1  A    between atoms: C_1  and  N_2
REMARK    2  A    between atoms: C_1  and  C_22
REMARK    3  A    between atoms: C_3  and  N_9
REMARK    4  A    between atoms: C_4  and  O_18
REMARK    5  A    between atoms: C_10  and  C_14
REMARK    6  A    between atoms: N_21  and  C_25
REMARK    7  A    between atoms: C_28  and  N_32
REMARK                            x       y       z     vdW  Elec       q    Type
REMARK                         _______ _______ _______ _____ _____    ______ ____
ROOT
ATOM      1  C   UNL     1      36.596 -19.798 -21.643  0.00  0.00    +0.010 C 
ENDROOT
BRANCH   1   2
ATOM      2  N   UNL     1      36.151 -18.711 -22.502  0.00  0.00    +0.396 N 
ATOM      3  C   UNL     1      35.203 -16.625 -22.802  0.00  0.00    +0.076 C 
ATOM      4  C   UNL     1      34.336 -17.631 -23.561  0.00  0.00    +0.106 C 
ATOM      5  C   UNL     1      35.925 -17.469 -21.761  0.00  0.00    -0.054 C 
ATOM      6  C   UNL     1      34.878 -19.007 -23.168  0.00  0.00    -0.045 C 
ATOM      7  H   UNL     1      36.907 -18.605 -23.178  0.00  0.00    -0.079 HD
BRANCH   3   9
ATOM      8  O   UNL     1      33.970 -14.505 -24.194  0.00  0.00    -0.270 OA
ATOM      9  N   UNL     1      34.430 -15.568 -22.209  0.00  0.00    -0.302 N 
ATOM     10  C   UNL     1      33.848 -14.550 -22.969  0.00  0.00    +0.252 C 
ATOM     11  H   UNL     1      34.305 -15.561 -21.233  0.00  0.00    +0.150 HD
BRANCH  10  14
ATOM     12 CL   UNL     1      31.253  -9.951 -21.520  0.00  0.00    -0.075 Cl
ATOM     13  S   UNL     1      32.827 -12.038 -22.927  0.00  0.00    -0.071 S 
ATOM     14  C   UNL     1      33.060 -13.559 -22.222  0.00  0.00    +0.084 C 
ATOM     15  C   UNL     1      32.483 -13.714 -21.010  0.00  0.00    +0.012 C 
ATOM     16  C   UNL     1      31.805 -12.523 -20.621  0.00  0.00    +0.019 C 
ATOM     17  C   UNL     1      31.912 -11.533 -21.572  0.00  0.00    +0.087 C 
ENDBRANCH  10  14
ENDBRANCH   3   9
BRANCH   4  18
ATOM     18  O   UNL     1      34.476 -17.413 -24.959  0.00  0.00    -0.385 OA
ATOM     19  H   UNL     1      34.975 -18.146 -25.352  0.00  0.00    +0.210 HD
ENDBRANCH   4  18
ENDBRANCH   1   2
BRANCH   1  22
ATOM     20  O   UNL     1      34.531 -19.390 -20.464  0.00  0.00    -0.277 OA
ATOM     21  N   UNL     1      35.842 -21.256 -19.905  0.00  0.00    -0.284 N 
ATOM     22  C   UNL     1      35.523 -20.098 -20.611  0.00  0.00    +0.205 C 
ATOM     23  H   UNL     1      36.682 -21.702 -20.160  0.00  0.00    +0.155 HD
BRANCH  21  25
ATOM     24  F   UNL     1      37.057 -22.018 -17.527  0.00  0.00    -0.203 F 
ATOM     25  C   UNL     1      35.101 -21.867 -18.865  0.00  0.00    +0.078 C 
ATOM     26  C   UNL     1      35.744 -22.232 -17.695  0.00  0.00    +0.155 C 
ATOM     27  C   UNL     1      33.744 -22.086 -19.044  0.00  0.00    +0.018 C 
ATOM     28  C   UNL     1      33.644 -23.062 -16.836  0.00  0.00    +0.061 C 
ATOM     29  C   UNL     1      35.010 -22.834 -16.672  0.00  0.00    +0.046 C 
ATOM     30  C   UNL     1      33.011 -22.688 -18.022  0.00  0.00    +0.017 C 
BRANCH  28  32
ATOM     31  O   UNL     1      30.762 -23.009 -16.589  0.00  0.00    -0.269 OA
ATOM     32  N   UNL     1      32.882 -23.689 -15.773  0.00  0.00    -0.233 N 
ATOM     33  C   UNL     1      31.464 -23.624 -15.787  0.00  0.00    +0.257 C 
ATOM     34  C   UNL     1      33.533 -24.338 -14.722  0.00  0.00    +0.072 C 
ATOM     35  C   UNL     1      30.755 -24.337 -14.679  0.00  0.00    +0.059 C 
ATOM     36  C   UNL     1      32.876 -24.940 -13.725  0.00  0.00    +0.017 C 
ATOM     37  C   UNL     1      31.443 -24.944 -13.710  0.00  0.00    +0.006 C 
ENDBRANCH  28  32
ENDBRANCH  21  25
ENDBRANCH   1  22
TORSDOF 7
ENDMDL
MODEL 8
REMARK VINA RESULT:     -10.3      3.352      4.986
REMARK  Name = 11979006
REMARK  7 active torsions:
REMARK  status: ('A' for Active; 'I' for Inactive)
REMARK    1  A    between atoms: C_1  and  N_2
REMARK    2  A    between atoms: C_1  and  C_22
REMARK    3  A    between atoms: C_3  and  N_9
REMARK    4  A    between atoms: C_4  and  O_18
REMARK    5  A    between atoms: C_10  and  C_14
REMARK    6  A    between atoms: N_21  and  C_25
REMARK    7  A    between atoms: C_28  and  N_32
REMARK                            x       y       z     vdW  Elec       q    Type
REMARK                         _______ _______ _______ _____ _____    ______ ____
ROOT
ATOM      1  C   UNL     1      34.434 -17.851 -23.827  0.00  0.00    +0.010 C 
ENDROOT
BRANCH   1   2
ATOM      2  N   UNL     1      35.260 -18.612 -22.902  0.00  0.00    +0.396 N 
ATOM      3  C   UNL     1      35.502 -20.181 -21.222  0.00  0.00    +0.076 C 
ATOM      4  C   UNL     1      36.059 -18.858 -20.692  0.00  0.00    +0.106 C 
ATOM      5  C   UNL     1      34.554 -19.762 -22.336  0.00  0.00    -0.054 C 
ATOM      6  C   UNL     1      35.694 -17.814 -21.749  0.00  0.00    -0.045 C 
ATOM      7  H   UNL     1      36.055 -18.908 -23.467  0.00  0.00    -0.079 HD
BRANCH   3   9
ATOM      8  O   UNL     1      36.779 -21.723 -19.237  0.00  0.00    -0.270 OA
ATOM      9  N   UNL     1      34.843 -20.949 -20.201  0.00  0.00    -0.302 N 
ATOM     10  C   UNL     1      35.548 -21.690 -19.250  0.00  0.00    +0.252 C 
ATOM     11  H   UNL     1      33.859 -20.954 -20.172  0.00  0.00    +0.150 HD
BRANCH  10  14
ATOM     12 CL   UNL     1      33.915 -24.213 -14.672  0.00  0.00    -0.075 Cl
ATOM     13  S   UNL     1      35.455 -22.786 -16.771  0.00  0.00    -0.071 S 
ATOM     14  C   UNL     1      34.733 -22.398 -18.251  0.00  0.00    +0.084 C 
ATOM     15  C   UNL     1      33.445 -22.789 -18.371  0.00  0.00    +0.012 C 
ATOM     16  C   UNL     1      33.008 -23.448 -17.186  0.00  0.00    +0.019 C 
ATOM     17  C   UNL     1      34.002 -23.514 -16.235  0.00  0.00    +0.087 C 
ENDBRANCH  10  14
ENDBRANCH   3   9
BRANCH   4  18
ATOM     18  O   UNL     1      37.470 -18.964 -20.552  0.00  0.00    -0.385 OA
ATOM     19  H   UNL     1      37.698 -19.022 -19.611  0.00  0.00    +0.210 HD
ENDBRANCH   4  18
ENDBRANCH   1   2
BRANCH   1  22
ATOM     20  O   UNL     1      35.824 -15.904 -23.514  0.00  0.00    -0.277 OA
ATOM     21  N   UNL     1      33.491 -15.664 -23.620  0.00  0.00    -0.284 N 
ATOM     22  C   UNL     1      34.694 -16.367 -23.632  0.00  0.00    +0.205 C 
ATOM     23  H   UNL     1      32.673 -16.201 -23.734  0.00  0.00    +0.155 HD
BRANCH  21  25
ATOM     24  F   UNL     1      33.795 -13.923 -25.762  0.00  0.00    -0.203 F 
ATOM     25  C   UNL     1      33.306 -14.269 -23.464  0.00  0.00    +0.078 C 
ATOM     26  C   UNL     1      33.467 -13.435 -24.557  0.00  0.00    +0.155 C 
ATOM     27  C   UNL     1      32.968 -13.770 -22.217  0.00  0.00    +0.018 C 
ATOM     28  C   UNL     1      32.944 -11.541 -23.151  0.00  0.00    +0.061 C 
ATOM     29  C   UNL     1      33.285 -12.061 -24.400  0.00  0.00    +0.046 C 
ATOM     30  C   UNL     1      32.786 -12.396 -22.059  0.00  0.00    +0.017 C 
BRANCH  28  32
ATOM     31  O   UNL     1      34.985  -9.530 -23.545  0.00  0.00    -0.269 OA
ATOM     32  N   UNL     1      32.756 -10.113 -22.987  0.00  0.00    -0.233 N 
ATOM     33  C   UNL     1      33.830  -9.223 -23.250  0.00  0.00    +0.257 C 
ATOM     34  C   UNL     1      31.530  -9.606 -22.551  0.00  0.00    +0.072 C 
ATOM     35  C   UNL     1      33.536  -7.764 -23.103  0.00  0.00    +0.059 C 
ATOM     36  C   UNL     1      31.303  -8.297 -22.396  0.00  0.00    +0.017 C 
ATOM     37  C   UNL     1      32.337  -7.350 -22.688  0.00  0.00    +0.006 C 
ENDBRANCH  28  32
ENDBRANCH  21  25
ENDBRANCH   1  22
TORSDOF 7
ENDMDL
MODEL 9
REMARK VINA RESULT:     -10.2      3.301      4.982
REMARK  Name = 11979006
REMARK  7 active torsions:
REMARK  status: ('A' for Active; 'I' for Inactive)
REMARK    1  A    between atoms: C_1  and  N_2
REMARK    2  A    between atoms: C_1  and  C_22
REMARK    3  A    between atoms: C_3  and  N_9
REMARK    4  A    between atoms: C_4  and  O_18
REMARK    5  A    between atoms: C_10  and  C_14
REMARK    6  A    between atoms: N_21  and  C_25
REMARK    7  A    between atoms: C_28  and  N_32
REMARK                            x       y       z     vdW  Elec       q    Type
REMARK                         _______ _______ _______ _____ _____    ______ ____
ROOT
ATOM      1  C   UNL     1      32.317 -24.136 -16.171  0.00  0.00    +0.010 C 
ENDROOT
BRANCH   1   2
ATOM      2  N   UNL     1      33.123 -23.728 -15.031  0.00  0.00    +0.396 N 
ATOM      3  C   UNL     1      35.156 -23.552 -13.945  0.00  0.00    +0.076 C 
ATOM      4  C   UNL     1      34.231 -24.376 -13.047  0.00  0.00    +0.106 C 
ATOM      5  C   UNL     1      34.554 -23.706 -15.335  0.00  0.00    -0.054 C 
ATOM      6  C   UNL     1      32.980 -24.637 -13.887  0.00  0.00    -0.045 C 
ATOM      7  H   UNL     1      32.779 -22.795 -14.807  0.00  0.00    -0.079 HD
BRANCH   3   9
ATOM      8  O   UNL     1      36.177 -25.890 -15.146  0.00  0.00    -0.270 OA
ATOM      9  N   UNL     1      36.521 -23.999 -13.887  0.00  0.00    -0.302 N 
ATOM     10  C   UNL     1      36.951 -25.173 -14.511  0.00  0.00    +0.252 C 
ATOM     11  H   UNL     1      37.176 -23.459 -13.390  0.00  0.00    +0.150 HD
BRANCH  10  14
ATOM     12 CL   UNL     1      41.683 -27.640 -13.282  0.00  0.00    -0.075 Cl
ATOM     13  S   UNL     1      38.823 -26.908 -13.594  0.00  0.00    -0.071 S 
ATOM     14  C   UNL     1      38.384 -25.480 -14.388  0.00  0.00    +0.084 C 
ATOM     15  C   UNL     1      39.422 -24.743 -14.842  0.00  0.00    +0.012 C 
ATOM     16  C   UNL     1      40.661 -25.375 -14.527  0.00  0.00    +0.019 C 
ATOM     17  C   UNL     1      40.479 -26.560 -13.850  0.00  0.00    +0.087 C 
ENDBRANCH  10  14
ENDBRANCH   3   9
BRANCH   4  18
ATOM     18  O   UNL     1      33.911 -23.621 -11.885  0.00  0.00    -0.385 OA
ATOM     19  H   UNL     1      33.053 -23.912 -11.537  0.00  0.00    +0.210 HD
ENDBRANCH   4  18
ENDBRANCH   1   2
BRANCH   1  22
ATOM     20  O   UNL     1      31.199 -22.262 -17.201  0.00  0.00    -0.277 OA
ATOM     21  N   UNL     1      33.354 -22.867 -17.912  0.00  0.00    -0.284 N 
ATOM     22  C   UNL     1      32.196 -22.976 -17.144  0.00  0.00    +0.205 C 
ATOM     23  H   UNL     1      34.061 -23.528 -17.727  0.00  0.00    +0.155 HD
BRANCH  21  25
ATOM     24  F   UNL     1      35.958 -22.364 -18.732  0.00  0.00    -0.203 F 
ATOM     25  C   UNL     1      33.634 -21.919 -18.925  0.00  0.00    +0.078 C 
ATOM     26  C   UNL     1      34.946 -21.697 -19.306  0.00  0.00    +0.155 C 
ATOM     27  C   UNL     1      32.584 -21.233 -19.514  0.00  0.00    +0.018 C 
ATOM     28  C   UNL     1      34.174 -20.062 -20.908  0.00  0.00    +0.061 C 
ATOM     29  C   UNL     1      35.218 -20.762 -20.304  0.00  0.00    +0.046 C 
ATOM     30  C   UNL     1      32.856 -20.297 -20.512  0.00  0.00    +0.017 C 
BRANCH  28  32
ATOM     31  O   UNL     1      35.339 -17.450 -20.477  0.00  0.00    -0.269 OA
ATOM     32  N   UNL     1      34.457 -19.089 -21.945  0.00  0.00    -0.233 N 
ATOM     33  C   UNL     1      35.070 -17.854 -21.607  0.00  0.00    +0.257 C 
ATOM     34  C   UNL     1      34.111 -19.349 -23.272  0.00  0.00    +0.072 C 
ATOM     35  C   UNL     1      35.370 -16.929 -22.743  0.00  0.00    +0.059 C 
ATOM     36  C   UNL     1      34.361 -18.490 -24.266  0.00  0.00    +0.017 C 
ATOM     37  C   UNL     1      35.017 -17.246 -23.991  0.00  0.00    +0.006 C 
ENDBRANCH  28  32
ENDBRANCH  21  25
ENDBRANCH   1  22
TORSDOF 7
ENDMDL
