MODEL 1
REMARK VINA RESULT:     -12.1      0.000      0.000
REMARK  Name = 42611257
REMARK  7 active torsions:
REMARK  status: ('A' for Active; 'I' for Inactive)
REMARK    1  A    between atoms: C_2  and  C_6
REMARK    2  A    between atoms: C_2  and  C_22
REMARK    3  A    between atoms: C_10  and  C_14
REMARK    4  A    between atoms: C_23  and  N_28
REMARK    5  A    between atoms: N_28  and  S_30
REMARK    6  A    between atoms: S_30  and  C_33
REMARK    7  A    between atoms: C_33  and  C_34
REMARK                            x       y       z     vdW  Elec       q    Type
REMARK                         _______ _______ _______ _____ _____    ______ ____
ROOT
ATOM      1  O   UNL     1      34.991 -13.584 -21.513  0.00  0.00    -0.286 OA
ATOM      2  C   UNL     1      34.037 -13.646 -22.318  0.00  0.00    +0.201 C 
ENDROOT
BRANCH   2   6
ATOM      3  N   UNL     1      33.697 -15.615 -25.322  0.00  0.00    -0.297 N 
ATOM      4  N   UNL     1      34.279 -17.896 -24.814  0.00  0.00    -0.229 NA
ATOM      5  C   UNL     1      34.299 -16.039 -23.213  0.00  0.00    +0.036 C 
ATOM      6  C   UNL     1      33.992 -14.658 -23.335  0.00  0.00    +0.056 C 
ATOM      7  C   UNL     1      34.104 -16.606 -24.469  0.00  0.00    +0.132 C 
ATOM      8  C   UNL     1      34.722 -16.889 -22.178  0.00  0.00    +0.004 C 
ATOM      9  C   UNL     1      33.625 -14.426 -24.643  0.00  0.00    +0.066 C 
ATOM     10  C   UNL     1      34.917 -18.235 -22.481  0.00  0.00    +0.019 C 
ATOM     11  C   UNL     1      34.687 -18.668 -23.780  0.00  0.00    +0.100 C 
ATOM     12  H   UNL     1      33.488 -15.737 -26.276  0.00  0.00    +0.154 HD
BRANCH  10  14
ATOM     13 CL   UNL     1      36.721 -22.054 -18.281  0.00  0.00    -0.082 Cl
ATOM     14  C   UNL     1      35.354 -19.161 -21.461  0.00  0.00    +0.002 C 
ATOM     15  C   UNL     1      34.460 -20.094 -20.936  0.00  0.00    +0.001 C 
ATOM     16  C   UNL     1      36.671 -19.121 -21.002  0.00  0.00    +0.001 C 
ATOM     17  C   UNL     1      34.883 -20.989 -19.953  0.00  0.00    +0.011 C 
ATOM     18  C   UNL     1      37.093 -20.015 -20.019  0.00  0.00    +0.011 C 
ATOM     19  C   UNL     1      36.200 -20.950 -19.494  0.00  0.00    +0.058 C 
ENDBRANCH  10  14
ENDBRANCH   2   6
BRANCH   2  22
ATOM     20  F   UNL     1      34.064 -11.183 -23.696  0.00  0.00    -0.203 F 
ATOM     21  F   UNL     1      31.817 -13.981 -20.591  0.00  0.00    -0.204 F 
ATOM     22  C   UNL     1      32.965 -12.604 -22.149  0.00  0.00    +0.095 C 
ATOM     23  C   UNL     1      32.045 -10.440 -22.704  0.00  0.00    +0.092 C 
ATOM     24  C   UNL     1      33.038 -11.407 -22.861  0.00  0.00    +0.160 C 
ATOM     25  C   UNL     1      31.898 -12.835 -21.280  0.00  0.00    +0.145 C 
ATOM     26  C   UNL     1      30.978 -10.671 -21.835  0.00  0.00    +0.020 C 
ATOM     27  C   UNL     1      30.905 -11.868 -21.124  0.00  0.00    +0.031 C 
BRANCH  23  28
ATOM     28  N   UNL     1      32.117  -9.214 -23.431  0.00  0.00    -0.217 N 
ATOM     29  H   UNL     1      32.040  -9.203 -24.413  0.00  0.00    +0.173 HD
BRANCH  28  30
ATOM     30  S   UNL     1      32.341  -7.754 -22.544  0.00  0.00    +0.054 S 
ATOM     31  O   UNL     1      31.096  -7.008 -22.566  0.00  0.00    -0.154 OA
ATOM     32  O   UNL     1      33.025  -8.008 -21.293  0.00  0.00    -0.154 OA
BRANCH  30  33
ATOM     33  C   UNL     1      33.471  -6.903 -23.621  0.00  0.00    +0.172 C 
BRANCH  33  34
ATOM     34  C   UNL     1      34.913  -7.115 -23.191  0.00  0.00    +0.027 C 
ATOM     35  C   UNL     1      35.502  -8.368 -23.818  0.00  0.00    +0.002 C 
ENDBRANCH  33  34
ENDBRANCH  30  33
ENDBRANCH  28  30
ENDBRANCH  23  28
ENDBRANCH   2  22
TORSDOF 7
ENDMDL
MODEL 2
REMARK VINA RESULT:     -11.3      4.054      6.980
REMARK  Name = 42611257
REMARK  7 active torsions:
REMARK  status: ('A' for Active; 'I' for Inactive)
REMARK    1  A    between atoms: C_2  and  C_6
REMARK    2  A    between atoms: C_2  and  C_22
REMARK    3  A    between atoms: C_10  and  C_14
REMARK    4  A    between atoms: C_23  and  N_28
REMARK    5  A    between atoms: N_28  and  S_30
REMARK    6  A    between atoms: S_30  and  C_33
REMARK    7  A    between atoms: C_33  and  C_34
REMARK                            x       y       z     vdW  Elec       q    Type
REMARK                         _______ _______ _______ _____ _____    ______ ____
ROOT
ATOM      1  O   UNL     1      36.472 -19.718 -20.358  0.00  0.00    -0.286 OA
ATOM      2  C   UNL     1      35.315 -19.605 -20.816  0.00  0.00    +0.201 C 
ENDROOT
BRANCH   2   6
ATOM      3  N   UNL     1      32.178 -21.201 -20.023  0.00  0.00    -0.297 N 
ATOM      4  N   UNL     1      32.519 -22.673 -18.148  0.00  0.00    -0.229 NA
ATOM      5  C   UNL     1      34.249 -21.284 -19.192  0.00  0.00    +0.036 C 
ATOM      6  C   UNL     1      34.229 -20.375 -20.282  0.00  0.00    +0.056 C 
ATOM      7  C   UNL     1      32.956 -21.781 -19.057  0.00  0.00    +0.132 C 
ATOM      8  C   UNL     1      35.219 -21.753 -18.290  0.00  0.00    +0.004 C 
ATOM      9  C   UNL     1      32.941 -20.344 -20.774  0.00  0.00    +0.066 C 
ATOM     10  C   UNL     1      34.819 -22.678 -17.328  0.00  0.00    +0.019 C 
ATOM     11  C   UNL     1      33.493 -23.090 -17.307  0.00  0.00    +0.100 C 
ATOM     12  H   UNL     1      31.218 -21.373 -20.158  0.00  0.00    +0.154 HD
BRANCH  10  14
ATOM     13 CL   UNL     1      38.731 -24.826 -13.383  0.00  0.00    -0.082 Cl
ATOM     14  C   UNL     1      35.769 -23.200 -16.372  0.00  0.00    +0.002 C 
ATOM     15  C   UNL     1      37.075 -22.709 -16.346  0.00  0.00    +0.001 C 
ATOM     16  C   UNL     1      35.380 -24.194 -15.474  0.00  0.00    +0.001 C 
ATOM     17  C   UNL     1      37.991 -23.212 -15.421  0.00  0.00    +0.011 C 
ATOM     18  C   UNL     1      36.295 -24.696 -14.550  0.00  0.00    +0.011 C 
ATOM     19  C   UNL     1      37.601 -24.206 -14.523  0.00  0.00    +0.058 C 
ENDBRANCH  10  14
ENDBRANCH   2   6
BRANCH   2  22
ATOM     20  F   UNL     1      35.197 -16.814 -20.414  0.00  0.00    -0.203 F 
ATOM     21  F   UNL     1      35.091 -20.393 -23.528  0.00  0.00    -0.204 F 
ATOM     22  C   UNL     1      35.148 -18.624 -21.945  0.00  0.00    +0.095 C 
ATOM     23  C   UNL     1      34.941 -16.345 -22.722  0.00  0.00    +0.092 C 
ATOM     24  C   UNL     1      35.097 -17.256 -21.677  0.00  0.00    +0.160 C 
ATOM     25  C   UNL     1      35.043 -19.081 -23.258  0.00  0.00    +0.145 C 
ATOM     26  C   UNL     1      34.837 -16.804 -24.037  0.00  0.00    +0.020 C 
ATOM     27  C   UNL     1      34.889 -18.171 -24.304  0.00  0.00    +0.031 C 
BRANCH  23  28
ATOM     28  N   UNL     1      34.889 -14.945 -22.451  0.00  0.00    -0.217 N 
ATOM     29  H   UNL     1      35.503 -14.532 -21.801  0.00  0.00    +0.173 HD
BRANCH  28  30
ATOM     30  S   UNL     1      33.724 -13.997 -23.294  0.00  0.00    +0.054 S 
ATOM     31  O   UNL     1      34.335 -12.728 -23.650  0.00  0.00    -0.154 OA
ATOM     32  O   UNL     1      33.036 -14.788 -24.293  0.00  0.00    -0.154 OA
BRANCH  30  33
ATOM     33  C   UNL     1      32.577 -13.665 -21.976  0.00  0.00    +0.172 C 
BRANCH  33  34
ATOM     34  C   UNL     1      33.213 -13.900 -20.616  0.00  0.00    +0.027 C 
ATOM     35  C   UNL     1      32.256 -14.603 -19.668  0.00  0.00    +0.002 C 
ENDBRANCH  33  34
ENDBRANCH  30  33
ENDBRANCH  28  30
ENDBRANCH  23  28
ENDBRANCH   2  22
TORSDOF 7
ENDMDL
MODEL 3
REMARK VINA RESULT:     -11.2      5.398     10.441
REMARK  Name = 42611257
REMARK  7 active torsions:
REMARK  status: ('A' for Active; 'I' for Inactive)
REMARK    1  A    between atoms: C_2  and  C_6
REMARK    2  A    between atoms: C_2  and  C_22
REMARK    3  A    between atoms: C_10  and  C_14
REMARK    4  A    between atoms: C_23  and  N_28
REMARK    5  A    between atoms: N_28  and  S_30
REMARK    6  A    between atoms: S_30  and  C_33
REMARK    7  A    between atoms: C_33  and  C_34
REMARK                            x       y       z     vdW  Elec       q    Type
REMARK                         _______ _______ _______ _____ _____    ______ ____
ROOT
ATOM      1  O   UNL     1      35.309 -16.841 -20.424  0.00  0.00    -0.286 OA
ATOM      2  C   UNL     1      35.209 -17.773 -21.251  0.00  0.00    +0.201 C 
ENDROOT
BRANCH   2   6
ATOM      3  N   UNL     1      34.604 -17.838 -24.806  0.00  0.00    -0.297 N 
ATOM      4  N   UNL     1      33.691 -15.709 -25.468  0.00  0.00    -0.229 NA
ATOM      5  C   UNL     1      34.327 -16.330 -23.182  0.00  0.00    +0.036 C 
ATOM      6  C   UNL     1      34.870 -17.515 -22.621  0.00  0.00    +0.056 C 
ATOM      7  C   UNL     1      34.173 -16.564 -24.546  0.00  0.00    +0.132 C 
ATOM      8  C   UNL     1      33.942 -15.069 -22.695  0.00  0.00    +0.004 C 
ATOM      9  C   UNL     1      35.030 -18.425 -23.643  0.00  0.00    +0.066 C 
ATOM     10  C   UNL     1      33.436 -14.147 -23.608  0.00  0.00    +0.019 C 
ATOM     11  C   UNL     1      33.336 -14.513 -24.944  0.00  0.00    +0.100 C 
ATOM     12  H   UNL     1      34.606 -18.266 -25.693  0.00  0.00    +0.154 HD
BRANCH  10  14
ATOM     13 CL   UNL     1      31.720  -8.735 -21.807  0.00  0.00    -0.082 Cl
ATOM     14  C   UNL     1      33.021 -12.833 -23.171  0.00  0.00    +0.002 C 
ATOM     15  C   UNL     1      33.657 -11.697 -23.672  0.00  0.00    +0.001 C 
ATOM     16  C   UNL     1      31.984 -12.702 -22.247  0.00  0.00    +0.001 C 
ATOM     17  C   UNL     1      33.254 -10.430 -23.251  0.00  0.00    +0.011 C 
ATOM     18  C   UNL     1      31.582 -11.435 -21.825  0.00  0.00    +0.011 C 
ATOM     19  C   UNL     1      32.217 -10.298 -22.327  0.00  0.00    +0.058 C 
ENDBRANCH  10  14
ENDBRANCH   2   6
BRANCH   2  22
ATOM     20  F   UNL     1      33.136 -19.504 -20.430  0.00  0.00    -0.203 F 
ATOM     21  F   UNL     1      37.807 -18.870 -20.976  0.00  0.00    -0.204 F 
ATOM     22  C   UNL     1      35.464 -19.156 -20.715  0.00  0.00    +0.095 C 
ATOM     23  C   UNL     1      34.627 -21.243 -19.828  0.00  0.00    +0.092 C 
ATOM     24  C   UNL     1      34.393 -19.961 -20.326  0.00  0.00    +0.160 C 
ATOM     25  C   UNL     1      36.770 -19.634 -20.606  0.00  0.00    +0.145 C 
ATOM     26  C   UNL     1      35.935 -21.720 -19.720  0.00  0.00    +0.020 C 
ATOM     27  C   UNL     1      37.005 -20.916 -20.109  0.00  0.00    +0.031 C 
BRANCH  23  28
ATOM     28  N   UNL     1      33.533 -22.069 -19.430  0.00  0.00    -0.217 N 
ATOM     29  H   UNL     1      32.659 -22.001 -19.878  0.00  0.00    +0.173 HD
BRANCH  28  30
ATOM     30  S   UNL     1      33.785 -23.188 -18.146  0.00  0.00    +0.054 S 
ATOM     31  O   UNL     1      33.674 -24.533 -18.682  0.00  0.00    -0.154 OA
ATOM     32  O   UNL     1      34.930 -22.808 -17.344  0.00  0.00    -0.154 OA
BRANCH  30  33
ATOM     33  C   UNL     1      32.321 -22.895 -17.182  0.00  0.00    +0.172 C 
BRANCH  33  34
ATOM     34  C   UNL     1      32.437 -23.509 -15.797  0.00  0.00    +0.027 C 
ATOM     35  C   UNL     1      31.165 -23.308 -14.990  0.00  0.00    +0.002 C 
ENDBRANCH  33  34
ENDBRANCH  30  33
ENDBRANCH  28  30
ENDBRANCH  23  28
ENDBRANCH   2  22
TORSDOF 7
ENDMDL
MODEL 4
REMARK VINA RESULT:     -10.6      4.478     10.248
REMARK  Name = 42611257
REMARK  7 active torsions:
REMARK  status: ('A' for Active; 'I' for Inactive)
REMARK    1  A    between atoms: C_2  and  C_6
REMARK    2  A    between atoms: C_2  and  C_22
REMARK    3  A    between atoms: C_10  and  C_14
REMARK    4  A    between atoms: C_23  and  N_28
REMARK    5  A    between atoms: N_28  and  S_30
REMARK    6  A    between atoms: S_30  and  C_33
REMARK    7  A    between atoms: C_33  and  C_34
REMARK                            x       y       z     vdW  Elec       q    Type
REMARK                         _______ _______ _______ _____ _____    ______ ____
ROOT
ATOM      1  O   UNL     1      30.111 -11.780 -21.390  0.00  0.00    -0.286 OA
ATOM      2  C   UNL     1      31.310 -11.473 -21.215  0.00  0.00    +0.201 C 
ENDROOT
BRANCH   2   6
ATOM      3  N   UNL     1      31.976  -9.257 -18.447  0.00  0.00    -0.297 N 
ATOM      4  N   UNL     1      32.945  -7.227 -19.306  0.00  0.00    -0.229 NA
ATOM      5  C   UNL     1      32.257  -9.151 -20.660  0.00  0.00    +0.036 C 
ATOM      6  C   UNL     1      31.679 -10.406 -20.330  0.00  0.00    +0.056 C 
ATOM      7  C   UNL     1      32.429  -8.460 -19.464  0.00  0.00    +0.132 C 
ATOM      8  C   UNL     1      32.659  -8.508 -21.843  0.00  0.00    +0.004 C 
ATOM      9  C   UNL     1      31.518 -10.443 -18.962  0.00  0.00    +0.066 C 
ATOM     10  C   UNL     1      33.200  -7.229 -21.735  0.00  0.00    +0.019 C 
ATOM     11  C   UNL     1      33.316  -6.656 -20.475  0.00  0.00    +0.100 C 
ATOM     12  H   UNL     1      31.980  -9.017 -17.492  0.00  0.00    +0.154 HD
BRANCH  10  14
ATOM     13 CL   UNL     1      34.985  -4.286 -26.596  0.00  0.00    -0.082 Cl
ATOM     14  C   UNL     1      33.635  -6.514 -22.913  0.00  0.00    +0.002 C 
ATOM     15  C   UNL     1      34.862  -6.819 -23.502  0.00  0.00    +0.001 C 
ATOM     16  C   UNL     1      32.825  -5.520 -23.463  0.00  0.00    +0.001 C 
ATOM     17  C   UNL     1      35.280  -6.130 -24.641  0.00  0.00    +0.011 C 
ATOM     18  C   UNL     1      33.243  -4.831 -24.601  0.00  0.00    +0.011 C 
ATOM     19  C   UNL     1      34.470  -5.136 -25.191  0.00  0.00    +0.058 C 
ENDBRANCH  10  14
ENDBRANCH   2   6
BRANCH   2  22
ATOM     20  F   UNL     1      32.347 -13.921 -20.266  0.00  0.00    -0.203 F 
ATOM     21  F   UNL     1      32.330 -10.685 -23.737  0.00  0.00    -0.204 F 
ATOM     22  C   UNL     1      32.316 -12.286 -21.983  0.00  0.00    +0.095 C 
ATOM     23  C   UNL     1      33.722 -14.243 -22.168  0.00  0.00    +0.092 C 
ATOM     24  C   UNL     1      32.789 -13.489 -21.457  0.00  0.00    +0.160 C 
ATOM     25  C   UNL     1      32.777 -11.838 -23.221  0.00  0.00    +0.145 C 
ATOM     26  C   UNL     1      34.183 -13.794 -23.407  0.00  0.00    +0.020 C 
ATOM     27  C   UNL     1      33.710 -12.593 -23.933  0.00  0.00    +0.031 C 
BRANCH  23  28
ATOM     28  N   UNL     1      34.208 -15.474 -21.632  0.00  0.00    -0.217 N 
ATOM     29  H   UNL     1      34.130 -15.672 -20.671  0.00  0.00    +0.173 HD
BRANCH  28  30
ATOM     30  S   UNL     1      34.931 -16.602 -22.714  0.00  0.00    +0.054 S 
ATOM     31  O   UNL     1      33.886 -17.181 -23.539  0.00  0.00    -0.154 OA
ATOM     32  O   UNL     1      36.125 -16.048 -23.319  0.00  0.00    -0.154 OA
BRANCH  30  33
ATOM     33  C   UNL     1      35.435 -17.861 -21.563  0.00  0.00    +0.172 C 
BRANCH  33  34
ATOM     34  C   UNL     1      34.980 -19.238 -22.015  0.00  0.00    +0.027 C 
ATOM     35  C   UNL     1      34.537 -20.091 -20.839  0.00  0.00    +0.002 C 
ENDBRANCH  33  34
ENDBRANCH  30  33
ENDBRANCH  28  30
ENDBRANCH  23  28
ENDBRANCH   2  22
TORSDOF 7
ENDMDL
MODEL 5
REMARK VINA RESULT:     -10.3      1.481      1.890
REMARK  Name = 42611257
REMARK  7 active torsions:
REMARK  status: ('A' for Active; 'I' for Inactive)
REMARK    1  A    between atoms: C_2  and  C_6
REMARK    2  A    between atoms: C_2  and  C_22
REMARK    3  A    between atoms: C_10  and  C_14
REMARK    4  A    between atoms: C_23  and  N_28
REMARK    5  A    between atoms: N_28  and  S_30
REMARK    6  A    between atoms: S_30  and  C_33
REMARK    7  A    between atoms: C_33  and  C_34
REMARK                            x       y       z     vdW  Elec       q    Type
REMARK                         _______ _______ _______ _____ _____    ______ ____
ROOT
ATOM      1  O   UNL     1      34.549 -13.333 -21.442  0.00  0.00    -0.286 OA
ATOM      2  C   UNL     1      33.847 -13.135 -22.457  0.00  0.00    +0.201 C 
ENDROOT
BRANCH   2   6
ATOM      3  N   UNL     1      33.449 -14.974 -25.534  0.00  0.00    -0.297 N 
ATOM      4  N   UNL     1      34.085 -17.265 -25.147  0.00  0.00    -0.229 NA
ATOM      5  C   UNL     1      34.122 -15.480 -23.466  0.00  0.00    +0.036 C 
ATOM      6  C   UNL     1      33.788 -14.101 -23.516  0.00  0.00    +0.056 C 
ATOM      7  C   UNL     1      33.899 -15.995 -24.740  0.00  0.00    +0.132 C 
ATOM      8  C   UNL     1      34.591 -16.367 -22.483  0.00  0.00    +0.004 C 
ATOM      9  C   UNL     1      33.377 -13.818 -24.801  0.00  0.00    +0.066 C 
ATOM     10  C   UNL     1      34.800 -17.695 -22.852  0.00  0.00    +0.019 C 
ATOM     11  C   UNL     1      34.537 -18.074 -24.162  0.00  0.00    +0.100 C 
ATOM     12  H   UNL     1      33.213 -15.058 -26.487  0.00  0.00    +0.154 HD
BRANCH  10  14
ATOM     13 CL   UNL     1      36.786 -21.658 -18.873  0.00  0.00    -0.082 Cl
ATOM     14  C   UNL     1      35.283 -18.657 -21.888  0.00  0.00    +0.002 C 
ATOM     15  C   UNL     1      36.611 -18.613 -21.462  0.00  0.00    +0.001 C 
ATOM     16  C   UNL     1      34.420 -19.629 -21.382  0.00  0.00    +0.001 C 
ATOM     17  C   UNL     1      37.076 -19.540 -20.529  0.00  0.00    +0.011 C 
ATOM     18  C   UNL     1      34.885 -20.557 -20.450  0.00  0.00    +0.011 C 
ATOM     19  C   UNL     1      36.213 -20.513 -20.023  0.00  0.00    +0.058 C 
ENDBRANCH  10  14
ENDBRANCH   2   6
BRANCH   2  22
ATOM     20  F   UNL     1      34.942 -10.740 -23.472  0.00  0.00    -0.203 F 
ATOM     21  F   UNL     1      31.192 -12.879 -21.502  0.00  0.00    -0.204 F 
ATOM     22  C   UNL     1      33.086 -11.837 -22.487  0.00  0.00    +0.095 C 
ATOM     23  C   UNL     1      32.982  -9.485 -23.030  0.00  0.00    +0.092 C 
ATOM     24  C   UNL     1      33.687 -10.689 -23.002  0.00  0.00    +0.160 C 
ATOM     25  C   UNL     1      31.780 -11.782 -21.999  0.00  0.00    +0.145 C 
ATOM     26  C   UNL     1      31.676  -9.430 -22.542  0.00  0.00    +0.020 C 
ATOM     27  C   UNL     1      31.075 -10.578 -22.027  0.00  0.00    +0.031 C 
BRANCH  23  28
ATOM     28  N   UNL     1      33.595  -8.308 -23.557  0.00  0.00    -0.217 N 
ATOM     29  H   UNL     1      34.533  -8.090 -23.351  0.00  0.00    +0.173 HD
BRANCH  28  30
ATOM     30  S   UNL     1      32.647  -7.280 -24.563  0.00  0.00    +0.054 S 
ATOM     31  O   UNL     1      31.966  -8.102 -25.546  0.00  0.00    -0.154 OA
ATOM     32  O   UNL     1      31.911  -6.315 -23.771  0.00  0.00    -0.154 OA
BRANCH  30  33
ATOM     33  C   UNL     1      33.937  -6.409 -25.424  0.00  0.00    +0.172 C 
BRANCH  33  34
ATOM     34  C   UNL     1      33.951  -6.761 -26.903  0.00  0.00    +0.027 C 
ATOM     35  C   UNL     1      34.040  -5.516 -27.770  0.00  0.00    +0.002 C 
ENDBRANCH  33  34
ENDBRANCH  30  33
ENDBRANCH  28  30
ENDBRANCH  23  28
ENDBRANCH   2  22
TORSDOF 7
ENDMDL
MODEL 6
REMARK VINA RESULT:     -10.2      6.546     10.401
REMARK  Name = 42611257
REMARK  7 active torsions:
REMARK  status: ('A' for Active; 'I' for Inactive)
REMARK    1  A    between atoms: C_2  and  C_6
REMARK    2  A    between atoms: C_2  and  C_22
REMARK    3  A    between atoms: C_10  and  C_14
REMARK    4  A    between atoms: C_23  and  N_28
REMARK    5  A    between atoms: N_28  and  S_30
REMARK    6  A    between atoms: S_30  and  C_33
REMARK    7  A    between atoms: C_33  and  C_34
REMARK                            x       y       z     vdW  Elec       q    Type
REMARK                         _______ _______ _______ _____ _____    ______ ____
ROOT
ATOM      1  O   UNL     1      33.670 -24.172 -19.415  0.00  0.00    -0.286 OA
ATOM      2  C   UNL     1      33.846 -23.195 -18.656  0.00  0.00    +0.201 C 
ENDROOT
BRANCH   2   6
ATOM      3  N   UNL     1      32.048 -22.984 -15.536  0.00  0.00    -0.297 N 
ATOM      4  N   UNL     1      33.485 -23.765 -13.768  0.00  0.00    -0.229 NA
ATOM      5  C   UNL     1      34.093 -23.647 -16.140  0.00  0.00    +0.036 C 
ATOM      6  C   UNL     1      33.387 -23.223 -17.297  0.00  0.00    +0.056 C 
ATOM      7  C   UNL     1      33.230 -23.486 -15.060  0.00  0.00    +0.132 C 
ATOM      8  C   UNL     1      35.375 -24.155 -15.873  0.00  0.00    +0.004 C 
ATOM      9  C   UNL     1      32.132 -22.820 -16.894  0.00  0.00    +0.066 C 
ATOM     10  C   UNL     1      35.691 -24.461 -14.551  0.00  0.00    +0.019 C 
ATOM     11  C   UNL     1      34.732 -24.251 -13.569  0.00  0.00    +0.100 C 
ATOM     12  H   UNL     1      31.258 -22.774 -14.986  0.00  0.00    +0.154 HD
BRANCH  10  14
ATOM     13 CL   UNL     1      41.057 -26.636 -13.153  0.00  0.00    -0.082 Cl
ATOM     14  C   UNL     1      36.993 -24.988 -14.210  0.00  0.00    +0.002 C 
ATOM     15  C   UNL     1      37.136 -25.845 -13.119  0.00  0.00    +0.001 C 
ATOM     16  C   UNL     1      38.107 -24.640 -14.975  0.00  0.00    +0.001 C 
ATOM     17  C   UNL     1      38.392 -26.355 -12.792  0.00  0.00    +0.011 C 
ATOM     18  C   UNL     1      39.363 -25.149 -14.648  0.00  0.00    +0.011 C 
ATOM     19  C   UNL     1      39.506 -26.007 -13.557  0.00  0.00    +0.058 C 
ENDBRANCH  10  14
ENDBRANCH   2   6
BRANCH   2  22
ATOM     20  F   UNL     1      32.596 -21.403 -20.442  0.00  0.00    -0.203 F 
ATOM     21  F   UNL     1      36.553 -22.573 -18.100  0.00  0.00    -0.204 F 
ATOM     22  C   UNL     1      34.557 -22.014 -19.258  0.00  0.00    +0.095 C 
ATOM     23  C   UNL     1      34.538 -20.071 -20.695  0.00  0.00    +0.092 C 
ATOM     24  C   UNL     1      33.880 -21.166 -20.135  0.00  0.00    +0.160 C 
ATOM     25  C   UNL     1      35.893 -21.766 -18.941  0.00  0.00    +0.145 C 
ATOM     26  C   UNL     1      35.874 -19.823 -20.377  0.00  0.00    +0.020 C 
ATOM     27  C   UNL     1      36.551 -20.670 -19.500  0.00  0.00    +0.031 C 
BRANCH  23  28
ATOM     28  N   UNL     1      33.848 -19.201 -21.593  0.00  0.00    -0.217 N 
ATOM     29  H   UNL     1      33.095 -18.647 -21.281  0.00  0.00    +0.173 HD
BRANCH  28  30
ATOM     30  S   UNL     1      34.367 -19.148 -23.233  0.00  0.00    +0.054 S 
ATOM     31  O   UNL     1      35.310 -20.231 -23.451  0.00  0.00    -0.154 OA
ATOM     32  O   UNL     1      33.243 -18.959 -24.127  0.00  0.00    -0.154 OA
BRANCH  30  33
ATOM     33  C   UNL     1      35.309 -17.640 -23.215  0.00  0.00    +0.172 C 
BRANCH  33  34
ATOM     34  C   UNL     1      34.716 -16.605 -24.156  0.00  0.00    +0.027 C 
ATOM     35  C   UNL     1      34.477 -15.282 -23.448  0.00  0.00    +0.002 C 
ENDBRANCH  33  34
ENDBRANCH  30  33
ENDBRANCH  28  30
ENDBRANCH  23  28
ENDBRANCH   2  22
TORSDOF 7
ENDMDL
MODEL 7
REMARK VINA RESULT:     -10.1      6.429     10.358
REMARK  Name = 42611257
REMARK  7 active torsions:
REMARK  status: ('A' for Active; 'I' for Inactive)
REMARK    1  A    between atoms: C_2  and  C_6
REMARK    2  A    between atoms: C_2  and  C_22
REMARK    3  A    between atoms: C_10  and  C_14
REMARK    4  A    between atoms: C_23  and  N_28
REMARK    5  A    between atoms: N_28  and  S_30
REMARK    6  A    between atoms: S_30  and  C_33
REMARK    7  A    between atoms: C_33  and  C_34
REMARK                            x       y       z     vdW  Elec       q    Type
REMARK                         _______ _______ _______ _____ _____    ______ ____
ROOT
ATOM      1  O   UNL     1      33.506 -24.079 -19.353  0.00  0.00    -0.286 OA
ATOM      2  C   UNL     1      33.802 -23.168 -18.550  0.00  0.00    +0.201 C 
ENDROOT
BRANCH   2   6
ATOM      3  N   UNL     1      32.058 -23.008 -15.396  0.00  0.00    -0.297 N 
ATOM      4  N   UNL     1      33.528 -23.809 -13.664  0.00  0.00    -0.229 NA
ATOM      5  C   UNL     1      34.094 -23.655 -16.045  0.00  0.00    +0.036 C 
ATOM      6  C   UNL     1      33.367 -23.217 -17.183  0.00  0.00    +0.056 C 
ATOM      7  C   UNL     1      33.250 -23.512 -14.948  0.00  0.00    +0.132 C 
ATOM      8  C   UNL     1      35.383 -24.162 -15.808  0.00  0.00    +0.004 C 
ATOM      9  C   UNL     1      32.118 -22.824 -16.753  0.00  0.00    +0.066 C 
ATOM     10  C   UNL     1      35.723 -24.485 -14.495  0.00  0.00    +0.019 C 
ATOM     11  C   UNL     1      34.780 -24.292 -13.494  0.00  0.00    +0.100 C 
ATOM     12  H   UNL     1      31.277 -22.809 -14.830  0.00  0.00    +0.154 HD
BRANCH  10  14
ATOM     13 CL   UNL     1      41.119 -26.653 -13.210  0.00  0.00    -0.082 Cl
ATOM     14  C   UNL     1      37.032 -25.011 -14.185  0.00  0.00    +0.002 C 
ATOM     15  C   UNL     1      38.133 -24.651 -14.963  0.00  0.00    +0.001 C 
ATOM     16  C   UNL     1      37.195 -25.880 -13.106  0.00  0.00    +0.001 C 
ATOM     17  C   UNL     1      39.396 -25.159 -14.661  0.00  0.00    +0.011 C 
ATOM     18  C   UNL     1      38.459 -26.388 -12.804  0.00  0.00    +0.011 C 
ATOM     19  C   UNL     1      39.560 -26.027 -13.582  0.00  0.00    +0.058 C 
ENDBRANCH  10  14
ENDBRANCH   2   6
BRANCH   2  22
ATOM     20  F   UNL     1      32.790 -21.303 -20.411  0.00  0.00    -0.203 F 
ATOM     21  F   UNL     1      36.506 -22.731 -17.829  0.00  0.00    -0.204 F 
ATOM     22  C   UNL     1      34.628 -22.041 -19.108  0.00  0.00    +0.095 C 
ATOM     23  C   UNL     1      34.831 -20.109 -20.545  0.00  0.00    +0.092 C 
ATOM     24  C   UNL     1      34.066 -21.154 -20.026  0.00  0.00    +0.160 C 
ATOM     25  C   UNL     1      35.956 -21.884 -18.710  0.00  0.00    +0.145 C 
ATOM     26  C   UNL     1      36.159 -19.952 -20.146  0.00  0.00    +0.020 C 
ATOM     27  C   UNL     1      36.721 -20.839 -19.228  0.00  0.00    +0.031 C 
BRANCH  23  28
ATOM     28  N   UNL     1      34.258 -19.199 -21.484  0.00  0.00    -0.217 N 
ATOM     29  H   UNL     1      33.295 -19.222 -21.688  0.00  0.00    +0.173 HD
BRANCH  28  30
ATOM     30  S   UNL     1      35.299 -18.061 -22.251  0.00  0.00    +0.054 S 
ATOM     31  O   UNL     1      35.183 -16.792 -21.553  0.00  0.00    -0.154 OA
ATOM     32  O   UNL     1      36.600 -18.641 -22.512  0.00  0.00    -0.154 OA
BRANCH  30  33
ATOM     33  C   UNL     1      34.462 -17.870 -23.808  0.00  0.00    +0.172 C 
BRANCH  33  34
ATOM     34  C   UNL     1      34.835 -16.559 -24.481  0.00  0.00    +0.027 C 
ATOM     35  C   UNL     1      33.601 -15.773 -24.889  0.00  0.00    +0.002 C 
ENDBRANCH  33  34
ENDBRANCH  30  33
ENDBRANCH  28  30
ENDBRANCH  23  28
ENDBRANCH   2  22
TORSDOF 7
ENDMDL
MODEL 8
REMARK VINA RESULT:      -9.9      9.498     12.564
REMARK  Name = 42611257
REMARK  7 active torsions:
REMARK  status: ('A' for Active; 'I' for Inactive)
REMARK    1  A    between atoms: C_2  and  C_6
REMARK    2  A    between atoms: C_2  and  C_22
REMARK    3  A    between atoms: C_10  and  C_14
REMARK    4  A    between atoms: C_23  and  N_28
REMARK    5  A    between atoms: N_28  and  S_30
REMARK    6  A    between atoms: S_30  and  C_33
REMARK    7  A    between atoms: C_33  and  C_34
REMARK                            x       y       z     vdW  Elec       q    Type
REMARK                         _______ _______ _______ _____ _____    ______ ____
ROOT
ATOM      1  O   UNL     1      34.572 -25.769 -15.692  0.00  0.00    -0.286 OA
ATOM      2  C   UNL     1      34.501 -24.580 -15.313  0.00  0.00    +0.201 C 
ENDROOT
BRANCH   2   6
ATOM      3  N   UNL     1      37.568 -22.809 -14.626  0.00  0.00    -0.297 N 
ATOM      4  N   UNL     1      37.976 -21.256 -16.422  0.00  0.00    -0.229 NA
ATOM      5  C   UNL     1      36.056 -22.773 -16.269  0.00  0.00    +0.036 C 
ATOM      6  C   UNL     1      35.662 -23.736 -15.303  0.00  0.00    +0.056 C 
ATOM      7  C   UNL     1      37.247 -22.213 -15.817  0.00  0.00    +0.132 C 
ATOM      8  C   UNL     1      35.540 -22.300 -17.487  0.00  0.00    +0.004 C 
ATOM      9  C   UNL     1      36.611 -23.736 -14.304  0.00  0.00    +0.066 C 
ATOM     10  C   UNL     1      36.256 -21.308 -18.154  0.00  0.00    +0.019 C 
ATOM     11  C   UNL     1      37.435 -20.839 -17.589  0.00  0.00    +0.100 C 
ATOM     12  H   UNL     1      38.365 -22.603 -14.085  0.00  0.00    +0.154 HD
BRANCH  10  14
ATOM     13 CL   UNL     1      34.295 -19.126 -23.338  0.00  0.00    -0.082 Cl
ATOM     14  C   UNL     1      35.780 -20.780 -19.412  0.00  0.00    +0.002 C 
ATOM     15  C   UNL     1      34.465 -21.013 -19.815  0.00  0.00    +0.001 C 
ATOM     16  C   UNL     1      36.636 -20.036 -20.224  0.00  0.00    +0.001 C 
ATOM     17  C   UNL     1      34.006 -20.501 -21.028  0.00  0.00    +0.011 C 
ATOM     18  C   UNL     1      36.178 -19.525 -21.438  0.00  0.00    +0.011 C 
ATOM     19  C   UNL     1      34.862 -19.757 -21.840  0.00  0.00    +0.058 C 
ENDBRANCH  10  14
ENDBRANCH   2   6
BRANCH   2  22
ATOM     20  F   UNL     1      32.465 -23.876 -17.136  0.00  0.00    -0.203 F 
ATOM     21  F   UNL     1      33.757 -24.321 -12.592  0.00  0.00    -0.204 F 
ATOM     22  C   UNL     1      33.141 -24.109 -14.875  0.00  0.00    +0.095 C 
ATOM     23  C   UNL     1      30.918 -23.338 -15.425  0.00  0.00    +0.092 C 
ATOM     24  C   UNL     1      32.179 -23.776 -15.829  0.00  0.00    +0.160 C 
ATOM     25  C   UNL     1      32.841 -24.004 -13.517  0.00  0.00    +0.145 C 
ATOM     26  C   UNL     1      30.618 -23.235 -14.066  0.00  0.00    +0.020 C 
ATOM     27  C   UNL     1      31.580 -23.567 -13.113  0.00  0.00    +0.031 C 
BRANCH  23  28
ATOM     28  N   UNL     1      29.931 -22.998 -16.399  0.00  0.00    -0.217 N 
ATOM     29  H   UNL     1      30.135 -22.365 -17.125  0.00  0.00    +0.173 HD
BRANCH  28  30
ATOM     30  S   UNL     1      28.375 -23.724 -16.268  0.00  0.00    +0.054 S 
ATOM     31  O   UNL     1      27.813 -23.848 -17.601  0.00  0.00    -0.154 OA
ATOM     32  O   UNL     1      28.408 -24.864 -15.374  0.00  0.00    -0.154 OA
BRANCH  30  33
ATOM     33  C   UNL     1      27.486 -22.417 -15.454  0.00  0.00    +0.172 C 
BRANCH  33  34
ATOM     34  C   UNL     1      26.059 -22.315 -15.966  0.00  0.00    +0.027 C 
ATOM     35  C   UNL     1      25.957 -21.356 -17.141  0.00  0.00    +0.002 C 
ENDBRANCH  33  34
ENDBRANCH  30  33
ENDBRANCH  28  30
ENDBRANCH  23  28
ENDBRANCH   2  22
TORSDOF 7
ENDMDL
MODEL 9
REMARK VINA RESULT:      -9.7      8.160     12.637
REMARK  Name = 42611257
REMARK  7 active torsions:
REMARK  status: ('A' for Active; 'I' for Inactive)
REMARK    1  A    between atoms: C_2  and  C_6
REMARK    2  A    between atoms: C_2  and  C_22
REMARK    3  A    between atoms: C_10  and  C_14
REMARK    4  A    between atoms: C_23  and  N_28
REMARK    5  A    between atoms: N_28  and  S_30
REMARK    6  A    between atoms: S_30  and  C_33
REMARK    7  A    between atoms: C_33  and  C_34
REMARK                            x       y       z     vdW  Elec       q    Type
REMARK                         _______ _______ _______ _____ _____    ______ ____
ROOT
ATOM      1  O   UNL     1      33.455 -23.538 -19.100  0.00  0.00    -0.286 OA
ATOM      2  C   UNL     1      33.961 -23.109 -18.041  0.00  0.00    +0.201 C 
ENDROOT
BRANCH   2   6
ATOM      3  N   UNL     1      37.223 -21.677 -17.472  0.00  0.00    -0.297 N 
ATOM      4  N   UNL     1      37.614 -19.976 -19.131  0.00  0.00    -0.229 NA
ATOM      5  C   UNL     1      35.585 -21.340 -18.952  0.00  0.00    +0.036 C 
ATOM      6  C   UNL     1      35.190 -22.368 -18.055  0.00  0.00    +0.056 C 
ATOM      7  C   UNL     1      36.857 -20.931 -18.560  0.00  0.00    +0.132 C 
ATOM      8  C   UNL     1      35.012 -20.697 -20.061  0.00  0.00    +0.004 C 
ATOM      9  C   UNL     1      36.217 -22.554 -17.156  0.00  0.00    +0.066 C 
ATOM     10  C   UNL     1      35.755 -19.699 -20.690  0.00  0.00    +0.019 C 
ATOM     11  C   UNL     1      37.015 -19.391 -20.193  0.00  0.00    +0.100 C 
ATOM     12  H   UNL     1      38.078 -21.596 -16.990  0.00  0.00    +0.154 HD
BRANCH  10  14
ATOM     13 CL   UNL     1      33.556 -16.816 -25.415  0.00  0.00    -0.082 Cl
ATOM     14  C   UNL     1      35.222 -19.001 -21.837  0.00  0.00    +0.002 C 
ATOM     15  C   UNL     1      34.577 -19.711 -22.850  0.00  0.00    +0.001 C 
ATOM     16  C   UNL     1      35.354 -17.615 -21.932  0.00  0.00    +0.001 C 
ATOM     17  C   UNL     1      34.061 -19.035 -23.956  0.00  0.00    +0.011 C 
ATOM     18  C   UNL     1      34.839 -16.940 -23.038  0.00  0.00    +0.011 C 
ATOM     19  C   UNL     1      34.192 -17.650 -24.050  0.00  0.00    +0.058 C 
ENDBRANCH  10  14
ENDBRANCH   2   6
BRANCH   2  22
ATOM     20  F   UNL     1      35.003 -24.758 -16.001  0.00  0.00    -0.203 F 
ATOM     21  F   UNL     1      31.372 -22.096 -17.499  0.00  0.00    -0.204 F 
ATOM     22  C   UNL     1      33.206 -23.421 -16.777  0.00  0.00    +0.095 C 
ATOM     23  C   UNL     1      33.080 -24.536 -14.637  0.00  0.00    +0.092 C 
ATOM     24  C   UNL     1      33.780 -24.245 -15.808  0.00  0.00    +0.160 C 
ATOM     25  C   UNL     1      31.933 -22.888 -16.575  0.00  0.00    +0.145 C 
ATOM     26  C   UNL     1      31.806 -24.001 -14.435  0.00  0.00    +0.020 C 
ATOM     27  C   UNL     1      31.234 -23.178 -15.404  0.00  0.00    +0.031 C 
BRANCH  23  28
ATOM     28  N   UNL     1      33.664 -25.378 -13.643  0.00  0.00    -0.217 N 
ATOM     29  H   UNL     1      33.325 -26.290 -13.490  0.00  0.00    +0.173 HD
BRANCH  28  30
ATOM     30  S   UNL     1      34.978 -24.755 -12.720  0.00  0.00    +0.054 S 
ATOM     31  O   UNL     1      35.235 -23.392 -13.150  0.00  0.00    -0.154 OA
ATOM     32  O   UNL     1      34.817 -25.065 -11.314  0.00  0.00    -0.154 OA
BRANCH  30  33
ATOM     33  C   UNL     1      36.306 -25.754 -13.352  0.00  0.00    +0.172 C 
BRANCH  33  34
ATOM     34  C   UNL     1      37.389 -25.962 -12.305  0.00  0.00    +0.027 C 
ATOM     35  C   UNL     1      38.632 -25.149 -12.623  0.00  0.00    +0.002 C 
ENDBRANCH  33  34
ENDBRANCH  30  33
ENDBRANCH  28  30
ENDBRANCH  23  28
ENDBRANCH   2  22
TORSDOF 7
ENDMDL
