MODEL 1
REMARK VINA RESULT:     -12.2      0.000      0.000
REMARK  Name = 16040289
REMARK  6 active torsions:
REMARK  status: ('A' for Active; 'I' for Inactive)
REMARK    1  A    between atoms: N_2  and  C_20
REMARK    2  A    between atoms: C_3  and  C_6
REMARK    3  A    between atoms: N_11  and  C_13
REMARK    4  A    between atoms: C_13  and  C_15
REMARK    5  A    between atoms: C_23  and  O_26
REMARK    6  A    between atoms: O_26  and  C_27
REMARK                            x       y       z     vdW  Elec       q    Type
REMARK                         _______ _______ _______ _____ _____    ______ ____
ROOT
ATOM      1  O   UNL     1      34.066 -23.966 -17.370  0.00  0.00    -0.270 OA
ATOM      2  N   UNL     1      32.739 -22.101 -17.905  0.00  0.00    -0.280 N 
ATOM      3  C   UNL     1      33.094 -23.243 -17.177  0.00  0.00    +0.252 C 
ATOM      4  H   UNL     1      31.921 -21.638 -17.610  0.00  0.00    +0.155 HD
ENDROOT
BRANCH   3   6
ATOM      5  N   UNL     1      31.801 -24.271 -13.807  0.00  0.00    -0.229 NA
ATOM      6  C   UNL     1      32.166 -23.612 -16.077  0.00  0.00    +0.085 C 
ATOM      7  C   UNL     1      32.623 -23.930 -14.825  0.00  0.00    +0.133 C 
ATOM      8  C   UNL     1      30.816 -23.629 -16.342  0.00  0.00    +0.009 C 
ATOM      9  C   UNL     1      29.938 -23.974 -15.320  0.00  0.00    +0.021 C 
ATOM     10  C   UNL     1      30.477 -24.284 -14.081  0.00  0.00    +0.100 C 
ATOM     11  N   UNL     1      34.016 -23.907 -14.569  0.00  0.00    -0.314 N 
ATOM     12  H   UNL     1      34.627 -23.659 -15.301  0.00  0.00    +0.149 HD
BRANCH  11  13
ATOM     13  C   UNL     1      34.570 -24.225 -13.293  0.00  0.00    +0.115 C 
BRANCH  13  15
ATOM     14  N   UNL     1      37.743 -27.076 -13.707  0.00  0.00    -0.242 NA
ATOM     15  C   UNL     1      35.684 -25.225 -13.438  0.00  0.00    +0.000 C 
ATOM     16  C   UNL     1      36.483 -25.523 -12.348  0.00  0.00    +0.018 C 
ATOM     17  C   UNL     1      35.898 -25.839 -14.661  0.00  0.00    +0.018 C 
ATOM     18  C   UNL     1      37.495 -26.451 -12.534  0.00  0.00    +0.099 C 
ATOM     19  C   UNL     1      36.936 -26.753 -14.742  0.00  0.00    +0.099 C 
ENDBRANCH  13  15
ENDBRANCH  11  13
ENDBRANCH   3   6
BRANCH   2  20
ATOM     20  C   UNL     1      33.401 -21.537 -18.996  0.00  0.00    +0.051 C 
ATOM     21  C   UNL     1      34.778 -21.703 -19.139  0.00  0.00    +0.018 C 
ATOM     22  C   UNL     1      32.684 -20.806 -19.944  0.00  0.00    +0.018 C 
ATOM     23  C   UNL     1      34.723 -20.408 -21.178  0.00  0.00    +0.145 C 
ATOM     24  C   UNL     1      35.439 -21.138 -20.231  0.00  0.00    +0.039 C 
ATOM     25  C   UNL     1      33.346 -20.242 -21.035  0.00  0.00    +0.039 C 
BRANCH  23  26
ATOM     26  O   UNL     1      35.368 -19.855 -22.242  0.00  0.00    -0.453 OA
BRANCH  26  27
ATOM     27  C   UNL     1      35.131 -18.519 -22.516  0.00  0.00    +0.145 C 
ATOM     28  C   UNL     1      35.311 -17.583 -21.512  0.00  0.00    +0.037 C 
ATOM     29  C   UNL     1      34.720 -18.154 -23.785  0.00  0.00    +0.037 C 
ATOM     30  C   UNL     1      35.071 -16.237 -21.788  0.00  0.00    +0.003 C 
ATOM     31  C   UNL     1      34.480 -16.807 -24.061  0.00  0.00    +0.003 C 
ATOM     32  C   UNL     1      34.656 -15.850 -23.062  0.00  0.00    +0.000 C 
ENDBRANCH  26  27
ENDBRANCH  23  26
ENDBRANCH   2  20
TORSDOF 6
ENDMDL
MODEL 2
REMARK VINA RESULT:     -11.5      1.542      4.722
REMARK  Name = 16040289
REMARK  6 active torsions:
REMARK  status: ('A' for Active; 'I' for Inactive)
REMARK    1  A    between atoms: N_2  and  C_20
REMARK    2  A    between atoms: C_3  and  C_6
REMARK    3  A    between atoms: N_11  and  C_13
REMARK    4  A    between atoms: C_13  and  C_15
REMARK    5  A    between atoms: C_23  and  O_26
REMARK    6  A    between atoms: O_26  and  C_27
REMARK                            x       y       z     vdW  Elec       q    Type
REMARK                         _______ _______ _______ _____ _____    ______ ____
ROOT
ATOM      1  O   UNL     1      33.569 -24.210 -17.548  0.00  0.00    -0.270 OA
ATOM      2  N   UNL     1      35.022 -22.382 -17.268  0.00  0.00    -0.280 N 
ATOM      3  C   UNL     1      34.324 -23.527 -16.864  0.00  0.00    +0.252 C 
ATOM      4  H   UNL     1      35.587 -21.957 -16.583  0.00  0.00    +0.155 HD
ENDROOT
BRANCH   3   6
ATOM      5  N   UNL     1      33.616 -24.302 -13.260  0.00  0.00    -0.229 NA
ATOM      6  C   UNL     1      34.515 -23.922 -15.443  0.00  0.00    +0.085 C 
ATOM      7  C   UNL     1      33.471 -23.949 -14.557  0.00  0.00    +0.133 C 
ATOM      8  C   UNL     1      35.781 -24.264 -15.027  0.00  0.00    +0.009 C 
ATOM      9  C   UNL     1      35.971 -24.634 -13.700  0.00  0.00    +0.021 C 
ATOM     10  C   UNL     1      34.865 -24.636 -12.864  0.00  0.00    +0.100 C 
ATOM     11  N   UNL     1      32.173 -23.594 -15.003  0.00  0.00    -0.314 N 
ATOM     12  H   UNL     1      32.052 -23.336 -15.946  0.00  0.00    +0.149 HD
BRANCH  11  13
ATOM     13  C   UNL     1      31.036 -23.597 -14.142  0.00  0.00    +0.115 C 
BRANCH  13  15
ATOM     14  N   UNL     1      27.416 -23.660 -16.436  0.00  0.00    -0.242 NA
ATOM     15  C   UNL     1      29.766 -23.620 -14.948  0.00  0.00    +0.000 C 
ATOM     16  C   UNL     1      29.444 -24.743 -15.689  0.00  0.00    +0.018 C 
ATOM     17  C   UNL     1      28.930 -22.515 -14.939  0.00  0.00    +0.018 C 
ATOM     18  C   UNL     1      28.263 -24.713 -16.413  0.00  0.00    +0.099 C 
ATOM     19  C   UNL     1      27.772 -22.586 -15.696  0.00  0.00    +0.099 C 
ENDBRANCH  13  15
ENDBRANCH  11  13
ENDBRANCH   3   6
BRANCH   2  20
ATOM     20  C   UNL     1      35.015 -21.770 -18.522  0.00  0.00    +0.051 C 
ATOM     21  C   UNL     1      33.805 -21.451 -19.136  0.00  0.00    +0.018 C 
ATOM     22  C   UNL     1      36.221 -21.478 -19.160  0.00  0.00    +0.018 C 
ATOM     23  C   UNL     1      35.004 -20.547 -21.029  0.00  0.00    +0.145 C 
ATOM     24  C   UNL     1      33.799 -20.839 -20.390  0.00  0.00    +0.039 C 
ATOM     25  C   UNL     1      36.214 -20.865 -20.414  0.00  0.00    +0.039 C 
BRANCH  23  26
ATOM     26  O   UNL     1      34.998 -19.951 -22.253  0.00  0.00    -0.453 OA
BRANCH  26  27
ATOM     27  C   UNL     1      34.959 -18.568 -22.296  0.00  0.00    +0.145 C 
ATOM     28  C   UNL     1      34.772 -17.937 -23.513  0.00  0.00    +0.037 C 
ATOM     29  C   UNL     1      35.109 -17.852 -21.122  0.00  0.00    +0.037 C 
ATOM     30  C   UNL     1      34.733 -16.543 -23.557  0.00  0.00    +0.003 C 
ATOM     31  C   UNL     1      35.070 -16.458 -21.166  0.00  0.00    +0.003 C 
ATOM     32  C   UNL     1      34.883 -15.805 -22.383  0.00  0.00    +0.000 C 
ENDBRANCH  26  27
ENDBRANCH  23  26
ENDBRANCH   2  20
TORSDOF 6
ENDMDL
MODEL 3
REMARK VINA RESULT:     -11.3      7.107     13.477
REMARK  Name = 16040289
REMARK  6 active torsions:
REMARK  status: ('A' for Active; 'I' for Inactive)
REMARK    1  A    between atoms: N_2  and  C_20
REMARK    2  A    between atoms: C_3  and  C_6
REMARK    3  A    between atoms: N_11  and  C_13
REMARK    4  A    between atoms: C_13  and  C_15
REMARK    5  A    between atoms: C_23  and  O_26
REMARK    6  A    between atoms: O_26  and  C_27
REMARK                            x       y       z     vdW  Elec       q    Type
REMARK                         _______ _______ _______ _____ _____    ______ ____
ROOT
ATOM      1  O   UNL     1      31.547 -12.802 -22.116  0.00  0.00    -0.270 OA
ATOM      2  N   UNL     1      33.440 -13.087 -20.753  0.00  0.00    -0.280 N 
ATOM      3  C   UNL     1      32.293 -12.431 -21.216  0.00  0.00    +0.252 C 
ATOM      4  H   UNL     1      33.923 -12.643 -20.018  0.00  0.00    +0.155 HD
ENDROOT
BRANCH   3   6
ATOM      5  N   UNL     1      31.518  -8.797 -20.686  0.00  0.00    -0.229 NA
ATOM      6  C   UNL     1      31.984 -11.139 -20.550  0.00  0.00    +0.085 C 
ATOM      7  C   UNL     1      31.799  -9.985 -21.266  0.00  0.00    +0.133 C 
ATOM      8  C   UNL     1      31.884 -11.121 -19.178  0.00  0.00    +0.009 C 
ATOM      9  C   UNL     1      31.596  -9.917 -18.544  0.00  0.00    +0.021 C 
ATOM     10  C   UNL     1      31.423  -8.793 -19.337  0.00  0.00    +0.100 C 
ATOM     11  N   UNL     1      31.904 -10.022 -22.679  0.00  0.00    -0.314 N 
ATOM     12  H   UNL     1      32.108 -10.881 -23.115  0.00  0.00    +0.149 HD
BRANCH  11  13
ATOM     13  C   UNL     1      31.726  -8.865 -23.493  0.00  0.00    +0.115 C 
BRANCH  13  15
ATOM     14  N   UNL     1      35.413  -6.709 -23.858  0.00  0.00    -0.242 NA
ATOM     15  C   UNL     1      33.020  -8.107 -23.622  0.00  0.00    +0.000 C 
ATOM     16  C   UNL     1      32.997  -6.752 -23.901  0.00  0.00    +0.018 C 
ATOM     17  C   UNL     1      34.222  -8.775 -23.458  0.00  0.00    +0.018 C 
ATOM     18  C   UNL     1      34.214  -6.102 -24.009  0.00  0.00    +0.099 C 
ATOM     19  C   UNL     1      35.386  -8.033 -23.585  0.00  0.00    +0.099 C 
ENDBRANCH  13  15
ENDBRANCH  11  13
ENDBRANCH   3   6
BRANCH   2  20
ATOM     20  C   UNL     1      33.983 -14.290 -21.202  0.00  0.00    +0.051 C 
ATOM     21  C   UNL     1      34.166 -14.506 -22.568  0.00  0.00    +0.018 C 
ATOM     22  C   UNL     1      34.343 -15.278 -20.285  0.00  0.00    +0.018 C 
ATOM     23  C   UNL     1      35.069 -16.699 -22.100  0.00  0.00    +0.145 C 
ATOM     24  C   UNL     1      34.710 -15.711 -23.017  0.00  0.00    +0.039 C 
ATOM     25  C   UNL     1      34.886 -16.482 -20.735  0.00  0.00    +0.039 C 
BRANCH  23  26
ATOM     26  O   UNL     1      35.596 -17.874 -22.538  0.00  0.00    -0.453 OA
BRANCH  26  27
ATOM     27  C   UNL     1      35.735 -18.900 -21.619  0.00  0.00    +0.145 C 
ATOM     28  C   UNL     1      36.953 -19.078 -20.987  0.00  0.00    +0.037 C 
ATOM     29  C   UNL     1      34.653 -19.720 -21.356  0.00  0.00    +0.037 C 
ATOM     30  C   UNL     1      37.093 -20.113 -20.062  0.00  0.00    +0.003 C 
ATOM     31  C   UNL     1      34.793 -20.755 -20.431  0.00  0.00    +0.003 C 
ATOM     32  C   UNL     1      36.013 -20.950 -19.784  0.00  0.00    +0.000 C 
ENDBRANCH  26  27
ENDBRANCH  23  26
ENDBRANCH   2  20
TORSDOF 6
ENDMDL
MODEL 4
REMARK VINA RESULT:     -10.7      1.508      2.030
REMARK  Name = 16040289
REMARK  6 active torsions:
REMARK  status: ('A' for Active; 'I' for Inactive)
REMARK    1  A    between atoms: N_2  and  C_20
REMARK    2  A    between atoms: C_3  and  C_6
REMARK    3  A    between atoms: N_11  and  C_13
REMARK    4  A    between atoms: C_13  and  C_15
REMARK    5  A    between atoms: C_23  and  O_26
REMARK    6  A    between atoms: O_26  and  C_27
REMARK                            x       y       z     vdW  Elec       q    Type
REMARK                         _______ _______ _______ _____ _____    ______ ____
ROOT
ATOM      1  O   UNL     1      31.128 -22.037 -17.231  0.00  0.00    -0.270 OA
ATOM      2  N   UNL     1      33.178 -23.187 -17.183  0.00  0.00    -0.280 N 
ATOM      3  C   UNL     1      31.846 -22.945 -16.824  0.00  0.00    +0.252 C 
ATOM      4  H   UNL     1      33.605 -23.965 -16.756  0.00  0.00    +0.155 HD
ENDROOT
BRANCH   3   6
ATOM      5  N   UNL     1      31.499 -25.163 -13.817  0.00  0.00    -0.229 NA
ATOM      6  C   UNL     1      31.273 -23.884 -15.825  0.00  0.00    +0.085 C 
ATOM      7  C   UNL     1      31.994 -24.309 -14.740  0.00  0.00    +0.133 C 
ATOM      8  C   UNL     1      29.984 -24.326 -16.011  0.00  0.00    +0.009 C 
ATOM      9  C   UNL     1      29.439 -25.206 -15.082  0.00  0.00    +0.021 C 
ATOM     10  C   UNL     1      30.231 -25.591 -14.012  0.00  0.00    +0.100 C 
ATOM     11  N   UNL     1      33.321 -23.842 -14.564  0.00  0.00    -0.314 N 
ATOM     12  H   UNL     1      33.695 -23.218 -15.228  0.00  0.00    +0.149 HD
BRANCH  11  13
ATOM     13  C   UNL     1      34.135 -24.238 -13.462  0.00  0.00    +0.115 C 
BRANCH  13  15
ATOM     14  N   UNL     1      38.267 -24.314 -14.598  0.00  0.00    -0.242 NA
ATOM     15  C   UNL     1      35.586 -24.264 -13.861  0.00  0.00    +0.000 C 
ATOM     16  C   UNL     1      36.105 -23.233 -14.624  0.00  0.00    +0.018 C 
ATOM     17  C   UNL     1      36.386 -25.320 -13.461  0.00  0.00    +0.018 C 
ATOM     18  C   UNL     1      37.446 -23.304 -14.965  0.00  0.00    +0.099 C 
ATOM     19  C   UNL     1      37.715 -25.298 -13.854  0.00  0.00    +0.099 C 
ENDBRANCH  13  15
ENDBRANCH  11  13
ENDBRANCH   3   6
BRANCH   2  20
ATOM     20  C   UNL     1      33.974 -22.463 -18.069  0.00  0.00    +0.051 C 
ATOM     21  C   UNL     1      33.384 -21.723 -19.094  0.00  0.00    +0.018 C 
ATOM     22  C   UNL     1      35.363 -22.478 -17.931  0.00  0.00    +0.018 C 
ATOM     23  C   UNL     1      35.569 -21.015 -19.843  0.00  0.00    +0.145 C 
ATOM     24  C   UNL     1      34.182 -20.999 -19.981  0.00  0.00    +0.039 C 
ATOM     25  C   UNL     1      36.160 -21.754 -18.818  0.00  0.00    +0.039 C 
BRANCH  23  26
ATOM     26  O   UNL     1      36.347 -20.310 -20.709  0.00  0.00    -0.453 OA
BRANCH  26  27
ATOM     27  C   UNL     1      35.717 -19.429 -21.571  0.00  0.00    +0.145 C 
ATOM     28  C   UNL     1      35.781 -18.071 -21.311  0.00  0.00    +0.037 C 
ATOM     29  C   UNL     1      35.038 -19.928 -22.668  0.00  0.00    +0.037 C 
ATOM     30  C   UNL     1      35.145 -17.183 -22.179  0.00  0.00    +0.003 C 
ATOM     31  C   UNL     1      34.402 -19.040 -23.536  0.00  0.00    +0.003 C 
ATOM     32  C   UNL     1      34.456 -17.668 -23.290  0.00  0.00    +0.000 C 
ENDBRANCH  26  27
ENDBRANCH  23  26
ENDBRANCH   2  20
TORSDOF 6
ENDMDL
MODEL 5
REMARK VINA RESULT:     -10.7      2.133      4.664
REMARK  Name = 16040289
REMARK  6 active torsions:
REMARK  status: ('A' for Active; 'I' for Inactive)
REMARK    1  A    between atoms: N_2  and  C_20
REMARK    2  A    between atoms: C_3  and  C_6
REMARK    3  A    between atoms: N_11  and  C_13
REMARK    4  A    between atoms: C_13  and  C_15
REMARK    5  A    between atoms: C_23  and  O_26
REMARK    6  A    between atoms: O_26  and  C_27
REMARK                            x       y       z     vdW  Elec       q    Type
REMARK                         _______ _______ _______ _____ _____    ______ ____
ROOT
ATOM      1  O   UNL     1      34.281 -22.345 -19.122  0.00  0.00    -0.270 OA
ATOM      2  N   UNL     1      36.038 -20.785 -19.195  0.00  0.00    -0.280 N 
ATOM      3  C   UNL     1      35.297 -21.843 -18.653  0.00  0.00    +0.252 C 
ATOM      4  H   UNL     1      36.832 -20.508 -18.682  0.00  0.00    +0.155 HD
ENDROOT
BRANCH   3   6
ATOM      5  N   UNL     1      35.482 -23.733 -15.416  0.00  0.00    -0.229 NA
ATOM      6  C   UNL     1      35.799 -22.379 -17.362  0.00  0.00    +0.085 C 
ATOM      7  C   UNL     1      35.050 -23.232 -16.595  0.00  0.00    +0.133 C 
ATOM      8  C   UNL     1      37.052 -21.996 -16.941  0.00  0.00    +0.009 C 
ATOM      9  C   UNL     1      37.532 -22.490 -15.733  0.00  0.00    +0.021 C 
ATOM     10  C   UNL     1      36.714 -23.349 -15.015  0.00  0.00    +0.100 C 
ATOM     11  N   UNL     1      33.762 -23.617 -17.045  0.00  0.00    -0.314 N 
ATOM     12  H   UNL     1      33.435 -23.261 -17.902  0.00  0.00    +0.149 HD
BRANCH  11  13
ATOM     13  C   UNL     1      32.922 -24.501 -16.304  0.00  0.00    +0.115 C 
BRANCH  13  15
ATOM     14  N   UNL     1      29.538 -22.391 -14.733  0.00  0.00    -0.242 NA
ATOM     15  C   UNL     1      31.734 -23.760 -15.754  0.00  0.00    +0.000 C 
ATOM     16  C   UNL     1      30.688 -23.421 -16.594  0.00  0.00    +0.018 C 
ATOM     17  C   UNL     1      31.699 -23.425 -14.411  0.00  0.00    +0.018 C 
ATOM     18  C   UNL     1      29.618 -22.740 -16.037  0.00  0.00    +0.099 C 
ATOM     19  C   UNL     1      30.583 -22.745 -13.952  0.00  0.00    +0.099 C 
ENDBRANCH  13  15
ENDBRANCH  11  13
ENDBRANCH   3   6
BRANCH   2  20
ATOM     20  C   UNL     1      35.792 -20.077 -20.371  0.00  0.00    +0.051 C 
ATOM     21  C   UNL     1      36.799 -19.294 -20.937  0.00  0.00    +0.018 C 
ATOM     22  C   UNL     1      34.539 -20.150 -20.979  0.00  0.00    +0.018 C 
ATOM     23  C   UNL     1      35.299 -18.658 -22.722  0.00  0.00    +0.145 C 
ATOM     24  C   UNL     1      36.552 -18.586 -22.114  0.00  0.00    +0.039 C 
ATOM     25  C   UNL     1      34.293 -19.440 -22.155  0.00  0.00    +0.039 C 
BRANCH  23  26
ATOM     26  O   UNL     1      35.058 -17.965 -23.868  0.00  0.00    -0.453 OA
BRANCH  26  27
ATOM     27  C   UNL     1      34.608 -16.661 -23.750  0.00  0.00    +0.145 C 
ATOM     28  C   UNL     1      34.923 -15.941 -22.611  0.00  0.00    +0.037 C 
ATOM     29  C   UNL     1      33.855 -16.112 -24.772  0.00  0.00    +0.037 C 
ATOM     30  C   UNL     1      34.468 -14.627 -22.491  0.00  0.00    +0.003 C 
ATOM     31  C   UNL     1      33.400 -14.799 -24.652  0.00  0.00    +0.003 C 
ATOM     32  C   UNL     1      33.708 -14.057 -23.511  0.00  0.00    +0.000 C 
ENDBRANCH  26  27
ENDBRANCH  23  26
ENDBRANCH   2  20
TORSDOF 6
ENDMDL
MODEL 6
REMARK VINA RESULT:     -10.5      7.827     14.752
REMARK  Name = 16040289
REMARK  6 active torsions:
REMARK  status: ('A' for Active; 'I' for Inactive)
REMARK    1  A    between atoms: N_2  and  C_20
REMARK    2  A    between atoms: C_3  and  C_6
REMARK    3  A    between atoms: N_11  and  C_13
REMARK    4  A    between atoms: C_13  and  C_15
REMARK    5  A    between atoms: C_23  and  O_26
REMARK    6  A    between atoms: O_26  and  C_27
REMARK                            x       y       z     vdW  Elec       q    Type
REMARK                         _______ _______ _______ _____ _____    ______ ____
ROOT
ATOM      1  O   UNL     1      34.603 -11.349 -24.045  0.00  0.00    -0.270 OA
ATOM      2  N   UNL     1      33.113 -12.752 -22.888  0.00  0.00    -0.280 N 
ATOM      3  C   UNL     1      33.600 -11.527 -23.362  0.00  0.00    +0.252 C 
ATOM      4  H   UNL     1      32.290 -12.709 -22.350  0.00  0.00    +0.155 HD
ENDROOT
BRANCH   3   6
ATOM      5  N   UNL     1      32.677  -7.971 -22.595  0.00  0.00    -0.229 NA
ATOM      6  C   UNL     1      32.816 -10.330 -22.960  0.00  0.00    +0.085 C 
ATOM      7  C   UNL     1      33.367  -9.076 -22.957  0.00  0.00    +0.133 C 
ATOM      8  C   UNL     1      31.504 -10.508 -22.584  0.00  0.00    +0.009 C 
ATOM      9  C   UNL     1      30.762  -9.394 -22.205  0.00  0.00    +0.021 C 
ATOM     10  C   UNL     1      31.390  -8.159 -22.227  0.00  0.00    +0.100 C 
ATOM     11  N   UNL     1      34.719  -8.912 -23.349  0.00  0.00    -0.314 N 
ATOM     12  H   UNL     1      35.233  -9.708 -23.616  0.00  0.00    +0.149 HD
BRANCH  11  13
ATOM     13  C   UNL     1      35.364  -7.640 -23.372  0.00  0.00    +0.115 C 
BRANCH  13  15
ATOM     14  N   UNL     1      34.211  -5.438 -26.863  0.00  0.00    -0.242 NA
ATOM     15  C   UNL     1      34.960  -6.867 -24.598  0.00  0.00    +0.000 C 
ATOM     16  C   UNL     1      35.153  -7.420 -25.851  0.00  0.00    +0.018 C 
ATOM     17  C   UNL     1      34.397  -5.609 -24.459  0.00  0.00    +0.018 C 
ATOM     18  C   UNL     1      34.764  -6.669 -26.948  0.00  0.00    +0.099 C 
ATOM     19  C   UNL     1      34.041  -4.939 -25.619  0.00  0.00    +0.099 C 
ENDBRANCH  13  15
ENDBRANCH  11  13
ENDBRANCH   3   6
BRANCH   2  20
ATOM     20  C   UNL     1      33.651 -14.024 -23.083  0.00  0.00    +0.051 C 
ATOM     21  C   UNL     1      34.381 -14.636 -22.064  0.00  0.00    +0.018 C 
ATOM     22  C   UNL     1      33.459 -14.683 -24.297  0.00  0.00    +0.018 C 
ATOM     23  C   UNL     1      34.727 -16.569 -23.474  0.00  0.00    +0.145 C 
ATOM     24  C   UNL     1      34.919 -15.909 -22.260  0.00  0.00    +0.039 C 
ATOM     25  C   UNL     1      33.997 -15.956 -24.492  0.00  0.00    +0.039 C 
BRANCH  23  26
ATOM     26  O   UNL     1      35.253 -17.809 -23.666  0.00  0.00    -0.453 OA
BRANCH  26  27
ATOM     27  C   UNL     1      35.415 -18.618 -22.555  0.00  0.00    +0.145 C 
ATOM     28  C   UNL     1      34.354 -19.398 -22.129  0.00  0.00    +0.037 C 
ATOM     29  C   UNL     1      36.632 -18.627 -21.898  0.00  0.00    +0.037 C 
ATOM     30  C   UNL     1      34.517 -20.213 -21.008  0.00  0.00    +0.003 C 
ATOM     31  C   UNL     1      36.796 -19.442 -20.778  0.00  0.00    +0.003 C 
ATOM     32  C   UNL     1      35.738 -20.235 -20.334  0.00  0.00    +0.000 C 
ENDBRANCH  26  27
ENDBRANCH  23  26
ENDBRANCH   2  20
TORSDOF 6
ENDMDL
MODEL 7
REMARK VINA RESULT:     -10.5      2.094      4.797
REMARK  Name = 16040289
REMARK  6 active torsions:
REMARK  status: ('A' for Active; 'I' for Inactive)
REMARK    1  A    between atoms: N_2  and  C_20
REMARK    2  A    between atoms: C_3  and  C_6
REMARK    3  A    between atoms: N_11  and  C_13
REMARK    4  A    between atoms: C_13  and  C_15
REMARK    5  A    between atoms: C_23  and  O_26
REMARK    6  A    between atoms: O_26  and  C_27
REMARK                            x       y       z     vdW  Elec       q    Type
REMARK                         _______ _______ _______ _____ _____    ______ ____
ROOT
ATOM      1  O   UNL     1      36.869 -25.031 -15.171  0.00  0.00    -0.270 OA
ATOM      2  N   UNL     1      35.630 -23.033 -15.151  0.00  0.00    -0.280 N 
ATOM      3  C   UNL     1      36.263 -24.144 -14.579  0.00  0.00    +0.252 C 
ATOM      4  H   UNL     1      35.188 -22.418 -14.521  0.00  0.00    +0.155 HD
ENDROOT
BRANCH   3   6
ATOM      5  N   UNL     1      34.807 -24.296 -11.123  0.00  0.00    -0.229 NA
ATOM      6  C   UNL     1      36.150 -24.253 -13.101  0.00  0.00    +0.085 C 
ATOM      7  C   UNL     1      34.938 -24.202 -12.465  0.00  0.00    +0.133 C 
ATOM      8  C   UNL     1      37.305 -24.407 -12.370  0.00  0.00    +0.009 C 
ATOM      9  C   UNL     1      37.212 -24.509 -10.986  0.00  0.00    +0.021 C 
ATOM     10  C   UNL     1      35.949 -24.448 -10.416  0.00  0.00    +0.100 C 
ATOM     11  N   UNL     1      33.758 -24.043 -13.235  0.00  0.00    -0.314 N 
ATOM     12  H   UNL     1      33.838 -23.974 -14.213  0.00  0.00    +0.149 HD
BRANCH  11  13
ATOM     13  C   UNL     1      32.459 -23.981 -12.647  0.00  0.00    +0.115 C 
BRANCH  13  15
ATOM     14  N   UNL     1      29.432 -24.335 -15.660  0.00  0.00    -0.242 NA
ATOM     15  C   UNL     1      31.397 -24.106 -13.705  0.00  0.00    +0.000 C 
ATOM     16  C   UNL     1      30.433 -25.093 -13.595  0.00  0.00    +0.018 C 
ATOM     17  C   UNL     1      31.393 -23.231 -14.778  0.00  0.00    +0.018 C 
ATOM     18  C   UNL     1      29.477 -25.166 -14.595  0.00  0.00    +0.099 C 
ATOM     19  C   UNL     1      30.393 -23.386 -15.724  0.00  0.00    +0.099 C 
ENDBRANCH  13  15
ENDBRANCH  11  13
ENDBRANCH   3   6
BRANCH   2  20
ATOM     20  C   UNL     1      35.550 -22.689 -16.500  0.00  0.00    +0.051 C 
ATOM     21  C   UNL     1      36.633 -22.076 -17.130  0.00  0.00    +0.018 C 
ATOM     22  C   UNL     1      34.385 -22.958 -17.219  0.00  0.00    +0.018 C 
ATOM     23  C   UNL     1      35.387 -22.001 -19.199  0.00  0.00    +0.145 C 
ATOM     24  C   UNL     1      36.551 -21.733 -18.480  0.00  0.00    +0.039 C 
ATOM     25  C   UNL     1      34.304 -22.614 -18.569  0.00  0.00    +0.039 C 
BRANCH  23  26
ATOM     26  O   UNL     1      35.307 -21.665 -20.515  0.00  0.00    -0.453 OA
BRANCH  26  27
ATOM     27  C   UNL     1      35.485 -20.333 -20.851  0.00  0.00    +0.145 C 
ATOM     28  C   UNL     1      34.376 -19.516 -20.977  0.00  0.00    +0.037 C 
ATOM     29  C   UNL     1      36.767 -19.854 -21.053  0.00  0.00    +0.037 C 
ATOM     30  C   UNL     1      34.555 -18.175 -21.317  0.00  0.00    +0.003 C 
ATOM     31  C   UNL     1      36.946 -18.513 -21.393  0.00  0.00    +0.003 C 
ATOM     32  C   UNL     1      35.840 -17.674 -21.524  0.00  0.00    +0.000 C 
ENDBRANCH  26  27
ENDBRANCH  23  26
ENDBRANCH   2  20
TORSDOF 6
ENDMDL
MODEL 8
REMARK VINA RESULT:     -10.3      3.547     10.495
REMARK  Name = 16040289
REMARK  6 active torsions:
REMARK  status: ('A' for Active; 'I' for Inactive)
REMARK    1  A    between atoms: N_2  and  C_20
REMARK    2  A    between atoms: C_3  and  C_6
REMARK    3  A    between atoms: N_11  and  C_13
REMARK    4  A    between atoms: C_13  and  C_15
REMARK    5  A    between atoms: C_23  and  O_26
REMARK    6  A    between atoms: O_26  and  C_27
REMARK                            x       y       z     vdW  Elec       q    Type
REMARK                         _______ _______ _______ _____ _____    ______ ____
ROOT
ATOM      1  O   UNL     1      35.898 -18.598 -20.612  0.00  0.00    -0.270 OA
ATOM      2  N   UNL     1      34.190 -20.140 -21.091  0.00  0.00    -0.280 N 
ATOM      3  C   UNL     1      34.998 -19.021 -21.330  0.00  0.00    +0.252 C 
ATOM      4  H   UNL     1      33.512 -20.336 -21.778  0.00  0.00    +0.155 HD
ENDROOT
BRANCH   3   6
ATOM      5  N   UNL     1      34.512 -16.196 -23.752  0.00  0.00    -0.229 NA
ATOM      6  C   UNL     1      34.696 -18.270 -22.576  0.00  0.00    +0.085 C 
ATOM      7  C   UNL     1      34.781 -16.904 -22.632  0.00  0.00    +0.133 C 
ATOM      8  C   UNL     1      34.323 -18.984 -23.692  0.00  0.00    +0.009 C 
ATOM      9  C   UNL     1      34.038 -18.291 -24.863  0.00  0.00    +0.021 C 
ATOM     10  C   UNL     1      34.146 -16.909 -24.841  0.00  0.00    +0.100 C 
ATOM     11  N   UNL     1      35.168 -16.186 -21.474  0.00  0.00    -0.314 N 
ATOM     12  H   UNL     1      35.369 -16.688 -20.651  0.00  0.00    +0.149 HD
BRANCH  11  13
ATOM     13  C   UNL     1      35.279 -14.764 -21.452  0.00  0.00    +0.115 C 
BRANCH  13  15
ATOM     14  N   UNL     1      31.410 -12.960 -21.071  0.00  0.00    -0.242 NA
ATOM     15  C   UNL     1      33.921 -14.131 -21.318  0.00  0.00    +0.000 C 
ATOM     16  C   UNL     1      33.142 -14.409 -20.208  0.00  0.00    +0.018 C 
ATOM     17  C   UNL     1      33.463 -13.277 -22.307  0.00  0.00    +0.018 C 
ATOM     18  C   UNL     1      31.900 -13.801 -20.132  0.00  0.00    +0.099 C 
ATOM     19  C   UNL     1      32.206 -12.719 -22.136  0.00  0.00    +0.099 C 
ENDBRANCH  13  15
ENDBRANCH  11  13
ENDBRANCH   3   6
BRANCH   2  20
ATOM     20  C   UNL     1      34.226 -21.011 -20.002  0.00  0.00    +0.051 C 
ATOM     21  C   UNL     1      35.452 -21.409 -19.468  0.00  0.00    +0.018 C 
ATOM     22  C   UNL     1      33.036 -21.483 -19.447  0.00  0.00    +0.018 C 
ATOM     23  C   UNL     1      34.298 -22.752 -17.823  0.00  0.00    +0.145 C 
ATOM     24  C   UNL     1      35.487 -22.280 -18.378  0.00  0.00    +0.039 C 
ATOM     25  C   UNL     1      33.073 -22.354 -18.357  0.00  0.00    +0.039 C 
BRANCH  23  26
ATOM     26  O   UNL     1      34.333 -23.603 -16.762  0.00  0.00    -0.453 OA
BRANCH  26  27
ATOM     27  C   UNL     1      33.281 -23.555 -15.863  0.00  0.00    +0.145 C 
ATOM     28  C   UNL     1      33.554 -23.558 -14.506  0.00  0.00    +0.037 C 
ATOM     29  C   UNL     1      31.985 -23.505 -16.343  0.00  0.00    +0.037 C 
ATOM     30  C   UNL     1      32.494 -23.511 -13.600  0.00  0.00    +0.003 C 
ATOM     31  C   UNL     1      30.925 -23.458 -15.438  0.00  0.00    +0.003 C 
ATOM     32  C   UNL     1      31.181 -23.461 -14.066  0.00  0.00    +0.000 C 
ENDBRANCH  26  27
ENDBRANCH  23  26
ENDBRANCH   2  20
TORSDOF 6
ENDMDL
MODEL 9
REMARK VINA RESULT:     -10.0      3.667      8.196
REMARK  Name = 16040289
REMARK  6 active torsions:
REMARK  status: ('A' for Active; 'I' for Inactive)
REMARK    1  A    between atoms: N_2  and  C_20
REMARK    2  A    between atoms: C_3  and  C_6
REMARK    3  A    between atoms: N_11  and  C_13
REMARK    4  A    between atoms: C_13  and  C_15
REMARK    5  A    between atoms: C_23  and  O_26
REMARK    6  A    between atoms: O_26  and  C_27
REMARK                            x       y       z     vdW  Elec       q    Type
REMARK                         _______ _______ _______ _____ _____    ______ ____
ROOT
ATOM      1  O   UNL     1      35.400 -24.005 -12.036  0.00  0.00    -0.270 OA
ATOM      2  N   UNL     1      34.660 -24.644 -14.174  0.00  0.00    -0.280 N 
ATOM      3  C   UNL     1      35.612 -24.415 -13.173  0.00  0.00    +0.252 C 
ATOM      4  H   UNL     1      35.010 -24.975 -15.033  0.00  0.00    +0.155 HD
ENDROOT
BRANCH   3   6
ATOM      5  N   UNL     1      38.890 -24.258 -14.993  0.00  0.00    -0.229 NA
ATOM      6  C   UNL     1      37.022 -24.678 -13.560  0.00  0.00    +0.085 C 
ATOM      7  C   UNL     1      37.610 -24.037 -14.618  0.00  0.00    +0.133 C 
ATOM      8  C   UNL     1      37.739 -25.594 -12.825  0.00  0.00    +0.009 C 
ATOM      9  C   UNL     1      39.060 -25.849 -13.179  0.00  0.00    +0.021 C 
ATOM     10  C   UNL     1      39.584 -25.161 -14.263  0.00  0.00    +0.100 C 
ATOM     11  N   UNL     1      36.857 -23.096 -15.364  0.00  0.00    -0.314 N 
ATOM     12  H   UNL     1      35.924 -22.923 -15.101  0.00  0.00    +0.149 HD
BRANCH  11  13
ATOM     13  C   UNL     1      37.398 -22.388 -16.478  0.00  0.00    +0.115 C 
BRANCH  13  15
ATOM     14  N   UNL     1      34.395 -21.801 -19.479  0.00  0.00    -0.242 NA
ATOM     15  C   UNL     1      36.344 -22.181 -17.531  0.00  0.00    +0.000 C 
ATOM     16  C   UNL     1      36.646 -21.453 -18.669  0.00  0.00    +0.018 C 
ATOM     17  C   UNL     1      35.082 -22.722 -17.352  0.00  0.00    +0.018 C 
ATOM     18  C   UNL     1      35.641 -21.292 -19.608  0.00  0.00    +0.099 C 
ATOM     19  C   UNL     1      34.147 -22.504 -18.352  0.00  0.00    +0.099 C 
ENDBRANCH  13  15
ENDBRANCH  11  13
ENDBRANCH   3   6
BRANCH   2  20
ATOM     20  C   UNL     1      33.279 -24.461 -14.106  0.00  0.00    +0.051 C 
ATOM     21  C   UNL     1      32.702 -23.302 -14.625  0.00  0.00    +0.018 C 
ATOM     22  C   UNL     1      32.475 -25.437 -13.518  0.00  0.00    +0.018 C 
ATOM     23  C   UNL     1      30.516 -24.095 -13.968  0.00  0.00    +0.145 C 
ATOM     24  C   UNL     1      31.320 -23.119 -14.556  0.00  0.00    +0.039 C 
ATOM     25  C   UNL     1      31.093 -25.254 -13.449  0.00  0.00    +0.039 C 
BRANCH  23  26
ATOM     26  O   UNL     1      29.169 -23.917 -13.899  0.00  0.00    -0.453 OA
BRANCH  26  27
ATOM     27  C   UNL     1      28.496 -23.633 -15.075  0.00  0.00    +0.145 C 
ATOM     28  C   UNL     1      27.750 -22.470 -15.161  0.00  0.00    +0.037 C 
ATOM     29  C   UNL     1      28.586 -24.518 -16.134  0.00  0.00    +0.037 C 
ATOM     30  C   UNL     1      27.071 -22.184 -16.345  0.00  0.00    +0.003 C 
ATOM     31  C   UNL     1      27.907 -24.232 -17.319  0.00  0.00    +0.003 C 
ATOM     32  C   UNL     1      27.150 -23.065 -17.424  0.00  0.00    +0.000 C 
ENDBRANCH  26  27
ENDBRANCH  23  26
ENDBRANCH   2  20
TORSDOF 6
ENDMDL
