MODEL 1
REMARK VINA RESULT:     -11.3      0.000      0.000
REMARK  Name = 16040323
REMARK  5 active torsions:
REMARK  status: ('A' for Active; 'I' for Inactive)
REMARK    1  A    between atoms: C_1  and  C_2
REMARK    2  A    between atoms: C_1  and  C_16
REMARK    3  A    between atoms: C_5  and  C_8
REMARK    4  A    between atoms: C_11  and  O_14
REMARK    5  A    between atoms: C_16  and  C_21
REMARK                            x       y       z     vdW  Elec       q    Type
REMARK                         _______ _______ _______ _____ _____    ______ ____
ROOT
ATOM      1  C   UNL     1      36.133 -23.189 -16.217  0.00  0.00    +0.028 C 
ENDROOT
BRANCH   1   2
ATOM      2  C   UNL     1      35.234 -22.695 -17.321  0.00  0.00    -0.022 C 
ATOM      3  C   UNL     1      35.740 -21.820 -18.272  0.00  0.00    -0.004 C 
ATOM      4  C   UNL     1      33.915 -23.121 -17.369  0.00  0.00    -0.004 C 
ATOM      5  C   UNL     1      34.908 -21.362 -19.294  0.00  0.00    -0.000 C 
ATOM      6  C   UNL     1      33.083 -22.663 -18.391  0.00  0.00    -0.000 C 
ATOM      7  C   UNL     1      33.580 -21.784 -19.354  0.00  0.00    -0.000 C 
BRANCH   5   8
ATOM      8  C   UNL     1      35.422 -20.451 -20.293  0.00  0.00    +0.003 C 
ATOM      9  C   UNL     1      34.611 -20.046 -21.352  0.00  0.00    +0.037 C 
ATOM     10  C   UNL     1      36.730 -19.976 -20.195  0.00  0.00    +0.000 C 
ATOM     11  C   UNL     1      35.106 -19.166 -22.314  0.00  0.00    +0.139 C 
ATOM     12  C   UNL     1      37.226 -19.097 -21.158  0.00  0.00    +0.003 C 
ATOM     13  C   UNL     1      36.414 -18.692 -22.217  0.00  0.00    +0.037 C 
BRANCH  11  14
ATOM     14  O   UNL     1      34.315 -18.770 -23.349  0.00  0.00    -0.471 OA
ATOM     15  C   UNL     1      34.628 -17.523 -23.966  0.00  0.00    +0.252 C 
ENDBRANCH  11  14
ENDBRANCH   5   8
ENDBRANCH   1   2
BRANCH   1  16
ATOM     16  C   UNL     1      35.628 -22.736 -14.852  0.00  0.00    +0.028 C 
BRANCH  16  21
ATOM     17  O   UNL     1      38.041 -23.363 -11.822  0.00  0.00    -0.274 OA
ATOM     18  N   UNL     1      35.704 -25.166 -14.646  0.00  0.00    -0.247 NA
ATOM     19  N   UNL     1      37.777 -24.970 -13.509  0.00  0.00    -0.231 N 
ATOM     20  N   UNL     1      37.356 -26.699 -15.119  0.00  0.00    -0.331 N 
ATOM     21  C   UNL     1      35.247 -23.943 -13.982  0.00  0.00    +0.096 C 
ATOM     22  C   UNL     1      35.833 -23.845 -12.579  0.00  0.00    +0.108 C 
ATOM     23  C   UNL     1      33.718 -24.027 -13.889  0.00  0.00    +0.025 C 
ATOM     24  C   UNL     1      37.333 -23.999 -12.600  0.00  0.00    +0.233 C 
ATOM     25  C   UNL     1      36.910 -25.596 -14.429  0.00  0.00    +0.183 C 
ATOM     26  C   UNL     1      39.193 -25.327 -13.482  0.00  0.00    +0.123 C 
ATOM     27  H   UNL     1      36.765 -27.149 -15.765  0.00  0.00    +0.145 HD
ATOM     28  H   UNL     1      38.268 -27.039 -14.967  0.00  0.00    +0.145 HD
ENDBRANCH  16  21
ENDBRANCH   1  16
TORSDOF 5
ENDMDL
MODEL 2
REMARK VINA RESULT:     -11.0      1.687      2.907
REMARK  Name = 16040323
REMARK  5 active torsions:
REMARK  status: ('A' for Active; 'I' for Inactive)
REMARK    1  A    between atoms: C_1  and  C_2
REMARK    2  A    between atoms: C_1  and  C_16
REMARK    3  A    between atoms: C_5  and  C_8
REMARK    4  A    between atoms: C_11  and  O_14
REMARK    5  A    between atoms: C_16  and  C_21
REMARK                            x       y       z     vdW  Elec       q    Type
REMARK                         _______ _______ _______ _____ _____    ______ ____
ROOT
ATOM      1  C   UNL     1      33.759 -22.503 -18.426  0.00  0.00    +0.028 C 
ENDROOT
BRANCH   1   2
ATOM      2  C   UNL     1      34.812 -21.661 -19.099  0.00  0.00    -0.022 C 
ATOM      3  C   UNL     1      34.457 -20.846 -20.163  0.00  0.00    -0.004 C 
ATOM      4  C   UNL     1      36.122 -21.716 -18.644  0.00  0.00    -0.004 C 
ATOM      5  C   UNL     1      35.433 -20.067 -20.786  0.00  0.00    -0.000 C 
ATOM      6  C   UNL     1      37.097 -20.938 -19.267  0.00  0.00    -0.000 C 
ATOM      7  C   UNL     1      36.753 -20.113 -20.338  0.00  0.00    -0.000 C 
BRANCH   5   8
ATOM      8  C   UNL     1      35.076 -19.211 -21.897  0.00  0.00    +0.003 C 
ATOM      9  C   UNL     1      35.382 -17.851 -21.856  0.00  0.00    +0.037 C 
ATOM     10  C   UNL     1      34.426 -19.747 -23.008  0.00  0.00    +0.000 C 
ATOM     11  C   UNL     1      35.039 -17.027 -22.928  0.00  0.00    +0.139 C 
ATOM     12  C   UNL     1      34.082 -18.922 -24.079  0.00  0.00    +0.003 C 
ATOM     13  C   UNL     1      34.389 -17.563 -24.039  0.00  0.00    +0.037 C 
BRANCH  11  14
ATOM     14  O   UNL     1      35.337 -15.699 -22.889  0.00  0.00    -0.471 OA
ATOM     15  C   UNL     1      34.254 -14.796 -22.676  0.00  0.00    +0.252 C 
ENDBRANCH  11  14
ENDBRANCH   5   8
ENDBRANCH   1   2
BRANCH   1  16
ATOM     16  C   UNL     1      34.387 -23.655 -17.651  0.00  0.00    +0.028 C 
BRANCH  16  21
ATOM     17  O   UNL     1      37.135 -22.089 -15.329  0.00  0.00    -0.274 OA
ATOM     18  N   UNL     1      34.197 -24.917 -15.572  0.00  0.00    -0.247 NA
ATOM     19  N   UNL     1      36.425 -24.304 -15.038  0.00  0.00    -0.231 N 
ATOM     20  N   UNL     1      35.560 -26.500 -14.603  0.00  0.00    -0.331 N 
ATOM     21  C   UNL     1      33.997 -23.593 -16.167  0.00  0.00    +0.096 C 
ATOM     22  C   UNL     1      34.796 -22.540 -15.409  0.00  0.00    +0.108 C 
ATOM     23  C   UNL     1      32.501 -23.272 -16.056  0.00  0.00    +0.025 C 
ATOM     24  C   UNL     1      36.245 -22.936 -15.284  0.00  0.00    +0.233 C 
ATOM     25  C   UNL     1      35.360 -25.228 -15.086  0.00  0.00    +0.183 C 
ATOM     26  C   UNL     1      37.776 -24.765 -14.721  0.00  0.00    +0.123 C 
ATOM     27  H   UNL     1      34.827 -27.159 -14.629  0.00  0.00    +0.145 HD
ATOM     28  H   UNL     1      36.436 -26.754 -14.231  0.00  0.00    +0.145 HD
ENDBRANCH  16  21
ENDBRANCH   1  16
TORSDOF 5
ENDMDL
MODEL 3
REMARK VINA RESULT:     -10.8      1.588      2.454
REMARK  Name = 16040323
REMARK  5 active torsions:
REMARK  status: ('A' for Active; 'I' for Inactive)
REMARK    1  A    between atoms: C_1  and  C_2
REMARK    2  A    between atoms: C_1  and  C_16
REMARK    3  A    between atoms: C_5  and  C_8
REMARK    4  A    between atoms: C_11  and  O_14
REMARK    5  A    between atoms: C_16  and  C_21
REMARK                            x       y       z     vdW  Elec       q    Type
REMARK                         _______ _______ _______ _____ _____    ______ ____
ROOT
ATOM      1  C   UNL     1      37.468 -22.382 -16.411  0.00  0.00    +0.028 C 
ENDROOT
BRANCH   1   2
ATOM      2  C   UNL     1      36.344 -22.195 -17.398  0.00  0.00    -0.022 C 
ATOM      3  C   UNL     1      36.520 -21.342 -18.478  0.00  0.00    -0.004 C 
ATOM      4  C   UNL     1      35.151 -22.878 -17.212  0.00  0.00    -0.004 C 
ATOM      5  C   UNL     1      35.480 -21.168 -19.392  0.00  0.00    -0.000 C 
ATOM      6  C   UNL     1      34.111 -22.705 -18.125  0.00  0.00    -0.000 C 
ATOM      7  C   UNL     1      34.276 -21.850 -19.215  0.00  0.00    -0.000 C 
BRANCH   5   8
ATOM      8  C   UNL     1      35.650 -20.282 -20.522  0.00  0.00    +0.003 C 
ATOM      9  C   UNL     1      34.656 -20.196 -21.497  0.00  0.00    +0.037 C 
ATOM     10  C   UNL     1      36.807 -19.512 -20.637  0.00  0.00    +0.000 C 
ATOM     11  C   UNL     1      34.819 -19.341 -22.587  0.00  0.00    +0.139 C 
ATOM     12  C   UNL     1      36.971 -18.658 -21.727  0.00  0.00    +0.003 C 
ATOM     13  C   UNL     1      35.977 -18.571 -22.701  0.00  0.00    +0.037 C 
BRANCH  11  14
ATOM     14  O   UNL     1      33.850 -19.257 -23.539  0.00  0.00    -0.471 OA
ATOM     15  C   UNL     1      33.972 -18.209 -24.499  0.00  0.00    +0.252 C 
ENDBRANCH  11  14
ENDBRANCH   5   8
ENDBRANCH   1   2
BRANCH   1  16
ATOM     16  C   UNL     1      36.931 -22.686 -15.018  0.00  0.00    +0.028 C 
BRANCH  16  21
ATOM     17  O   UNL     1      34.248 -25.321 -13.898  0.00  0.00    -0.274 OA
ATOM     18  N   UNL     1      37.946 -23.785 -13.091  0.00  0.00    -0.247 NA
ATOM     19  N   UNL     1      35.783 -24.432 -12.365  0.00  0.00    -0.231 N 
ATOM     20  N   UNL     1      37.477 -23.684 -10.838  0.00  0.00    -0.331 N 
ATOM     21  C   UNL     1      37.521 -23.996 -14.477  0.00  0.00    +0.096 C 
ATOM     22  C   UNL     1      36.530 -25.150 -14.563  0.00  0.00    +0.108 C 
ATOM     23  C   UNL     1      38.780 -24.346 -15.283  0.00  0.00    +0.025 C 
ATOM     24  C   UNL     1      35.385 -24.961 -13.601  0.00  0.00    +0.233 C 
ATOM     25  C   UNL     1      37.092 -23.962 -12.129  0.00  0.00    +0.183 C 
ATOM     26  C   UNL     1      34.785 -24.378 -11.298  0.00  0.00    +0.123 C 
ATOM     27  H   UNL     1      38.387 -23.355 -10.655  0.00  0.00    +0.145 HD
ATOM     28  H   UNL     1      36.842 -23.813 -10.097  0.00  0.00    +0.145 HD
ENDBRANCH  16  21
ENDBRANCH   1  16
TORSDOF 5
ENDMDL
MODEL 4
REMARK VINA RESULT:     -10.7     10.533     15.319
REMARK  Name = 16040323
REMARK  5 active torsions:
REMARK  status: ('A' for Active; 'I' for Inactive)
REMARK    1  A    between atoms: C_1  and  C_2
REMARK    2  A    between atoms: C_1  and  C_16
REMARK    3  A    between atoms: C_5  and  C_8
REMARK    4  A    between atoms: C_11  and  O_14
REMARK    5  A    between atoms: C_16  and  C_21
REMARK                            x       y       z     vdW  Elec       q    Type
REMARK                         _______ _______ _______ _____ _____    ______ ____
ROOT
ATOM      1  C   UNL     1      32.345  -9.143 -22.943  0.00  0.00    +0.028 C 
ENDROOT
BRANCH   1   2
ATOM      2  C   UNL     1      32.249 -10.516 -22.327  0.00  0.00    -0.022 C 
ATOM      3  C   UNL     1      32.826 -11.597 -22.978  0.00  0.00    -0.004 C 
ATOM      4  C   UNL     1      31.585 -10.677 -21.120  0.00  0.00    -0.004 C 
ATOM      5  C   UNL     1      32.738 -12.867 -22.408  0.00  0.00    -0.000 C 
ATOM      6  C   UNL     1      31.496 -11.947 -20.551  0.00  0.00    -0.000 C 
ATOM      7  C   UNL     1      32.072 -13.043 -21.195  0.00  0.00    -0.000 C 
BRANCH   5   8
ATOM      8  C   UNL     1      33.335 -14.003 -23.075  0.00  0.00    +0.003 C 
ATOM      9  C   UNL     1      34.143 -14.887 -22.360  0.00  0.00    +0.037 C 
ATOM     10  C   UNL     1      33.103 -14.215 -24.434  0.00  0.00    +0.000 C 
ATOM     11  C   UNL     1      34.719 -15.982 -23.003  0.00  0.00    +0.139 C 
ATOM     12  C   UNL     1      33.679 -15.310 -25.078  0.00  0.00    +0.003 C 
ATOM     13  C   UNL     1      34.486 -16.194 -24.362  0.00  0.00    +0.037 C 
BRANCH  11  14
ATOM     14  O   UNL     1      35.507 -16.845 -22.306  0.00  0.00    -0.471 OA
ATOM     15  C   UNL     1      35.302 -18.239 -22.530  0.00  0.00    +0.252 C 
ENDBRANCH  11  14
ENDBRANCH   5   8
ENDBRANCH   1   2
BRANCH   1  16
ATOM     16  C   UNL     1      31.628  -8.106 -22.087  0.00  0.00    +0.028 C 
BRANCH  16  21
ATOM     17  O   UNL     1      30.913  -4.367 -23.040  0.00  0.00    -0.274 OA
ATOM     18  N   UNL     1      33.846  -7.114 -22.306  0.00  0.00    -0.247 NA
ATOM     19  N   UNL     1      32.913  -5.414 -23.672  0.00  0.00    -0.231 N 
ATOM     20  N   UNL     1      35.043  -6.413 -24.145  0.00  0.00    -0.331 N 
ATOM     21  C   UNL     1      32.627  -7.101 -21.493  0.00  0.00    +0.096 C 
ATOM     22  C   UNL     1      32.049  -5.694 -21.418  0.00  0.00    +0.108 C 
ATOM     23  C   UNL     1      33.023  -7.564 -20.085  0.00  0.00    +0.025 C 
ATOM     24  C   UNL     1      31.866  -5.102 -22.793  0.00  0.00    +0.233 C 
ATOM     25  C   UNL     1      33.929  -6.336 -23.343  0.00  0.00    +0.183 C 
ATOM     26  C   UNL     1      32.928  -4.746 -24.972  0.00  0.00    +0.123 C 
ATOM     27  H   UNL     1      35.762  -7.051 -23.930  0.00  0.00    +0.145 HD
ATOM     28  H   UNL     1      35.122  -5.830 -24.935  0.00  0.00    +0.145 HD
ENDBRANCH  16  21
ENDBRANCH   1  16
TORSDOF 5
ENDMDL
MODEL 5
REMARK VINA RESULT:     -10.6      3.563      5.764
REMARK  Name = 16040323
REMARK  5 active torsions:
REMARK  status: ('A' for Active; 'I' for Inactive)
REMARK    1  A    between atoms: C_1  and  C_2
REMARK    2  A    between atoms: C_1  and  C_16
REMARK    3  A    between atoms: C_5  and  C_8
REMARK    4  A    between atoms: C_11  and  O_14
REMARK    5  A    between atoms: C_16  and  C_21
REMARK                            x       y       z     vdW  Elec       q    Type
REMARK                         _______ _______ _______ _____ _____    ______ ____
ROOT
ATOM      1  C   UNL     1      36.124 -23.740 -15.149  0.00  0.00    +0.028 C 
ENDROOT
BRANCH   1   2
ATOM      2  C   UNL     1      34.954 -23.401 -16.036  0.00  0.00    -0.022 C 
ATOM      3  C   UNL     1      33.665 -23.651 -15.590  0.00  0.00    -0.004 C 
ATOM      4  C   UNL     1      35.185 -22.845 -17.286  0.00  0.00    -0.004 C 
ATOM      5  C   UNL     1      32.581 -23.337 -16.412  0.00  0.00    -0.000 C 
ATOM      6  C   UNL     1      34.103 -22.531 -18.108  0.00  0.00    -0.000 C 
ATOM      7  C   UNL     1      32.800 -22.778 -17.671  0.00  0.00    -0.000 C 
BRANCH   5   8
ATOM      8  C   UNL     1      31.231 -23.592 -15.959  0.00  0.00    +0.003 C 
ATOM      9  C   UNL     1      30.177 -22.816 -16.438  0.00  0.00    +0.037 C 
ATOM     10  C   UNL     1      30.985 -24.616 -15.045  0.00  0.00    +0.000 C 
ATOM     11  C   UNL     1      28.875 -23.062 -16.002  0.00  0.00    +0.139 C 
ATOM     12  C   UNL     1      29.683 -24.862 -14.608  0.00  0.00    +0.003 C 
ATOM     13  C   UNL     1      28.628 -24.086 -15.087  0.00  0.00    +0.037 C 
BRANCH  11  14
ATOM     14  O   UNL     1      27.845 -22.304 -16.468  0.00  0.00    -0.471 OA
ATOM     15  C   UNL     1      26.618 -22.359 -15.742  0.00  0.00    +0.252 C 
ENDBRANCH  11  14
ENDBRANCH   5   8
ENDBRANCH   1   2
BRANCH   1  16
ATOM     16  C   UNL     1      35.904 -23.229 -13.730  0.00  0.00    +0.028 C 
BRANCH  16  21
ATOM     17  O   UNL     1      39.029 -23.536 -11.377  0.00  0.00    -0.274 OA
ATOM     18  N   UNL     1      36.189 -25.633 -13.431  0.00  0.00    -0.247 NA
ATOM     19  N   UNL     1      38.461 -25.258 -12.863  0.00  0.00    -0.231 N 
ATOM     20  N   UNL     1      37.770 -27.107 -14.229  0.00  0.00    -0.331 N 
ATOM     21  C   UNL     1      35.831 -24.396 -12.734  0.00  0.00    +0.096 C 
ATOM     22  C   UNL     1      36.740 -24.179 -11.530  0.00  0.00    +0.108 C 
ATOM     23  C   UNL     1      34.382 -24.553 -12.255  0.00  0.00    +0.025 C 
ATOM     24  C   UNL     1      38.194 -24.256 -11.919  0.00  0.00    +0.233 C 
ATOM     25  C   UNL     1      37.436 -25.986 -13.504  0.00  0.00    +0.183 C 
ATOM     26  C   UNL     1      39.861 -25.540 -13.175  0.00  0.00    +0.123 C 
ATOM     27  H   UNL     1      37.067 -27.627 -14.683  0.00  0.00    +0.145 HD
ATOM     28  H   UNL     1      38.711 -27.389 -14.294  0.00  0.00    +0.145 HD
ENDBRANCH  16  21
ENDBRANCH   1  16
TORSDOF 5
ENDMDL
MODEL 6
REMARK VINA RESULT:     -10.5      1.723      2.845
REMARK  Name = 16040323
REMARK  5 active torsions:
REMARK  status: ('A' for Active; 'I' for Inactive)
REMARK    1  A    between atoms: C_1  and  C_2
REMARK    2  A    between atoms: C_1  and  C_16
REMARK    3  A    between atoms: C_5  and  C_8
REMARK    4  A    between atoms: C_11  and  O_14
REMARK    5  A    between atoms: C_16  and  C_21
REMARK                            x       y       z     vdW  Elec       q    Type
REMARK                         _______ _______ _______ _____ _____    ______ ____
ROOT
ATOM      1  C   UNL     1      33.498 -24.777 -13.876  0.00  0.00    +0.028 C 
ENDROOT
BRANCH   1   2
ATOM      2  C   UNL     1      32.900 -24.061 -15.060  0.00  0.00    -0.022 C 
ATOM      3  C   UNL     1      33.738 -23.495 -16.010  0.00  0.00    -0.004 C 
ATOM      4  C   UNL     1      31.521 -23.978 -15.181  0.00  0.00    -0.004 C 
ATOM      5  C   UNL     1      33.185 -22.833 -17.106  0.00  0.00    -0.000 C 
ATOM      6  C   UNL     1      30.967 -23.315 -16.276  0.00  0.00    -0.000 C 
ATOM      7  C   UNL     1      31.799 -22.743 -17.239  0.00  0.00    -0.000 C 
BRANCH   5   8
ATOM      8  C   UNL     1      34.047 -22.239 -18.104  0.00  0.00    +0.003 C 
ATOM      9  C   UNL     1      33.494 -21.538 -19.176  0.00  0.00    +0.037 C 
ATOM     10  C   UNL     1      35.431 -22.367 -17.994  0.00  0.00    +0.000 C 
ATOM     11  C   UNL     1      34.326 -20.965 -20.138  0.00  0.00    +0.139 C 
ATOM     12  C   UNL     1      36.263 -21.795 -18.957  0.00  0.00    +0.003 C 
ATOM     13  C   UNL     1      35.710 -21.093 -20.028  0.00  0.00    +0.037 C 
BRANCH  11  14
ATOM     14  O   UNL     1      33.787 -20.281 -21.184  0.00  0.00    -0.471 OA
ATOM     15  C   UNL     1      34.694 -19.609 -22.056  0.00  0.00    +0.252 C 
ENDBRANCH  11  14
ENDBRANCH   5   8
ENDBRANCH   1   2
BRANCH   1  16
ATOM     16  C   UNL     1      34.969 -25.099 -14.114  0.00  0.00    +0.028 C 
BRANCH  16  21
ATOM     17  O   UNL     1      37.931 -22.971 -15.560  0.00  0.00    -0.274 OA
ATOM     18  N   UNL     1      36.781 -25.443 -12.518  0.00  0.00    -0.247 NA
ATOM     19  N   UNL     1      38.335 -24.842 -14.207  0.00  0.00    -0.231 N 
ATOM     20  N   UNL     1      38.751 -26.628 -12.659  0.00  0.00    -0.331 N 
ATOM     21  C   UNL     1      35.853 -24.440 -13.044  0.00  0.00    +0.096 C 
ATOM     22  C   UNL     1      36.615 -23.240 -13.592  0.00  0.00    +0.108 C 
ATOM     23  C   UNL     1      34.968 -23.989 -11.874  0.00  0.00    +0.025 C 
ATOM     24  C   UNL     1      37.671 -23.665 -14.580  0.00  0.00    +0.233 C 
ATOM     25  C   UNL     1      37.921 -25.630 -13.112  0.00  0.00    +0.183 C 
ATOM     26  C   UNL     1      39.497 -25.246 -14.997  0.00  0.00    +0.123 C 
ATOM     27  H   UNL     1      38.478 -27.188 -11.896  0.00  0.00    +0.145 HD
ATOM     28  H   UNL     1      39.619 -26.784 -13.097  0.00  0.00    +0.145 HD
ENDBRANCH  16  21
ENDBRANCH   1  16
TORSDOF 5
ENDMDL
MODEL 7
REMARK VINA RESULT:     -10.4      8.425     13.453
REMARK  Name = 16040323
REMARK  5 active torsions:
REMARK  status: ('A' for Active; 'I' for Inactive)
REMARK    1  A    between atoms: C_1  and  C_2
REMARK    2  A    between atoms: C_1  and  C_16
REMARK    3  A    between atoms: C_5  and  C_8
REMARK    4  A    between atoms: C_11  and  O_14
REMARK    5  A    between atoms: C_16  and  C_21
REMARK                            x       y       z     vdW  Elec       q    Type
REMARK                         _______ _______ _______ _____ _____    ______ ____
ROOT
ATOM      1  C   UNL     1      33.342 -12.159 -22.285  0.00  0.00    +0.028 C 
ENDROOT
BRANCH   1   2
ATOM      2  C   UNL     1      33.498 -13.270 -23.291  0.00  0.00    -0.022 C 
ATOM      3  C   UNL     1      33.937 -14.516 -22.869  0.00  0.00    -0.004 C 
ATOM      4  C   UNL     1      33.201 -13.029 -24.625  0.00  0.00    -0.004 C 
ATOM      5  C   UNL     1      34.081 -15.545 -23.800  0.00  0.00    -0.000 C 
ATOM      6  C   UNL     1      33.345 -14.057 -25.556  0.00  0.00    -0.000 C 
ATOM      7  C   UNL     1      33.785 -15.316 -25.144  0.00  0.00    -0.000 C 
BRANCH   5   8
ATOM      8  C   UNL     1      34.536 -16.850 -23.373  0.00  0.00    +0.003 C 
ATOM      9  C   UNL     1      35.286 -16.979 -22.204  0.00  0.00    +0.037 C 
ATOM     10  C   UNL     1      34.225 -17.979 -24.130  0.00  0.00    +0.000 C 
ATOM     11  C   UNL     1      35.725 -18.237 -21.792  0.00  0.00    +0.139 C 
ATOM     12  C   UNL     1      34.665 -19.237 -23.718  0.00  0.00    +0.003 C 
ATOM     13  C   UNL     1      35.413 -19.366 -22.549  0.00  0.00    +0.037 C 
BRANCH  11  14
ATOM     14  O   UNL     1      36.457 -18.364 -20.651  0.00  0.00    -0.471 OA
ATOM     15  C   UNL     1      36.920 -19.671 -20.319  0.00  0.00    +0.252 C 
ENDBRANCH  11  14
ENDBRANCH   5   8
ENDBRANCH   1   2
BRANCH   1  16
ATOM     16  C   UNL     1      32.805 -10.893 -22.942  0.00  0.00    +0.028 C 
BRANCH  16  21
ATOM     17  O   UNL     1      31.553  -7.403 -24.226  0.00  0.00    -0.274 OA
ATOM     18  N   UNL     1      32.224  -9.684 -20.905  0.00  0.00    -0.247 NA
ATOM     19  N   UNL     1      32.478  -7.642 -22.086  0.00  0.00    -0.231 N 
ATOM     20  N   UNL     1      33.232  -7.917 -19.824  0.00  0.00    -0.331 N 
ATOM     21  C   UNL     1      31.661 -10.290 -22.114  0.00  0.00    +0.096 C 
ATOM     22  C   UNL     1      30.862  -9.262 -22.905  0.00  0.00    +0.108 C 
ATOM     23  C   UNL     1      30.727 -11.418 -21.657  0.00  0.00    +0.025 C 
ATOM     24  C   UNL     1      31.676  -8.021 -23.171  0.00  0.00    +0.233 C 
ATOM     25  C   UNL     1      32.632  -8.451 -20.940  0.00  0.00    +0.183 C 
ATOM     26  C   UNL     1      33.170  -6.357 -22.169  0.00  0.00    +0.123 C 
ATOM     27  H   UNL     1      33.348  -8.468 -19.015  0.00  0.00    +0.145 HD
ATOM     28  H   UNL     1      33.547  -6.984 -19.833  0.00  0.00    +0.145 HD
ENDBRANCH  16  21
ENDBRANCH   1  16
TORSDOF 5
ENDMDL
MODEL 8
REMARK VINA RESULT:     -10.4      3.292      5.698
REMARK  Name = 16040323
REMARK  5 active torsions:
REMARK  status: ('A' for Active; 'I' for Inactive)
REMARK    1  A    between atoms: C_1  and  C_2
REMARK    2  A    between atoms: C_1  and  C_16
REMARK    3  A    between atoms: C_5  and  C_8
REMARK    4  A    between atoms: C_11  and  O_14
REMARK    5  A    between atoms: C_16  and  C_21
REMARK                            x       y       z     vdW  Elec       q    Type
REMARK                         _______ _______ _______ _____ _____    ______ ____
ROOT
ATOM      1  C   UNL     1      37.278 -22.547 -16.436  0.00  0.00    +0.028 C 
ENDROOT
BRANCH   1   2
ATOM      2  C   UNL     1      35.944 -22.521 -17.137  0.00  0.00    -0.022 C 
ATOM      3  C   UNL     1      34.798 -22.865 -16.436  0.00  0.00    -0.004 C 
ATOM      4  C   UNL     1      35.883 -22.153 -18.474  0.00  0.00    -0.004 C 
ATOM      5  C   UNL     1      33.563 -22.841 -17.085  0.00  0.00    -0.000 C 
ATOM      6  C   UNL     1      34.649 -22.129 -19.123  0.00  0.00    -0.000 C 
ATOM      7  C   UNL     1      33.489 -22.473 -18.428  0.00  0.00    -0.000 C 
BRANCH   5   8
ATOM      8  C   UNL     1      32.360 -23.197 -16.366  0.00  0.00    +0.003 C 
ATOM      9  C   UNL     1      31.113 -22.818 -16.861  0.00  0.00    +0.037 C 
ATOM     10  C   UNL     1      32.447 -23.921 -15.177  0.00  0.00    +0.000 C 
ATOM     11  C   UNL     1      29.952 -23.163 -16.168  0.00  0.00    +0.139 C 
ATOM     12  C   UNL     1      31.287 -24.265 -14.483  0.00  0.00    +0.003 C 
ATOM     13  C   UNL     1      30.040 -23.887 -14.979  0.00  0.00    +0.037 C 
BRANCH  11  14
ATOM     14  O   UNL     1      28.735 -22.793 -16.650  0.00  0.00    -0.471 OA
ATOM     15  C   UNL     1      27.630 -22.868 -15.751  0.00  0.00    +0.252 C 
ENDBRANCH  11  14
ENDBRANCH   5   8
ENDBRANCH   1   2
BRANCH   1  16
ATOM     16  C   UNL     1      37.109 -22.798 -14.942  0.00  0.00    +0.028 C 
BRANCH  16  21
ATOM     17  O   UNL     1      34.627 -25.680 -13.977  0.00  0.00    -0.274 OA
ATOM     18  N   UNL     1      38.248 -23.984 -13.140  0.00  0.00    -0.247 NA
ATOM     19  N   UNL     1      36.151 -24.824 -12.415  0.00  0.00    -0.231 N 
ATOM     20  N   UNL     1      37.842 -24.096 -10.875  0.00  0.00    -0.331 N 
ATOM     21  C   UNL     1      37.795 -24.108 -14.527  0.00  0.00    +0.096 C 
ATOM     22  C   UNL     1      36.874 -25.312 -14.683  0.00  0.00    +0.108 C 
ATOM     23  C   UNL     1      39.047 -24.312 -15.391  0.00  0.00    +0.025 C 
ATOM     24  C   UNL     1      35.749 -25.274 -13.681  0.00  0.00    +0.233 C 
ATOM     25  C   UNL     1      37.436 -24.292 -12.174  0.00  0.00    +0.183 C 
ATOM     26  C   UNL     1      35.185 -24.918 -11.322  0.00  0.00    +0.123 C 
ATOM     27  H   UNL     1      38.736 -23.726 -10.689  0.00  0.00    +0.145 HD
ATOM     28  H   UNL     1      37.239 -24.325 -10.131  0.00  0.00    +0.145 HD
ENDBRANCH  16  21
ENDBRANCH   1  16
TORSDOF 5
ENDMDL
MODEL 9
REMARK VINA RESULT:     -10.0     10.825     15.611
REMARK  Name = 16040323
REMARK  5 active torsions:
REMARK  status: ('A' for Active; 'I' for Inactive)
REMARK    1  A    between atoms: C_1  and  C_2
REMARK    2  A    between atoms: C_1  and  C_16
REMARK    3  A    between atoms: C_5  and  C_8
REMARK    4  A    between atoms: C_11  and  O_14
REMARK    5  A    between atoms: C_16  and  C_21
REMARK                            x       y       z     vdW  Elec       q    Type
REMARK                         _______ _______ _______ _____ _____    ______ ____
ROOT
ATOM      1  C   UNL     1      32.546  -9.157 -23.373  0.00  0.00    +0.028 C 
ENDROOT
BRANCH   1   2
ATOM      2  C   UNL     1      32.187 -10.355 -22.533  0.00  0.00    -0.022 C 
ATOM      3  C   UNL     1      32.952 -11.509 -22.628  0.00  0.00    -0.004 C 
ATOM      4  C   UNL     1      31.096 -10.287 -21.677  0.00  0.00    -0.004 C 
ATOM      5  C   UNL     1      32.619 -12.618 -21.850  0.00  0.00    -0.000 C 
ATOM      6  C   UNL     1      30.764 -11.395 -20.900  0.00  0.00    -0.000 C 
ATOM      7  C   UNL     1      31.525 -12.562 -20.986  0.00  0.00    -0.000 C 
BRANCH   5   8
ATOM      8  C   UNL     1      33.408 -13.827 -21.938  0.00  0.00    +0.003 C 
ATOM      9  C   UNL     1      33.645 -14.416 -23.180  0.00  0.00    +0.037 C 
ATOM     10  C   UNL     1      33.933 -14.403 -20.782  0.00  0.00    +0.000 C 
ATOM     11  C   UNL     1      34.406 -15.582 -23.265  0.00  0.00    +0.139 C 
ATOM     12  C   UNL     1      34.694 -15.569 -20.867  0.00  0.00    +0.003 C 
ATOM     13  C   UNL     1      34.931 -16.158 -22.109  0.00  0.00    +0.037 C 
BRANCH  11  14
ATOM     14  O   UNL     1      34.638 -16.158 -24.477  0.00  0.00    -0.471 OA
ATOM     15  C   UNL     1      34.411 -17.562 -24.583  0.00  0.00    +0.252 C 
ENDBRANCH  11  14
ENDBRANCH   5   8
ENDBRANCH   1   2
BRANCH   1  16
ATOM     16  C   UNL     1      31.806  -7.911 -22.900  0.00  0.00    +0.028 C 
BRANCH  16  21
ATOM     17  O   UNL     1      30.963  -4.119 -23.450  0.00  0.00    -0.274 OA
ATOM     18  N   UNL     1      33.988  -6.824 -22.982  0.00  0.00    -0.247 NA
ATOM     19  N   UNL     1      33.005  -5.020 -24.168  0.00  0.00    -0.231 N 
ATOM     20  N   UNL     1      35.175  -5.885 -24.719  0.00  0.00    -0.331 N 
ATOM     21  C   UNL     1      32.763  -6.943 -22.188  0.00  0.00    +0.096 C 
ATOM     22  C   UNL     1      32.133  -5.573 -21.968  0.00  0.00    +0.108 C 
ATOM     23  C   UNL     1      33.163  -7.542 -20.833  0.00  0.00    +0.025 C 
ATOM     24  C   UNL     1      31.941  -4.843 -23.272  0.00  0.00    +0.233 C 
ATOM     25  C   UNL     1      34.051  -5.936 -23.927  0.00  0.00    +0.183 C 
ATOM     26  C   UNL     1      33.007  -4.214 -25.387  0.00  0.00    +0.123 C 
ATOM     27  H   UNL     1      35.915  -6.517 -24.565  0.00  0.00    +0.145 HD
ATOM     28  H   UNL     1      35.239  -5.218 -25.440  0.00  0.00    +0.145 HD
ENDBRANCH  16  21
ENDBRANCH   1  16
TORSDOF 5
ENDMDL
