MODEL 1
REMARK VINA RESULT:     -11.1      0.000      0.000
REMARK  Name = 42647297
REMARK  5 active torsions:
REMARK  status: ('A' for Active; 'I' for Inactive)
REMARK    1  A    between atoms: N_3  and  C_14
REMARK    2  A    between atoms: C_7  and  N_20
REMARK    3  A    between atoms: N_20  and  C_24
REMARK    4  A    between atoms: C_22  and  C_31
REMARK    5  A    between atoms: N_30  and  C_33
REMARK                            x       y       z     vdW  Elec       q    Type
REMARK                         _______ _______ _______ _____ _____    ______ ____
ROOT
ATOM      1  O   UNL     1      36.088  -9.037 -23.918  0.00  0.00    -0.269 OA
ATOM      2  N   UNL     1      34.055  -7.958 -23.497  0.00  0.00    -0.240 N 
ATOM      3  N   UNL     1      31.735  -7.301 -23.005  0.00  0.00    -0.174 N 
ATOM      4  N   UNL     1      30.543  -7.870 -22.729  0.00  0.00    -0.171 NA
ATOM      5  C   UNL     1      32.728  -8.213 -23.201  0.00  0.00    +0.133 C 
ATOM      6  C   UNL     1      32.153  -9.444 -23.047  0.00  0.00    +0.064 C 
ATOM      7  C   UNL     1      32.947 -10.614 -23.193  0.00  0.00    +0.057 C 
ATOM      8  C   UNL     1      34.255 -10.443 -23.484  0.00  0.00    +0.073 C 
ATOM      9  C   UNL     1      34.885  -9.080 -23.654  0.00  0.00    +0.255 C 
ATOM     10  C   UNL     1      30.806  -9.184 -22.757  0.00  0.00    +0.122 C 
ATOM     11  C   UNL     1      34.563  -6.601 -23.642  0.00  0.00    +0.122 C 
ENDROOT
BRANCH   3  14
ATOM     12  F   UNL     1      32.189  -5.804 -20.709  0.00  0.00    -0.203 F 
ATOM     13  F   UNL     1      31.966  -1.786 -23.193  0.00  0.00    -0.204 F 
ATOM     14  C   UNL     1      31.793  -5.908 -23.050  0.00  0.00    +0.103 C 
ATOM     15  C   UNL     1      32.023  -5.179 -21.883  0.00  0.00    +0.158 C 
ATOM     16  C   UNL     1      31.622  -5.246 -24.265  0.00  0.00    +0.021 C 
ATOM     17  C   UNL     1      32.082  -3.786 -21.933  0.00  0.00    +0.061 C 
ATOM     18  C   UNL     1      31.680  -3.853 -24.313  0.00  0.00    +0.031 C 
ATOM     19  C   UNL     1      31.910  -3.123 -23.147  0.00  0.00    +0.142 C 
ENDBRANCH   3  14
BRANCH   7  20
ATOM     20  N   UNL     1      32.378 -11.849 -23.041  0.00  0.00    -0.313 N 
ATOM     21  H   UNL     1      31.622 -12.049 -23.638  0.00  0.00    +0.152 HD
BRANCH  20  24
ATOM     22  C   UNL     1      33.970 -14.885 -21.684  0.00  0.00    +0.055 C 
ATOM     23  C   UNL     1      33.604 -13.867 -22.564  0.00  0.00    +0.019 C 
ATOM     24  C   UNL     1      32.734 -12.861 -22.146  0.00  0.00    +0.044 C 
ATOM     25  C   UNL     1      33.466 -14.896 -20.383  0.00  0.00    +0.004 C 
ATOM     26  C   UNL     1      32.230 -12.871 -20.845  0.00  0.00    -0.008 C 
ATOM     27  C   UNL     1      32.596 -13.889 -19.964  0.00  0.00    -0.003 C 
ATOM     28  C   UNL     1      31.297 -11.806 -20.368  0.00  0.00    +0.032 C 
BRANCH  22  31
ATOM     29  O   UNL     1      35.517 -15.818 -23.181  0.00  0.00    -0.270 OA
ATOM     30  N   UNL     1      34.974 -17.072 -21.309  0.00  0.00    -0.302 N 
ATOM     31  C   UNL     1      34.877 -15.935 -22.121  0.00  0.00    +0.246 C 
ATOM     32  H   UNL     1      34.441 -17.101 -20.482  0.00  0.00    +0.150 HD
BRANCH  30  33
ATOM     33  C   UNL     1      35.811 -18.195 -21.623  0.00  0.00    +0.072 C 
ATOM     34  C   UNL     1      35.355 -19.262 -22.575  0.00  0.00    +0.021 C 
ATOM     35  C   UNL     1      35.490 -19.570 -21.112  0.00  0.00    +0.021 C 
ENDBRANCH  30  33
ENDBRANCH  22  31
ENDBRANCH  20  24
ENDBRANCH   7  20
TORSDOF 5
ENDMDL
MODEL 2
REMARK VINA RESULT:     -10.6      1.561      2.388
REMARK  Name = 42647297
REMARK  5 active torsions:
REMARK  status: ('A' for Active; 'I' for Inactive)
REMARK    1  A    between atoms: N_3  and  C_14
REMARK    2  A    between atoms: C_7  and  N_20
REMARK    3  A    between atoms: N_20  and  C_24
REMARK    4  A    between atoms: C_22  and  C_31
REMARK    5  A    between atoms: N_30  and  C_33
REMARK                            x       y       z     vdW  Elec       q    Type
REMARK                         _______ _______ _______ _____ _____    ______ ____
ROOT
ATOM      1  O   UNL     1      36.155  -9.690 -24.116  0.00  0.00    -0.269 OA
ATOM      2  N   UNL     1      34.133  -8.746 -23.413  0.00  0.00    -0.240 N 
ATOM      3  N   UNL     1      31.848  -8.241 -22.652  0.00  0.00    -0.174 N 
ATOM      4  N   UNL     1      30.708  -8.886 -22.327  0.00  0.00    -0.171 NA
ATOM      5  C   UNL     1      32.851  -9.085 -23.025  0.00  0.00    +0.133 C 
ATOM      6  C   UNL     1      32.336 -10.350 -22.940  0.00  0.00    +0.064 C 
ATOM      7  C   UNL     1      33.154 -11.465 -23.269  0.00  0.00    +0.057 C 
ATOM      8  C   UNL     1      34.422 -11.210 -23.658  0.00  0.00    +0.073 C 
ATOM      9  C   UNL     1      34.985  -9.810 -23.751  0.00  0.00    +0.255 C 
ATOM     10  C   UNL     1      31.014 -10.179 -22.506  0.00  0.00    +0.122 C 
ATOM     11  C   UNL     1      34.577  -7.360 -23.469  0.00  0.00    +0.122 C 
ENDROOT
BRANCH   3  14
ATOM     12  F   UNL     1      31.172  -6.663 -24.836  0.00  0.00    -0.203 F 
ATOM     13  F   UNL     1      31.861  -2.729 -22.303  0.00  0.00    -0.204 F 
ATOM     14  C   UNL     1      31.852  -6.849 -22.567  0.00  0.00    +0.103 C 
ATOM     15  C   UNL     1      31.508  -6.079 -23.677  0.00  0.00    +0.158 C 
ATOM     16  C   UNL     1      32.199  -6.229 -21.367  0.00  0.00    +0.021 C 
ATOM     17  C   UNL     1      31.511  -4.686 -23.587  0.00  0.00    +0.061 C 
ATOM     18  C   UNL     1      32.203  -4.836 -21.278  0.00  0.00    +0.031 C 
ATOM     19  C   UNL     1      31.858  -4.065 -22.388  0.00  0.00    +0.142 C 
ENDBRANCH   3  14
BRANCH   7  20
ATOM     20  N   UNL     1      32.647 -12.733 -23.187  0.00  0.00    -0.313 N 
ATOM     21  H   UNL     1      31.693 -12.799 -22.955  0.00  0.00    +0.152 HD
BRANCH  20  24
ATOM     22  C   UNL     1      34.457 -15.864 -22.474  0.00  0.00    +0.055 C 
ATOM     23  C   UNL     1      33.792 -14.652 -22.289  0.00  0.00    +0.019 C 
ATOM     24  C   UNL     1      33.311 -13.945 -23.390  0.00  0.00    +0.044 C 
ATOM     25  C   UNL     1      34.642 -16.369 -23.761  0.00  0.00    +0.004 C 
ATOM     26  C   UNL     1      33.494 -14.451 -24.678  0.00  0.00    -0.008 C 
ATOM     27  C   UNL     1      34.159 -15.662 -24.863  0.00  0.00    -0.003 C 
ATOM     28  C   UNL     1      32.989 -13.715 -25.877  0.00  0.00    +0.032 C 
BRANCH  22  31
ATOM     29  O   UNL     1      34.943 -16.093 -20.190  0.00  0.00    -0.270 OA
ATOM     30  N   UNL     1      35.472 -17.882 -21.565  0.00  0.00    -0.302 N 
ATOM     31  C   UNL     1      34.960 -16.601 -21.325  0.00  0.00    +0.246 C 
ATOM     32  H   UNL     1      35.456 -18.227 -22.486  0.00  0.00    +0.150 HD
BRANCH  30  33
ATOM     33  C   UNL     1      36.020 -18.717 -20.532  0.00  0.00    +0.072 C 
ATOM     34  C   UNL     1      37.363 -19.369 -20.691  0.00  0.00    +0.021 C 
ATOM     35  C   UNL     1      36.116 -20.205 -20.706  0.00  0.00    +0.021 C 
ENDBRANCH  30  33
ENDBRANCH  22  31
ENDBRANCH  20  24
ENDBRANCH   7  20
TORSDOF 5
ENDMDL
MODEL 3
REMARK VINA RESULT:     -10.5      9.376     13.137
REMARK  Name = 42647297
REMARK  5 active torsions:
REMARK  status: ('A' for Active; 'I' for Inactive)
REMARK    1  A    between atoms: N_3  and  C_14
REMARK    2  A    between atoms: C_7  and  N_20
REMARK    3  A    between atoms: N_20  and  C_24
REMARK    4  A    between atoms: C_22  and  C_31
REMARK    5  A    between atoms: N_30  and  C_33
REMARK                            x       y       z     vdW  Elec       q    Type
REMARK                         _______ _______ _______ _____ _____    ______ ____
ROOT
ATOM      1  O   UNL     1      31.981 -22.205 -18.819  0.00  0.00    -0.269 OA
ATOM      2  N   UNL     1      33.673 -20.990 -19.884  0.00  0.00    -0.240 N 
ATOM      3  N   UNL     1      35.757 -19.929 -20.651  0.00  0.00    -0.174 N 
ATOM      4  N   UNL     1      37.070 -19.899 -20.340  0.00  0.00    -0.171 NA
ATOM      5  C   UNL     1      35.032 -20.741 -19.832  0.00  0.00    +0.133 C 
ATOM      6  C   UNL     1      35.920 -21.269 -18.935  0.00  0.00    +0.064 C 
ATOM      7  C   UNL     1      35.459 -22.168 -17.936  0.00  0.00    +0.057 C 
ATOM      8  C   UNL     1      34.140 -22.459 -17.924  0.00  0.00    +0.073 C 
ATOM      9  C   UNL     1      33.164 -21.872 -18.918  0.00  0.00    +0.255 C 
ATOM     10  C   UNL     1      37.163 -20.722 -19.286  0.00  0.00    +0.122 C 
ATOM     11  C   UNL     1      32.817 -20.369 -20.886  0.00  0.00    +0.122 C 
ENDROOT
BRANCH   3  14
ATOM     12  F   UNL     1      35.561 -17.165 -20.455  0.00  0.00    -0.203 F 
ATOM     13  F   UNL     1      34.070 -16.875 -24.934  0.00  0.00    -0.204 F 
ATOM     14  C   UNL     1      35.330 -19.156 -21.731  0.00  0.00    +0.103 C 
ATOM     15  C   UNL     1      35.241 -17.770 -21.607  0.00  0.00    +0.158 C 
ATOM     16  C   UNL     1      34.994 -19.773 -22.936  0.00  0.00    +0.021 C 
ATOM     17  C   UNL     1      34.815 -16.999 -22.691  0.00  0.00    +0.061 C 
ATOM     18  C   UNL     1      34.567 -19.002 -24.018  0.00  0.00    +0.031 C 
ATOM     19  C   UNL     1      34.478 -17.615 -23.895  0.00  0.00    +0.142 C 
ENDBRANCH   3  14
BRANCH   7  20
ATOM     20  N   UNL     1      36.341 -22.700 -17.034  0.00  0.00    -0.313 N 
ATOM     21  H   UNL     1      37.290 -22.662 -17.291  0.00  0.00    +0.152 HD
BRANCH  20  24
ATOM     22  C   UNL     1      34.447 -23.967 -14.136  0.00  0.00    +0.055 C 
ATOM     23  C   UNL     1      34.742 -23.382 -15.368  0.00  0.00    +0.019 C 
ATOM     24  C   UNL     1      36.064 -23.288 -15.798  0.00  0.00    +0.044 C 
ATOM     25  C   UNL     1      35.478 -24.460 -13.335  0.00  0.00    +0.004 C 
ATOM     26  C   UNL     1      37.095 -23.782 -14.997  0.00  0.00    -0.008 C 
ATOM     27  C   UNL     1      36.801 -24.367 -13.766  0.00  0.00    -0.003 C 
ATOM     28  C   UNL     1      38.522 -23.697 -15.433  0.00  0.00    +0.032 C 
BRANCH  22  31
ATOM     29  O   UNL     1      32.773 -24.743 -12.687  0.00  0.00    -0.270 OA
ATOM     30  N   UNL     1      32.104 -23.377 -14.436  0.00  0.00    -0.302 N 
ATOM     31  C   UNL     1      33.068 -24.063 -13.686  0.00  0.00    +0.246 C 
ATOM     32  H   UNL     1      32.403 -22.855 -15.215  0.00  0.00    +0.150 HD
BRANCH  30  33
ATOM     33  C   UNL     1      30.702 -23.397 -14.124  0.00  0.00    +0.072 C 
ATOM     34  C   UNL     1      29.801 -24.468 -14.666  0.00  0.00    +0.021 C 
ATOM     35  C   UNL     1      29.671 -23.057 -15.160  0.00  0.00    +0.021 C 
ENDBRANCH  30  33
ENDBRANCH  22  31
ENDBRANCH  20  24
ENDBRANCH   7  20
TORSDOF 5
ENDMDL
MODEL 4
REMARK VINA RESULT:     -10.1      9.217     13.033
REMARK  Name = 42647297
REMARK  5 active torsions:
REMARK  status: ('A' for Active; 'I' for Inactive)
REMARK    1  A    between atoms: N_3  and  C_14
REMARK    2  A    between atoms: C_7  and  N_20
REMARK    3  A    between atoms: N_20  and  C_24
REMARK    4  A    between atoms: C_22  and  C_31
REMARK    5  A    between atoms: N_30  and  C_33
REMARK                            x       y       z     vdW  Elec       q    Type
REMARK                         _______ _______ _______ _____ _____    ______ ____
ROOT
ATOM      1  O   UNL     1      37.589 -21.897 -18.187  0.00  0.00    -0.269 OA
ATOM      2  N   UNL     1      35.947 -20.852 -19.485  0.00  0.00    -0.240 N 
ATOM      3  N   UNL     1      33.901 -20.075 -20.609  0.00  0.00    -0.174 N 
ATOM      4  N   UNL     1      32.576 -20.331 -20.622  0.00  0.00    -0.171 NA
ATOM      5  C   UNL     1      34.587 -20.864 -19.736  0.00  0.00    +0.133 C 
ATOM      6  C   UNL     1      33.660 -21.679 -19.148  0.00  0.00    +0.064 C 
ATOM      7  C   UNL     1      34.076 -22.629 -18.174  0.00  0.00    +0.057 C 
ATOM      8  C   UNL     1      35.393 -22.676 -17.877  0.00  0.00    +0.073 C 
ATOM      9  C   UNL     1      36.413 -21.772 -18.531  0.00  0.00    +0.255 C 
ATOM     10  C   UNL     1      32.435 -21.316 -19.724  0.00  0.00    +0.122 C 
ATOM     11  C   UNL     1      36.847 -19.937 -20.173  0.00  0.00    +0.122 C 
ENDROOT
BRANCH   3  14
ATOM     12  F   UNL     1      34.358 -20.571 -23.304  0.00  0.00    -0.203 F 
ATOM     13  F   UNL     1      35.777 -16.108 -23.963  0.00  0.00    -0.204 F 
ATOM     14  C   UNL     1      34.376 -19.075 -21.458  0.00  0.00    +0.103 C 
ATOM     15  C   UNL     1      34.597 -19.349 -22.807  0.00  0.00    +0.158 C 
ATOM     16  C   UNL     1      34.628 -17.799 -20.954  0.00  0.00    +0.021 C 
ATOM     17  C   UNL     1      35.070 -18.345 -23.653  0.00  0.00    +0.061 C 
ATOM     18  C   UNL     1      35.102 -16.797 -21.800  0.00  0.00    +0.031 C 
ATOM     19  C   UNL     1      35.323 -17.070 -23.150  0.00  0.00    +0.142 C 
ENDBRANCH   3  14
BRANCH   7  20
ATOM     20  N   UNL     1      33.155 -23.449 -17.582  0.00  0.00    -0.313 N 
ATOM     21  H   UNL     1      32.633 -24.018 -18.192  0.00  0.00    +0.152 HD
BRANCH  20  24
ATOM     22  C   UNL     1      33.580 -24.150 -13.988  0.00  0.00    +0.055 C 
ATOM     23  C   UNL     1      33.856 -24.014 -15.349  0.00  0.00    +0.019 C 
ATOM     24  C   UNL     1      32.861 -23.580 -16.223  0.00  0.00    +0.044 C 
ATOM     25  C   UNL     1      32.307 -23.852 -13.502  0.00  0.00    +0.004 C 
ATOM     26  C   UNL     1      31.588 -23.280 -15.737  0.00  0.00    -0.008 C 
ATOM     27  C   UNL     1      31.311 -23.416 -14.377  0.00  0.00    -0.003 C 
ATOM     28  C   UNL     1      30.501 -22.812 -16.650  0.00  0.00    +0.032 C 
BRANCH  22  31
ATOM     29  O   UNL     1      34.558 -24.334 -11.864  0.00  0.00    -0.270 OA
ATOM     30  N   UNL     1      35.678 -25.333 -13.630  0.00  0.00    -0.302 N 
ATOM     31  C   UNL     1      34.618 -24.604 -13.076  0.00  0.00    +0.246 C 
ATOM     32  H   UNL     1      35.666 -25.514 -14.597  0.00  0.00    +0.150 HD
BRANCH  30  33
ATOM     33  C   UNL     1      36.783 -25.827 -12.856  0.00  0.00    +0.072 C 
ATOM     34  C   UNL     1      37.951 -24.947 -12.520  0.00  0.00    +0.021 C 
ATOM     35  C   UNL     1      38.120 -26.082 -13.487  0.00  0.00    +0.021 C 
ENDBRANCH  30  33
ENDBRANCH  22  31
ENDBRANCH  20  24
ENDBRANCH   7  20
TORSDOF 5
ENDMDL
MODEL 5
REMARK VINA RESULT:     -10.0      4.274     10.676
REMARK  Name = 42647297
REMARK  5 active torsions:
REMARK  status: ('A' for Active; 'I' for Inactive)
REMARK    1  A    between atoms: N_3  and  C_14
REMARK    2  A    between atoms: C_7  and  N_20
REMARK    3  A    between atoms: N_20  and  C_24
REMARK    4  A    between atoms: C_22  and  C_31
REMARK    5  A    between atoms: N_30  and  C_33
REMARK                            x       y       z     vdW  Elec       q    Type
REMARK                         _______ _______ _______ _____ _____    ______ ____
ROOT
ATOM      1  O   UNL     1      33.705 -16.207 -25.710  0.00  0.00    -0.269 OA
ATOM      2  N   UNL     1      34.300 -16.828 -23.535  0.00  0.00    -0.240 N 
ATOM      3  N   UNL     1      34.909 -16.976 -21.156  0.00  0.00    -0.174 N 
ATOM      4  N   UNL     1      35.112 -16.166 -20.095  0.00  0.00    -0.171 NA
ATOM      5  C   UNL     1      34.572 -16.297 -22.287  0.00  0.00    +0.133 C 
ATOM      6  C   UNL     1      34.555 -14.972 -21.948  0.00  0.00    +0.064 C 
ATOM      7  C   UNL     1      34.231 -13.999 -22.932  0.00  0.00    +0.057 C 
ATOM      8  C   UNL     1      33.954 -14.444 -24.176  0.00  0.00    +0.073 C 
ATOM      9  C   UNL     1      33.975 -15.909 -24.546  0.00  0.00    +0.255 C 
ATOM     10  C   UNL     1      34.894 -14.939 -20.588  0.00  0.00    +0.122 C 
ATOM     11  C   UNL     1      34.349 -18.262 -23.787  0.00  0.00    +0.122 C 
ENDROOT
BRANCH   3  14
ATOM     12  F   UNL     1      37.412 -18.175 -21.289  0.00  0.00    -0.203 F 
ATOM     13  F   UNL     1      35.516 -22.411 -20.381  0.00  0.00    -0.204 F 
ATOM     14  C   UNL     1      35.065 -18.348 -20.961  0.00  0.00    +0.103 C 
ATOM     15  C   UNL     1      36.332 -18.926 -21.033  0.00  0.00    +0.158 C 
ATOM     16  C   UNL     1      33.950 -19.142 -20.694  0.00  0.00    +0.021 C 
ATOM     17  C   UNL     1      36.484 -20.300 -20.836  0.00  0.00    +0.061 C 
ATOM     18  C   UNL     1      34.102 -20.515 -20.498  0.00  0.00    +0.031 C 
ATOM     19  C   UNL     1      35.369 -21.093 -20.570  0.00  0.00    +0.142 C 
ENDBRANCH   3  14
BRANCH   7  20
ATOM     20  N   UNL     1      34.213 -12.671 -22.600  0.00  0.00    -0.313 N 
ATOM     21  H   UNL     1      35.084 -12.274 -22.372  0.00  0.00    +0.152 HD
BRANCH  20  24
ATOM     22  C   UNL     1      32.052  -9.751 -23.226  0.00  0.00    +0.055 C 
ATOM     23  C   UNL     1      33.140 -10.623 -23.272  0.00  0.00    +0.019 C 
ATOM     24  C   UNL     1      33.115 -11.810 -22.542  0.00  0.00    +0.044 C 
ATOM     25  C   UNL     1      30.938 -10.067 -22.448  0.00  0.00    +0.004 C 
ATOM     26  C   UNL     1      32.000 -12.127 -21.764  0.00  0.00    -0.008 C 
ATOM     27  C   UNL     1      30.912 -11.255 -21.717  0.00  0.00    -0.003 C 
ATOM     28  C   UNL     1      31.945 -13.392 -20.971  0.00  0.00    +0.032 C 
BRANCH  22  31
ATOM     29  O   UNL     1      31.027  -8.024 -24.439  0.00  0.00    -0.270 OA
ATOM     30  N   UNL     1      33.330  -7.920 -24.198  0.00  0.00    -0.302 N 
ATOM     31  C   UNL     1      32.078  -8.512 -23.988  0.00  0.00    +0.246 C 
ATOM     32  H   UNL     1      34.123  -8.356 -23.813  0.00  0.00    +0.150 HD
BRANCH  30  33
ATOM     33  C   UNL     1      33.512  -6.708 -24.948  0.00  0.00    +0.072 C 
ATOM     34  C   UNL     1      34.730  -5.852 -24.755  0.00  0.00    +0.021 C 
ATOM     35  C   UNL     1      33.388  -5.364 -24.292  0.00  0.00    +0.021 C 
ENDBRANCH  30  33
ENDBRANCH  22  31
ENDBRANCH  20  24
ENDBRANCH   7  20
TORSDOF 5
ENDMDL
MODEL 6
REMARK VINA RESULT:      -9.8      3.809      9.287
REMARK  Name = 42647297
REMARK  5 active torsions:
REMARK  status: ('A' for Active; 'I' for Inactive)
REMARK    1  A    between atoms: N_3  and  C_14
REMARK    2  A    between atoms: C_7  and  N_20
REMARK    3  A    between atoms: N_20  and  C_24
REMARK    4  A    between atoms: C_22  and  C_31
REMARK    5  A    between atoms: N_30  and  C_33
REMARK                            x       y       z     vdW  Elec       q    Type
REMARK                         _______ _______ _______ _____ _____    ______ ____
ROOT
ATOM      1  O   UNL     1      30.228 -10.946 -20.590  0.00  0.00    -0.269 OA
ATOM      2  N   UNL     1      31.959 -11.582 -22.028  0.00  0.00    -0.240 N 
ATOM      3  N   UNL     1      33.905 -11.752 -23.524  0.00  0.00    -0.174 N 
ATOM      4  N   UNL     1      34.859 -10.964 -24.064  0.00  0.00    -0.171 NA
ATOM      5  C   UNL     1      33.039 -11.070 -22.725  0.00  0.00    +0.133 C 
ATOM      6  C   UNL     1      33.448  -9.765 -22.743  0.00  0.00    +0.064 C 
ATOM      7  C   UNL     1      32.733  -8.794 -21.992  0.00  0.00    +0.057 C 
ATOM      8  C   UNL     1      31.664  -9.220 -21.285  0.00  0.00    +0.073 C 
ATOM      9  C   UNL     1      31.216 -10.664 -21.269  0.00  0.00    +0.255 C 
ATOM     10  C   UNL     1      34.572  -9.747 -23.581  0.00  0.00    +0.122 C 
ATOM     11  C   UNL     1      31.611 -12.995 -22.081  0.00  0.00    +0.122 C 
ENDROOT
BRANCH   3  14
ATOM     12  F   UNL     1      34.925 -13.631 -21.749  0.00  0.00    -0.203 F 
ATOM     13  F   UNL     1      33.998 -17.127 -24.796  0.00  0.00    -0.204 F 
ATOM     14  C   UNL     1      33.931 -13.110 -23.844  0.00  0.00    +0.103 C 
ATOM     15  C   UNL     1      34.447 -14.033 -22.935  0.00  0.00    +0.158 C 
ATOM     16  C   UNL     1      33.437 -13.543 -25.074  0.00  0.00    +0.021 C 
ATOM     17  C   UNL     1      34.469 -15.391 -23.258  0.00  0.00    +0.061 C 
ATOM     18  C   UNL     1      33.460 -14.900 -25.396  0.00  0.00    +0.031 C 
ATOM     19  C   UNL     1      33.976 -15.824 -24.488  0.00  0.00    +0.142 C 
ENDBRANCH   3  14
BRANCH   7  20
ATOM     20  N   UNL     1      33.136  -7.486 -22.006  0.00  0.00    -0.313 N 
ATOM     21  H   UNL     1      33.712  -7.206 -21.259  0.00  0.00    +0.152 HD
BRANCH  20  24
ATOM     22  C   UNL     1      33.339  -5.393 -25.034  0.00  0.00    +0.055 C 
ATOM     23  C   UNL     1      33.627  -6.374 -24.085  0.00  0.00    +0.019 C 
ATOM     24  C   UNL     1      32.833  -6.498 -22.946  0.00  0.00    +0.044 C 
ATOM     25  C   UNL     1      32.254  -4.536 -24.844  0.00  0.00    +0.004 C 
ATOM     26  C   UNL     1      31.748  -5.642 -22.756  0.00  0.00    -0.008 C 
ATOM     27  C   UNL     1      31.459  -4.661 -23.704  0.00  0.00    -0.003 C 
ATOM     28  C   UNL     1      30.878  -5.752 -21.546  0.00  0.00    +0.032 C 
BRANCH  22  31
ATOM     29  O   UNL     1      34.877  -4.255 -26.391  0.00  0.00    -0.270 OA
ATOM     30  N   UNL     1      34.111  -6.304 -27.157  0.00  0.00    -0.302 N 
ATOM     31  C   UNL     1      34.168  -5.263 -26.222  0.00  0.00    +0.246 C 
ATOM     32  H   UNL     1      33.530  -7.074 -26.962  0.00  0.00    +0.150 HD
BRANCH  30  33
ATOM     33  C   UNL     1      34.858  -6.303 -28.384  0.00  0.00    +0.072 C 
ATOM     34  C   UNL     1      34.582  -5.293 -29.459  0.00  0.00    +0.021 C 
ATOM     35  C   UNL     1      34.228  -6.736 -29.676  0.00  0.00    +0.021 C 
ENDBRANCH  30  33
ENDBRANCH  22  31
ENDBRANCH  20  24
ENDBRANCH   7  20
TORSDOF 5
ENDMDL
MODEL 7
REMARK VINA RESULT:      -9.7      9.151     12.798
REMARK  Name = 42647297
REMARK  5 active torsions:
REMARK  status: ('A' for Active; 'I' for Inactive)
REMARK    1  A    between atoms: N_3  and  C_14
REMARK    2  A    between atoms: C_7  and  N_20
REMARK    3  A    between atoms: N_20  and  C_24
REMARK    4  A    between atoms: C_22  and  C_31
REMARK    5  A    between atoms: N_30  and  C_33
REMARK                            x       y       z     vdW  Elec       q    Type
REMARK                         _______ _______ _______ _____ _____    ______ ____
ROOT
ATOM      1  O   UNL     1      37.564 -21.789 -18.128  0.00  0.00    -0.269 OA
ATOM      2  N   UNL     1      35.942 -20.778 -19.477  0.00  0.00    -0.240 N 
ATOM      3  N   UNL     1      33.919 -20.055 -20.678  0.00  0.00    -0.174 N 
ATOM      4  N   UNL     1      32.608 -20.365 -20.762  0.00  0.00    -0.171 NA
ATOM      5  C   UNL     1      34.597 -20.839 -19.794  0.00  0.00    +0.133 C 
ATOM      6  C   UNL     1      33.679 -21.708 -19.272  0.00  0.00    +0.064 C 
ATOM      7  C   UNL     1      34.089 -22.665 -18.304  0.00  0.00    +0.057 C 
ATOM      8  C   UNL     1      35.391 -22.666 -17.945  0.00  0.00    +0.073 C 
ATOM      9  C   UNL     1      36.401 -21.703 -18.526  0.00  0.00    +0.255 C 
ATOM     10  C   UNL     1      32.468 -21.379 -19.897  0.00  0.00    +0.122 C 
ATOM     11  C   UNL     1      36.834 -19.808 -20.098  0.00  0.00    +0.122 C 
ENDROOT
BRANCH   3  14
ATOM     12  F   UNL     1      34.431 -20.433 -23.383  0.00  0.00    -0.203 F 
ATOM     13  F   UNL     1      35.782 -15.923 -23.835  0.00  0.00    -0.204 F 
ATOM     14  C   UNL     1      34.391 -19.014 -21.477  0.00  0.00    +0.103 C 
ATOM     15  C   UNL     1      34.639 -19.228 -22.832  0.00  0.00    +0.158 C 
ATOM     16  C   UNL     1      34.612 -17.755 -20.918  0.00  0.00    +0.021 C 
ATOM     17  C   UNL     1      35.109 -18.183 -23.629  0.00  0.00    +0.061 C 
ATOM     18  C   UNL     1      35.082 -16.711 -21.714  0.00  0.00    +0.031 C 
ATOM     19  C   UNL     1      35.330 -16.925 -23.070  0.00  0.00    +0.142 C 
ENDBRANCH   3  14
BRANCH   7  20
ATOM     20  N   UNL     1      33.176 -23.539 -17.778  0.00  0.00    -0.313 N 
ATOM     21  H   UNL     1      33.016 -24.358 -18.300  0.00  0.00    +0.152 HD
BRANCH  20  24
ATOM     22  C   UNL     1      30.335 -22.987 -15.494  0.00  0.00    +0.055 C 
ATOM     23  C   UNL     1      31.083 -23.114 -16.665  0.00  0.00    +0.019 C 
ATOM     24  C   UNL     1      32.443 -23.415 -16.596  0.00  0.00    +0.044 C 
ATOM     25  C   UNL     1      30.948 -23.162 -14.253  0.00  0.00    +0.004 C 
ATOM     26  C   UNL     1      33.055 -23.591 -15.355  0.00  0.00    -0.008 C 
ATOM     27  C   UNL     1      32.309 -23.465 -14.184  0.00  0.00    -0.003 C 
ATOM     28  C   UNL     1      34.510 -23.916 -15.250  0.00  0.00    +0.032 C 
BRANCH  22  31
ATOM     29  O   UNL     1      28.337 -22.142 -14.602  0.00  0.00    -0.270 OA
ATOM     30  N   UNL     1      28.249 -23.007 -16.750  0.00  0.00    -0.302 N 
ATOM     31  C   UNL     1      28.918 -22.671 -15.566  0.00  0.00    +0.246 C 
ATOM     32  H   UNL     1      28.767 -23.422 -17.477  0.00  0.00    +0.150 HD
BRANCH  30  33
ATOM     33  C   UNL     1      26.847 -22.774 -16.957  0.00  0.00    +0.072 C 
ATOM     34  C   UNL     1      26.321 -22.337 -18.293  0.00  0.00    +0.021 C 
ATOM     35  C   UNL     1      26.309 -21.384 -17.133  0.00  0.00    +0.021 C 
ENDBRANCH  30  33
ENDBRANCH  22  31
ENDBRANCH  20  24
ENDBRANCH   7  20
TORSDOF 5
ENDMDL
MODEL 8
REMARK VINA RESULT:      -9.6      4.728      7.587
REMARK  Name = 42647297
REMARK  5 active torsions:
REMARK  status: ('A' for Active; 'I' for Inactive)
REMARK    1  A    between atoms: N_3  and  C_14
REMARK    2  A    between atoms: C_7  and  N_20
REMARK    3  A    between atoms: N_20  and  C_24
REMARK    4  A    between atoms: C_22  and  C_31
REMARK    5  A    between atoms: N_30  and  C_33
REMARK                            x       y       z     vdW  Elec       q    Type
REMARK                         _______ _______ _______ _____ _____    ______ ____
ROOT
ATOM      1  O   UNL     1      33.456 -15.785 -26.055  0.00  0.00    -0.269 OA
ATOM      2  N   UNL     1      33.538 -15.065 -23.830  0.00  0.00    -0.240 N 
ATOM      3  N   UNL     1      33.901 -14.736 -21.419  0.00  0.00    -0.174 N 
ATOM      4  N   UNL     1      34.514 -15.341 -20.380  0.00  0.00    -0.171 NA
ATOM      5  C   UNL     1      34.040 -15.416 -22.591  0.00  0.00    +0.133 C 
ATOM      6  C   UNL     1      34.784 -16.527 -22.301  0.00  0.00    +0.064 C 
ATOM      7  C   UNL     1      35.104 -17.448 -23.336  0.00  0.00    +0.057 C 
ATOM      8  C   UNL     1      34.645 -17.171 -24.575  0.00  0.00    +0.073 C 
ATOM      9  C   UNL     1      33.823 -15.942 -24.889  0.00  0.00    +0.255 C 
ATOM     10  C   UNL     1      35.053 -16.439 -20.928  0.00  0.00    +0.122 C 
ATOM     11  C   UNL     1      32.753 -13.854 -24.026  0.00  0.00    +0.122 C 
ENDROOT
BRANCH   3  14
ATOM     12  F   UNL     1      32.000 -14.546 -19.402  0.00  0.00    -0.203 F 
ATOM     13  F   UNL     1      31.256  -9.989 -20.426  0.00  0.00    -0.204 F 
ATOM     14  C   UNL     1      33.231 -13.538 -21.167  0.00  0.00    +0.103 C 
ATOM     15  C   UNL     1      32.281 -13.469 -20.148  0.00  0.00    +0.158 C 
ATOM     16  C   UNL     1      33.514 -12.410 -21.936  0.00  0.00    +0.021 C 
ATOM     17  C   UNL     1      31.614 -12.268 -19.898  0.00  0.00    +0.061 C 
ATOM     18  C   UNL     1      32.847 -11.211 -21.686  0.00  0.00    +0.031 C 
ATOM     19  C   UNL     1      31.897 -11.140 -20.667  0.00  0.00    +0.142 C 
ENDBRANCH   3  14
BRANCH   7  20
ATOM     20  N   UNL     1      35.846 -18.562 -23.054  0.00  0.00    -0.313 N 
ATOM     21  H   UNL     1      36.378 -18.923 -23.799  0.00  0.00    +0.152 HD
BRANCH  20  24
ATOM     22  C   UNL     1      34.916 -20.643 -20.156  0.00  0.00    +0.055 C 
ATOM     23  C   UNL     1      34.836 -19.948 -21.363  0.00  0.00    +0.019 C 
ATOM     24  C   UNL     1      35.945 -19.252 -21.843  0.00  0.00    +0.044 C 
ATOM     25  C   UNL     1      36.107 -20.641 -19.428  0.00  0.00    +0.004 C 
ATOM     26  C   UNL     1      37.135 -19.251 -21.116  0.00  0.00    -0.008 C 
ATOM     27  C   UNL     1      37.217 -19.945 -19.909  0.00  0.00    -0.003 C 
ATOM     28  C   UNL     1      38.340 -18.514 -21.606  0.00  0.00    +0.032 C 
BRANCH  22  31
ATOM     29  O   UNL     1      32.614 -21.078 -20.042  0.00  0.00    -0.270 OA
ATOM     30  N   UNL     1      33.999 -22.379 -18.716  0.00  0.00    -0.302 N 
ATOM     31  C   UNL     1      33.760 -21.368 -19.655  0.00  0.00    +0.246 C 
ATOM     32  H   UNL     1      34.930 -22.560 -18.452  0.00  0.00    +0.150 HD
BRANCH  30  33
ATOM     33  C   UNL     1      32.955 -23.164 -18.119  0.00  0.00    +0.072 C 
ATOM     34  C   UNL     1      32.176 -22.654 -16.942  0.00  0.00    +0.021 C 
ATOM     35  C   UNL     1      33.133 -23.797 -16.770  0.00  0.00    +0.021 C 
ENDBRANCH  30  33
ENDBRANCH  22  31
ENDBRANCH  20  24
ENDBRANCH   7  20
TORSDOF 5
ENDMDL
MODEL 9
REMARK VINA RESULT:      -9.3      4.855      8.341
REMARK  Name = 42647297
REMARK  5 active torsions:
REMARK  status: ('A' for Active; 'I' for Inactive)
REMARK    1  A    between atoms: N_3  and  C_14
REMARK    2  A    between atoms: C_7  and  N_20
REMARK    3  A    between atoms: N_20  and  C_24
REMARK    4  A    between atoms: C_22  and  C_31
REMARK    5  A    between atoms: N_30  and  C_33
REMARK                            x       y       z     vdW  Elec       q    Type
REMARK                         _______ _______ _______ _____ _____    ______ ____
ROOT
ATOM      1  O   UNL     1      34.413 -17.911 -25.332  0.00  0.00    -0.269 OA
ATOM      2  N   UNL     1      34.192 -16.327 -23.624  0.00  0.00    -0.240 N 
ATOM      3  N   UNL     1      34.186 -15.022 -21.539  0.00  0.00    -0.174 N 
ATOM      4  N   UNL     1      34.571 -15.141 -20.250  0.00  0.00    -0.171 NA
ATOM      5  C   UNL     1      34.458 -16.130 -22.281  0.00  0.00    +0.133 C 
ATOM      6  C   UNL     1      35.051 -17.023 -21.432  0.00  0.00    +0.064 C 
ATOM      7  C   UNL     1      35.458 -18.295 -21.921  0.00  0.00    +0.057 C 
ATOM      8  C   UNL     1      35.230 -18.559 -23.225  0.00  0.00    +0.073 C 
ATOM      9  C   UNL     1      34.573 -17.569 -24.159  0.00  0.00    +0.255 C 
ATOM     10  C   UNL     1      35.100 -16.371 -20.192  0.00  0.00    +0.122 C 
ATOM     11  C   UNL     1      33.551 -15.304 -24.438  0.00  0.00    +0.122 C 
ENDROOT
BRANCH   3  14
ATOM     12  F   UNL     1      31.784 -14.188 -20.418  0.00  0.00    -0.203 F 
ATOM     13  F   UNL     1      31.813 -10.276 -23.076  0.00  0.00    -0.204 F 
ATOM     14  C   UNL     1      33.584 -13.824 -21.926  0.00  0.00    +0.103 C 
ATOM     15  C   UNL     1      32.379 -13.428 -21.348  0.00  0.00    +0.158 C 
ATOM     16  C   UNL     1      34.192 -13.023 -22.892  0.00  0.00    +0.021 C 
ATOM     17  C   UNL     1      31.781 -12.228 -21.737  0.00  0.00    +0.061 C 
ATOM     18  C   UNL     1      33.594 -11.825 -23.281  0.00  0.00    +0.031 C 
ATOM     19  C   UNL     1      32.388 -11.427 -22.703  0.00  0.00    +0.142 C 
ENDBRANCH   3  14
BRANCH   7  20
ATOM     20  N   UNL     1      36.051 -19.194 -21.077  0.00  0.00    -0.313 N 
ATOM     21  H   UNL     1      37.034 -19.159 -21.036  0.00  0.00    +0.152 HD
BRANCH  20  24
ATOM     22  C   UNL     1      35.571 -21.691 -18.408  0.00  0.00    +0.055 C 
ATOM     23  C   UNL     1      36.166 -20.731 -19.227  0.00  0.00    +0.019 C 
ATOM     24  C   UNL     1      35.440 -20.154 -20.267  0.00  0.00    +0.044 C 
ATOM     25  C   UNL     1      34.247 -22.074 -18.631  0.00  0.00    +0.004 C 
ATOM     26  C   UNL     1      34.116 -20.535 -20.490  0.00  0.00    -0.008 C 
ATOM     27  C   UNL     1      33.520 -21.495 -19.672  0.00  0.00    -0.003 C 
ATOM     28  C   UNL     1      33.313 -19.933 -21.596  0.00  0.00    +0.032 C 
BRANCH  22  31
ATOM     29  O   UNL     1      37.568 -22.197 -17.286  0.00  0.00    -0.270 OA
ATOM     30  N   UNL     1      35.603 -22.995 -16.352  0.00  0.00    -0.302 N 
ATOM     31  C   UNL     1      36.328 -22.295 -17.324  0.00  0.00    +0.246 C 
ATOM     32  H   UNL     1      34.624 -23.034 -16.439  0.00  0.00    +0.150 HD
BRANCH  30  33
ATOM     33  C   UNL     1      36.217 -23.659 -15.236  0.00  0.00    +0.072 C 
ATOM     34  C   UNL     1      35.616 -24.899 -14.643  0.00  0.00    +0.021 C 
ATOM     35  C   UNL     1      35.599 -23.613 -13.869  0.00  0.00    +0.021 C 
ENDBRANCH  30  33
ENDBRANCH  22  31
ENDBRANCH  20  24
ENDBRANCH   7  20
TORSDOF 5
ENDMDL
