MODEL 1
REMARK VINA RESULT:     -12.3      0.000      0.000
REMARK  Name = 11476460
REMARK  8 active torsions:
REMARK  status: ('A' for Active; 'I' for Inactive)
REMARK    1  A    between atoms: C_2  and  N_10
REMARK    2  A    between atoms: C_5  and  C_23
REMARK    3  A    between atoms: C_11  and  C_14
REMARK    4  A    between atoms: C_14  and  O_15
REMARK    5  A    between atoms: O_15  and  P_16
REMARK    6  A    between atoms: P_16  and  O_18
REMARK    7  A    between atoms: P_16  and  O_20
REMARK    8  A    between atoms: C_27  and  C_32
REMARK                            x       y       z     vdW  Elec       q    Type
REMARK                         _______ _______ _______ _____ _____    ______ ____
ROOT
ATOM      1  F   UNL     1      33.232 -22.815 -17.998  0.00  0.00    -0.204 F 
ATOM      2  C   UNL     1      36.001 -23.538 -15.751  0.00  0.00    +0.059 C 
ATOM      3  C   UNL     1      34.726 -23.549 -16.324  0.00  0.00    +0.045 C 
ATOM      4  C   UNL     1      37.011 -22.762 -16.330  0.00  0.00    +0.015 C 
ATOM      5  C   UNL     1      35.472 -22.019 -18.039  0.00  0.00    +0.029 C 
ATOM      6  C   UNL     1      34.462 -22.791 -17.465  0.00  0.00    +0.141 C 
ATOM      7  C   UNL     1      36.746 -22.005 -17.471  0.00  0.00    +0.004 C 
ENDROOT
BRANCH   2  10
ATOM      8  O   UNL     1      36.555 -26.046 -13.170  0.00  0.00    -0.434 OA
ATOM      9  O   UNL     1      35.959 -26.546 -15.300  0.00  0.00    -0.226 OA
ATOM     10  N   UNL     1      36.271 -24.311 -14.586  0.00  0.00    -0.221 N 
ATOM     11  C   UNL     1      37.031 -24.884 -12.477  0.00  0.00    +0.221 C 
ATOM     12  C   UNL     1      36.519 -23.721 -13.299  0.00  0.00    +0.148 C 
ATOM     13  C   UNL     1      36.239 -25.698 -14.464  0.00  0.00    +0.409 C 
BRANCH  11  14
ATOM     14  C   UNL     1      38.552 -24.943 -12.404  0.00  0.00    +0.199 C 
BRANCH  14  15
ATOM     15  O   UNL     1      38.984 -26.173 -12.960  0.00  0.00    -0.269 OA
BRANCH  15  16
ATOM     16  P   UNL     1      40.222 -26.157 -14.003  0.00  0.00    +0.473 P 
ATOM     17  O   UNL     1      41.239 -27.241 -13.798  0.00  0.00    -0.227 OA
BRANCH  16  18
ATOM     18  O   UNL     1      40.791 -24.646 -13.901  0.00  0.00    -0.303 OA
ATOM     19  H   UNL     1      41.467 -24.509 -14.583  0.00  0.00    +0.222 HD
ENDBRANCH  16  18
BRANCH  16  20
ATOM     20  O   UNL     1      39.482 -26.177 -15.442  0.00  0.00    -0.303 OA
ATOM     21  H   UNL     1      38.940 -25.379 -15.537  0.00  0.00    +0.222 HD
ENDBRANCH  16  20
ENDBRANCH  15  16
ENDBRANCH  14  15
ENDBRANCH  11  14
ENDBRANCH   2  10
BRANCH   5  23
ATOM     22  N   UNL     1      36.048 -19.869 -21.028  0.00  0.00    -0.234 NA
ATOM     23  C   UNL     1      35.203 -21.231 -19.222  0.00  0.00    +0.021 C 
ATOM     24  C   UNL     1      33.906 -21.064 -19.689  0.00  0.00    +0.004 C 
ATOM     25  C   UNL     1      36.230 -20.619 -19.919  0.00  0.00    +0.100 C 
ATOM     26  C   UNL     1      33.678 -20.299 -20.828  0.00  0.00    +0.029 C 
ATOM     27  C   UNL     1      34.773 -19.728 -21.455  0.00  0.00    +0.146 C 
BRANCH  27  32
ATOM     28  N   UNL     1      34.954 -17.644 -22.709  0.00  0.00    -0.105 NA
ATOM     29  N   UNL     1      34.582 -17.392 -23.972  0.00  0.00    -0.113 N 
ATOM     30  N   UNL     1      34.045 -19.422 -23.775  0.00  0.00    -0.085 NA
ATOM     31  N   UNL     1      34.038 -18.417 -24.643  0.00  0.00    -0.018 NA
ATOM     32  C   UNL     1      34.597 -18.927 -22.633  0.00  0.00    +0.092 C 
ATOM     33  C   UNL     1      34.756 -16.096 -24.575  0.00  0.00    +0.163 C 
ENDBRANCH  27  32
ENDBRANCH   5  23
TORSDOF 8
ENDMDL
MODEL 2
REMARK VINA RESULT:     -11.2      7.273     11.211
REMARK  Name = 11476460
REMARK  8 active torsions:
REMARK  status: ('A' for Active; 'I' for Inactive)
REMARK    1  A    between atoms: C_2  and  N_10
REMARK    2  A    between atoms: C_5  and  C_23
REMARK    3  A    between atoms: C_11  and  C_14
REMARK    4  A    between atoms: C_14  and  O_15
REMARK    5  A    between atoms: O_15  and  P_16
REMARK    6  A    between atoms: P_16  and  O_18
REMARK    7  A    between atoms: P_16  and  O_20
REMARK    8  A    between atoms: C_27  and  C_32
REMARK                            x       y       z     vdW  Elec       q    Type
REMARK                         _______ _______ _______ _____ _____    ______ ____
ROOT
ATOM      1  F   UNL     1      32.985 -21.231 -19.663  0.00  0.00    -0.204 F 
ATOM      2  C   UNL     1      34.996 -19.198 -21.914  0.00  0.00    +0.059 C 
ATOM      3  C   UNL     1      33.892 -19.827 -21.330  0.00  0.00    +0.045 C 
ATOM      4  C   UNL     1      36.267 -19.387 -21.362  0.00  0.00    +0.015 C 
ATOM      5  C   UNL     1      35.327 -20.821 -19.660  0.00  0.00    +0.029 C 
ATOM      6  C   UNL     1      34.057 -20.637 -20.207  0.00  0.00    +0.141 C 
ATOM      7  C   UNL     1      36.432 -20.196 -20.239  0.00  0.00    +0.004 C 
ENDROOT
BRANCH   2  10
ATOM      8  O   UNL     1      34.269 -17.630 -25.119  0.00  0.00    -0.434 OA
ATOM      9  O   UNL     1      33.721 -19.773 -24.615  0.00  0.00    -0.226 OA
ATOM     10  N   UNL     1      34.828 -18.372 -23.061  0.00  0.00    -0.221 N 
ATOM     11  C   UNL     1      34.713 -16.479 -24.388  0.00  0.00    +0.221 C 
ATOM     12  C   UNL     1      35.389 -17.052 -23.161  0.00  0.00    +0.148 C 
ATOM     13  C   UNL     1      34.219 -18.711 -24.267  0.00  0.00    +0.409 C 
BRANCH  11  14
ATOM     14  C   UNL     1      33.505 -15.612 -24.057  0.00  0.00    +0.199 C 
BRANCH  14  15
ATOM     15  O   UNL     1      33.824 -14.262 -24.347  0.00  0.00    -0.269 OA
BRANCH  15  16
ATOM     16  P   UNL     1      33.777 -13.182 -23.142  0.00  0.00    +0.473 P 
ATOM     17  O   UNL     1      32.412 -12.927 -22.571  0.00  0.00    -0.227 OA
BRANCH  16  18
ATOM     18  O   UNL     1      34.521 -11.885 -23.759  0.00  0.00    -0.303 OA
ATOM     19  H   UNL     1      34.547 -11.180 -23.092  0.00  0.00    +0.222 HD
ENDBRANCH  16  18
BRANCH  16  20
ATOM     20  O   UNL     1      34.859 -13.765 -22.090  0.00  0.00    -0.303 OA
ATOM     21  H   UNL     1      35.728 -13.375 -22.272  0.00  0.00    +0.222 HD
ENDBRANCH  16  20
ENDBRANCH  15  16
ENDBRANCH  14  15
ENDBRANCH  11  14
ENDBRANCH   2  10
BRANCH   5  23
ATOM     22  N   UNL     1      34.605 -23.338 -17.008  0.00  0.00    -0.234 NA
ATOM     23  C   UNL     1      35.504 -21.661 -18.495  0.00  0.00    +0.021 C 
ATOM     24  C   UNL     1      36.677 -21.617 -17.755  0.00  0.00    +0.004 C 
ATOM     25  C   UNL     1      34.507 -22.528 -18.086  0.00  0.00    +0.100 C 
ATOM     26  C   UNL     1      36.817 -22.435 -16.639  0.00  0.00    +0.029 C 
ATOM     27  C   UNL     1      35.761 -23.270 -16.310  0.00  0.00    +0.146 C 
BRANCH  27  32
ATOM     28  N   UNL     1      36.845 -25.004 -14.982  0.00  0.00    -0.105 NA
ATOM     29  N   UNL     1      36.452 -25.530 -13.813  0.00  0.00    -0.113 N 
ATOM     30  N   UNL     1      34.916 -24.132 -14.177  0.00  0.00    -0.085 NA
ATOM     31  N   UNL     1      35.315 -25.044 -13.298  0.00  0.00    -0.018 NA
ATOM     32  C   UNL     1      35.850 -24.134 -15.168  0.00  0.00    +0.092 C 
ATOM     33  C   UNL     1      37.209 -26.559 -13.147  0.00  0.00    +0.163 C 
ENDBRANCH  27  32
ENDBRANCH   5  23
TORSDOF 8
ENDMDL
MODEL 3
REMARK VINA RESULT:     -10.4      2.011      2.868
REMARK  Name = 11476460
REMARK  8 active torsions:
REMARK  status: ('A' for Active; 'I' for Inactive)
REMARK    1  A    between atoms: C_2  and  N_10
REMARK    2  A    between atoms: C_5  and  C_23
REMARK    3  A    between atoms: C_11  and  C_14
REMARK    4  A    between atoms: C_14  and  O_15
REMARK    5  A    between atoms: O_15  and  P_16
REMARK    6  A    between atoms: P_16  and  O_18
REMARK    7  A    between atoms: P_16  and  O_20
REMARK    8  A    between atoms: C_27  and  C_32
REMARK                            x       y       z     vdW  Elec       q    Type
REMARK                         _______ _______ _______ _____ _____    ______ ____
ROOT
ATOM      1  F   UNL     1      33.212 -22.182 -19.103  0.00  0.00    -0.204 F 
ATOM      2  C   UNL     1      35.757 -23.073 -16.659  0.00  0.00    +0.059 C 
ATOM      3  C   UNL     1      34.544 -23.043 -17.355  0.00  0.00    +0.045 C 
ATOM      4  C   UNL     1      36.807 -22.246 -17.070  0.00  0.00    +0.015 C 
ATOM      5  C   UNL     1      35.434 -21.373 -18.857  0.00  0.00    +0.029 C 
ATOM      6  C   UNL     1      34.383 -22.196 -18.451  0.00  0.00    +0.141 C 
ATOM      7  C   UNL     1      36.646 -21.398 -18.166  0.00  0.00    +0.004 C 
ENDROOT
BRANCH   2  10
ATOM      8  O   UNL     1      36.812 -25.049 -13.789  0.00  0.00    -0.434 OA
ATOM      9  O   UNL     1      38.174 -23.609 -14.893  0.00  0.00    -0.226 OA
ATOM     10  N   UNL     1      35.921 -23.937 -15.541  0.00  0.00    -0.221 N 
ATOM     11  C   UNL     1      35.404 -25.318 -13.756  0.00  0.00    +0.221 C 
ATOM     12  C   UNL     1      34.902 -24.855 -15.107  0.00  0.00    +0.148 C 
ATOM     13  C   UNL     1      37.069 -24.120 -14.773  0.00  0.00    +0.409 C 
BRANCH  11  14
ATOM     14  C   UNL     1      34.784 -24.556 -12.593  0.00  0.00    +0.199 C 
BRANCH  14  15
ATOM     15  O   UNL     1      35.775 -23.722 -12.018  0.00  0.00    -0.269 OA
BRANCH  15  16
ATOM     16  P   UNL     1      36.378 -24.124 -10.570  0.00  0.00    +0.473 P 
ATOM     17  O   UNL     1      35.398 -24.767  -9.632  0.00  0.00    -0.227 OA
BRANCH  16  18
ATOM     18  O   UNL     1      37.047 -22.752 -10.038  0.00  0.00    -0.303 OA
ATOM     19  H   UNL     1      36.358 -22.179  -9.666  0.00  0.00    +0.222 HD
ENDBRANCH  16  18
BRANCH  16  20
ATOM     20  O   UNL     1      37.658 -25.038 -10.952  0.00  0.00    -0.303 OA
ATOM     21  H   UNL     1      37.771 -25.730 -10.282  0.00  0.00    +0.222 HD
ENDBRANCH  16  20
ENDBRANCH  15  16
ENDBRANCH  14  15
ENDBRANCH  11  14
ENDBRANCH   2  10
BRANCH   5  23
ATOM     22  N   UNL     1      33.832 -19.574 -21.701  0.00  0.00    -0.234 NA
ATOM     23  C   UNL     1      35.271 -20.491 -19.993  0.00  0.00    +0.021 C 
ATOM     24  C   UNL     1      36.336 -19.738 -20.470  0.00  0.00    +0.004 C 
ATOM     25  C   UNL     1      34.052 -20.376 -20.636  0.00  0.00    +0.100 C 
ATOM     26  C   UNL     1      36.150 -18.900 -21.564  0.00  0.00    +0.029 C 
ATOM     27  C   UNL     1      34.890 -18.855 -22.139  0.00  0.00    +0.146 C 
BRANCH  27  32
ATOM     28  N   UNL     1      34.584 -16.678 -23.195  0.00  0.00    -0.105 NA
ATOM     29  N   UNL     1      34.337 -16.401 -24.483  0.00  0.00    -0.113 N 
ATOM     30  N   UNL     1      34.441 -18.506 -24.523  0.00  0.00    -0.085 NA
ATOM     31  N   UNL     1      34.244 -17.453 -25.307  0.00  0.00    -0.018 NA
ATOM     32  C   UNL     1      34.641 -18.009 -23.271  0.00  0.00    +0.092 C 
ATOM     33  C   UNL     1      34.179 -15.049 -24.956  0.00  0.00    +0.163 C 
ENDBRANCH  27  32
ENDBRANCH   5  23
TORSDOF 8
ENDMDL
MODEL 4
REMARK VINA RESULT:     -10.3     10.921     14.554
REMARK  Name = 11476460
REMARK  8 active torsions:
REMARK  status: ('A' for Active; 'I' for Inactive)
REMARK    1  A    between atoms: C_2  and  N_10
REMARK    2  A    between atoms: C_5  and  C_23
REMARK    3  A    between atoms: C_11  and  C_14
REMARK    4  A    between atoms: C_14  and  O_15
REMARK    5  A    between atoms: O_15  and  P_16
REMARK    6  A    between atoms: P_16  and  O_18
REMARK    7  A    between atoms: P_16  and  O_20
REMARK    8  A    between atoms: C_27  and  C_32
REMARK                            x       y       z     vdW  Elec       q    Type
REMARK                         _______ _______ _______ _____ _____    ______ ____
ROOT
ATOM      1  F   UNL     1      31.741 -13.738 -20.598  0.00  0.00    -0.204 F 
ATOM      2  C   UNL     1      32.419 -10.876 -22.742  0.00  0.00    +0.059 C 
ATOM      3  C   UNL     1      31.806 -11.705 -21.796  0.00  0.00    +0.045 C 
ATOM      4  C   UNL     1      33.575 -11.314 -23.395  0.00  0.00    +0.015 C 
ATOM      5  C   UNL     1      33.498 -13.390 -22.162  0.00  0.00    +0.029 C 
ATOM      6  C   UNL     1      32.345 -12.959 -21.507  0.00  0.00    +0.141 C 
ATOM      7  C   UNL     1      34.113 -12.568 -23.106  0.00  0.00    +0.004 C 
ENDROOT
BRANCH   2  10
ATOM      8  O   UNL     1      30.992  -7.527 -22.825  0.00  0.00    -0.434 OA
ATOM      9  O   UNL     1      31.496  -8.631 -20.909  0.00  0.00    -0.226 OA
ATOM     10  N   UNL     1      31.869  -9.597 -23.038  0.00  0.00    -0.221 N 
ATOM     11  C   UNL     1      31.279  -7.697 -24.220  0.00  0.00    +0.221 C 
ATOM     12  C   UNL     1      31.535  -9.181 -24.373  0.00  0.00    +0.148 C 
ATOM     13  C   UNL     1      31.478  -8.613 -22.132  0.00  0.00    +0.409 C 
BRANCH  11  14
ATOM     14  C   UNL     1      32.485  -6.840 -24.582  0.00  0.00    +0.199 C 
BRANCH  14  15
ATOM     15  O   UNL     1      33.612  -7.686 -24.733  0.00  0.00    -0.269 OA
BRANCH  15  16
ATOM     16  P   UNL     1      34.879  -7.468 -23.748  0.00  0.00    +0.473 P 
ATOM     17  O   UNL     1      35.750  -8.675 -23.559  0.00  0.00    -0.227 OA
BRANCH  16  18
ATOM     18  O   UNL     1      34.217  -6.875 -22.397  0.00  0.00    -0.303 OA
ATOM     19  H   UNL     1      34.592  -5.999 -22.211  0.00  0.00    +0.222 HD
ENDBRANCH  16  18
BRANCH  16  20
ATOM     20  O   UNL     1      35.621  -6.183 -24.393  0.00  0.00    -0.303 OA
ATOM     21  H   UNL     1      35.199  -5.956 -25.236  0.00  0.00    +0.222 HD
ENDBRANCH  16  20
ENDBRANCH  15  16
ENDBRANCH  14  15
ENDBRANCH  11  14
ENDBRANCH   2  10
BRANCH   5  23
ATOM     22  N   UNL     1      34.768 -16.303 -20.214  0.00  0.00    -0.234 NA
ATOM     23  C   UNL     1      34.060 -14.691 -21.866  0.00  0.00    +0.021 C 
ATOM     24  C   UNL     1      34.429 -15.558 -22.886  0.00  0.00    +0.004 C 
ATOM     25  C   UNL     1      34.248 -15.104 -20.559  0.00  0.00    +0.100 C 
ATOM     26  C   UNL     1      34.968 -16.800 -22.571  0.00  0.00    +0.029 C 
ATOM     27  C   UNL     1      35.115 -17.122 -21.231  0.00  0.00    +0.146 C 
BRANCH  27  32
ATOM     28  N   UNL     1      34.923 -19.467 -20.590  0.00  0.00    -0.105 NA
ATOM     29  N   UNL     1      35.899 -20.336 -20.294  0.00  0.00    -0.113 N 
ATOM     30  N   UNL     1      37.007 -18.593 -20.716  0.00  0.00    -0.085 NA
ATOM     31  N   UNL     1      37.151 -19.862 -20.355  0.00  0.00    -0.018 NA
ATOM     32  C   UNL     1      35.667 -18.390 -20.848  0.00  0.00    +0.092 C 
ATOM     33  C   UNL     1      35.620 -21.701 -19.929  0.00  0.00    +0.163 C 
ENDBRANCH  27  32
ENDBRANCH   5  23
TORSDOF 8
ENDMDL
MODEL 5
REMARK VINA RESULT:     -10.2      5.914      8.886
REMARK  Name = 11476460
REMARK  8 active torsions:
REMARK  status: ('A' for Active; 'I' for Inactive)
REMARK    1  A    between atoms: C_2  and  N_10
REMARK    2  A    between atoms: C_5  and  C_23
REMARK    3  A    between atoms: C_11  and  C_14
REMARK    4  A    between atoms: C_14  and  O_15
REMARK    5  A    between atoms: O_15  and  P_16
REMARK    6  A    between atoms: P_16  and  O_18
REMARK    7  A    between atoms: P_16  and  O_20
REMARK    8  A    between atoms: C_27  and  C_32
REMARK                            x       y       z     vdW  Elec       q    Type
REMARK                         _______ _______ _______ _____ _____    ______ ____
ROOT
ATOM      1  F   UNL     1      34.123 -15.699 -24.320  0.00  0.00    -0.204 F 
ATOM      2  C   UNL     1      35.167 -17.624 -21.413  0.00  0.00    +0.059 C 
ATOM      3  C   UNL     1      34.874 -17.281 -22.737  0.00  0.00    +0.045 C 
ATOM      4  C   UNL     1      34.982 -16.678 -20.399  0.00  0.00    +0.015 C 
ATOM      5  C   UNL     1      34.217 -15.067 -22.029  0.00  0.00    +0.029 C 
ATOM      6  C   UNL     1      34.400 -16.006 -23.044  0.00  0.00    +0.141 C 
ATOM      7  C   UNL     1      34.508 -15.403 -20.707  0.00  0.00    +0.004 C 
ENDROOT
BRANCH   2  10
ATOM      8  O   UNL     1      37.016 -20.663 -20.638  0.00  0.00    -0.434 OA
ATOM      9  O   UNL     1      38.001 -18.657 -21.021  0.00  0.00    -0.226 OA
ATOM     10  N   UNL     1      35.651 -18.925 -21.099  0.00  0.00    -0.221 N 
ATOM     11  C   UNL     1      35.682 -21.128 -20.388  0.00  0.00    +0.221 C 
ATOM     12  C   UNL     1      34.795 -20.078 -21.022  0.00  0.00    +0.148 C 
ATOM     13  C   UNL     1      36.976 -19.317 -20.925  0.00  0.00    +0.409 C 
BRANCH  11  14
ATOM     14  C   UNL     1      35.480 -21.255 -18.884  0.00  0.00    +0.199 C 
BRANCH  14  15
ATOM     15  O   UNL     1      35.324 -22.625 -18.562  0.00  0.00    -0.269 OA
BRANCH  15  16
ATOM     16  P   UNL     1      33.825 -23.216 -18.403  0.00  0.00    +0.473 P 
ATOM     17  O   UNL     1      32.724 -22.231 -18.664  0.00  0.00    -0.227 OA
BRANCH  16  18
ATOM     18  O   UNL     1      33.827 -23.876 -16.926  0.00  0.00    -0.303 OA
ATOM     19  H   UNL     1      32.921 -24.122 -16.681  0.00  0.00    +0.222 HD
ENDBRANCH  16  18
BRANCH  16  20
ATOM     20  O   UNL     1      33.838 -24.503 -19.384  0.00  0.00    -0.303 OA
ATOM     21  H   UNL     1      34.754 -24.739 -19.595  0.00  0.00    +0.222 HD
ENDBRANCH  16  20
ENDBRANCH  15  16
ENDBRANCH  14  15
ENDBRANCH  11  14
ENDBRANCH   2  10
BRANCH   5  23
ATOM     22  N   UNL     1      32.152 -11.967 -21.889  0.00  0.00    -0.234 NA
ATOM     23  C   UNL     1      33.724 -13.742 -22.343  0.00  0.00    +0.021 C 
ATOM     24  C   UNL     1      34.302 -12.987 -23.355  0.00  0.00    +0.004 C 
ATOM     25  C   UNL     1      32.662 -13.194 -21.646  0.00  0.00    +0.100 C 
ATOM     26  C   UNL     1      33.806 -11.719 -23.635  0.00  0.00    +0.029 C 
ATOM     27  C   UNL     1      32.739 -11.258 -22.879  0.00  0.00    +0.146 C 
BRANCH  27  32
ATOM     28  N   UNL     1      32.703  -9.093 -24.001  0.00  0.00    -0.105 NA
ATOM     29  N   UNL     1      31.837  -8.082 -23.841  0.00  0.00    -0.113 N 
ATOM     30  N   UNL     1      31.078  -9.501 -22.478  0.00  0.00    -0.085 NA
ATOM     31  N   UNL     1      30.857  -8.280 -22.948  0.00  0.00    -0.018 NA
ATOM     32  C   UNL     1      32.186  -9.958 -23.126  0.00  0.00    +0.092 C 
ATOM     33  C   UNL     1      31.952  -6.855 -24.585  0.00  0.00    +0.163 C 
ENDBRANCH  27  32
ENDBRANCH   5  23
TORSDOF 8
ENDMDL
MODEL 6
REMARK VINA RESULT:     -10.0      2.597      3.818
REMARK  Name = 11476460
REMARK  8 active torsions:
REMARK  status: ('A' for Active; 'I' for Inactive)
REMARK    1  A    between atoms: C_2  and  N_10
REMARK    2  A    between atoms: C_5  and  C_23
REMARK    3  A    between atoms: C_11  and  C_14
REMARK    4  A    between atoms: C_14  and  O_15
REMARK    5  A    between atoms: O_15  and  P_16
REMARK    6  A    between atoms: P_16  and  O_18
REMARK    7  A    between atoms: P_16  and  O_20
REMARK    8  A    between atoms: C_27  and  C_32
REMARK                            x       y       z     vdW  Elec       q    Type
REMARK                         _______ _______ _______ _____ _____    ______ ____
ROOT
ATOM      1  F   UNL     1      33.153 -22.467 -18.586  0.00  0.00    -0.204 F 
ATOM      2  C   UNL     1      35.722 -23.228 -16.124  0.00  0.00    +0.059 C 
ATOM      3  C   UNL     1      34.499 -23.226 -16.802  0.00  0.00    +0.045 C 
ATOM      4  C   UNL     1      36.780 -22.451 -16.609  0.00  0.00    +0.015 C 
ATOM      5  C   UNL     1      35.392 -21.682 -18.431  0.00  0.00    +0.029 C 
ATOM      6  C   UNL     1      34.334 -22.455 -17.952  0.00  0.00    +0.141 C 
ATOM      7  C   UNL     1      36.615 -21.680 -17.759  0.00  0.00    +0.004 C 
ENDROOT
BRANCH   2  10
ATOM      8  O   UNL     1      36.647 -24.800 -12.973  0.00  0.00    -0.434 OA
ATOM      9  O   UNL     1      37.664 -22.948 -13.800  0.00  0.00    -0.226 OA
ATOM     10  N   UNL     1      35.891 -24.014 -14.950  0.00  0.00    -0.221 N 
ATOM     11  C   UNL     1      35.453 -25.539 -13.264  0.00  0.00    +0.221 C 
ATOM     12  C   UNL     1      35.172 -25.238 -14.721  0.00  0.00    +0.148 C 
ATOM     13  C   UNL     1      36.806 -23.812 -13.919  0.00  0.00    +0.409 C 
BRANCH  11  14
ATOM     14  C   UNL     1      34.345 -25.069 -12.331  0.00  0.00    +0.199 C 
BRANCH  14  15
ATOM     15  O   UNL     1      33.097 -25.463 -12.875  0.00  0.00    -0.269 OA
BRANCH  15  16
ATOM     16  P   UNL     1      31.980 -24.323 -13.150  0.00  0.00    +0.473 P 
ATOM     17  O   UNL     1      31.797 -23.950 -14.593  0.00  0.00    -0.227 OA
BRANCH  16  18
ATOM     18  O   UNL     1      32.419 -23.112 -12.173  0.00  0.00    -0.303 OA
ATOM     19  H   UNL     1      33.287 -23.307 -11.786  0.00  0.00    +0.222 HD
ENDBRANCH  16  18
BRANCH  16  20
ATOM     20  O   UNL     1      30.664 -24.925 -12.428  0.00  0.00    -0.303 OA
ATOM     21  H   UNL     1      30.834 -25.842 -12.159  0.00  0.00    +0.222 HD
ENDBRANCH  16  20
ENDBRANCH  15  16
ENDBRANCH  14  15
ENDBRANCH  11  14
ENDBRANCH   2  10
BRANCH   5  23
ATOM     22  N   UNL     1      33.763 -20.019 -21.342  0.00  0.00    -0.234 NA
ATOM     23  C   UNL     1      35.226 -20.879 -19.624  0.00  0.00    +0.021 C 
ATOM     24  C   UNL     1      36.305 -20.219 -20.197  0.00  0.00    +0.004 C 
ATOM     25  C   UNL     1      33.988 -20.750 -20.228  0.00  0.00    +0.100 C 
ATOM     26  C   UNL     1      36.114 -19.457 -21.344  0.00  0.00    +0.029 C 
ATOM     27  C   UNL     1      34.835 -19.390 -21.873  0.00  0.00    +0.146 C 
BRANCH  27  32
ATOM     28  N   UNL     1      34.772 -17.300 -23.129  0.00  0.00    -0.105 NA
ATOM     29  N   UNL     1      34.397 -17.099 -24.400  0.00  0.00    -0.113 N 
ATOM     30  N   UNL     1      34.119 -19.181 -24.208  0.00  0.00    -0.085 NA
ATOM     31  N   UNL     1      34.002 -18.185 -25.078  0.00  0.00    -0.018 NA
ATOM     32  C   UNL     1      34.581 -18.619 -23.056  0.00  0.00    +0.092 C 
ATOM     33  C   UNL     1      34.415 -15.791 -25.003  0.00  0.00    +0.163 C 
ENDBRANCH  27  32
ENDBRANCH   5  23
TORSDOF 8
ENDMDL
MODEL 7
REMARK VINA RESULT:      -9.9     11.998     15.454
REMARK  Name = 11476460
REMARK  8 active torsions:
REMARK  status: ('A' for Active; 'I' for Inactive)
REMARK    1  A    between atoms: C_2  and  N_10
REMARK    2  A    between atoms: C_5  and  C_23
REMARK    3  A    between atoms: C_11  and  C_14
REMARK    4  A    between atoms: C_14  and  O_15
REMARK    5  A    between atoms: O_15  and  P_16
REMARK    6  A    between atoms: P_16  and  O_18
REMARK    7  A    between atoms: P_16  and  O_20
REMARK    8  A    between atoms: C_27  and  C_32
REMARK                            x       y       z     vdW  Elec       q    Type
REMARK                         _______ _______ _______ _____ _____    ______ ____
ROOT
ATOM      1  F   UNL     1      31.818 -13.719 -20.633  0.00  0.00    -0.204 F 
ATOM      2  C   UNL     1      32.526 -10.909 -22.834  0.00  0.00    +0.059 C 
ATOM      3  C   UNL     1      31.908 -11.710 -21.869  0.00  0.00    +0.045 C 
ATOM      4  C   UNL     1      33.670 -11.377 -23.488  0.00  0.00    +0.015 C 
ATOM      5  C   UNL     1      33.569 -13.429 -22.216  0.00  0.00    +0.029 C 
ATOM      6  C   UNL     1      32.427 -12.967 -21.561  0.00  0.00    +0.141 C 
ATOM      7  C   UNL     1      34.190 -12.634 -23.179  0.00  0.00    +0.004 C 
ENDROOT
BRANCH   2  10
ATOM      8  O   UNL     1      31.121  -7.552 -22.968  0.00  0.00    -0.434 OA
ATOM      9  O   UNL     1      31.543  -8.662 -21.035  0.00  0.00    -0.226 OA
ATOM     10  N   UNL     1      31.995  -9.626 -23.149  0.00  0.00    -0.221 N 
ATOM     11  C   UNL     1      31.462  -7.721 -24.351  0.00  0.00    +0.221 C 
ATOM     12  C   UNL     1      31.716  -9.207 -24.496  0.00  0.00    +0.148 C 
ATOM     13  C   UNL     1      31.573  -8.642 -22.258  0.00  0.00    +0.409 C 
BRANCH  11  14
ATOM     14  C   UNL     1      32.686  -6.871 -24.663  0.00  0.00    +0.199 C 
BRANCH  14  15
ATOM     15  O   UNL     1      32.254  -5.643 -25.223  0.00  0.00    -0.269 OA
BRANCH  15  16
ATOM     16  P   UNL     1      31.908  -4.418 -24.222  0.00  0.00    +0.473 P 
ATOM     17  O   UNL     1      30.449  -4.080 -24.113  0.00  0.00    -0.227 OA
BRANCH  16  18
ATOM     18  O   UNL     1      32.858  -3.217 -24.742  0.00  0.00    -0.303 OA
ATOM     19  H   UNL     1      33.733  -3.572 -24.968  0.00  0.00    +0.222 HD
ENDBRANCH  16  18
BRANCH  16  20
ATOM     20  O   UNL     1      32.609  -4.873 -22.837  0.00  0.00    -0.303 OA
ATOM     21  H   UNL     1      31.979  -5.389 -22.311  0.00  0.00    +0.222 HD
ENDBRANCH  16  20
ENDBRANCH  15  16
ENDBRANCH  14  15
ENDBRANCH  11  14
ENDBRANCH   2  10
BRANCH   5  23
ATOM     22  N   UNL     1      34.808 -16.325 -20.223  0.00  0.00    -0.234 NA
ATOM     23  C   UNL     1      34.112 -14.733 -21.900  0.00  0.00    +0.021 C 
ATOM     24  C   UNL     1      34.457 -15.625 -22.907  0.00  0.00    +0.004 C 
ATOM     25  C   UNL     1      34.305 -15.125 -20.587  0.00  0.00    +0.100 C 
ATOM     26  C   UNL     1      34.978 -16.870 -22.573  0.00  0.00    +0.029 C 
ATOM     27  C   UNL     1      35.132 -17.169 -21.228  0.00  0.00    +0.146 C 
BRANCH  27  32
ATOM     28  N   UNL     1      34.913 -19.520 -20.617  0.00  0.00    -0.105 NA
ATOM     29  N   UNL     1      35.874 -20.389 -20.275  0.00  0.00    -0.113 N 
ATOM     30  N   UNL     1      36.998 -18.639 -20.624  0.00  0.00    -0.085 NA
ATOM     31  N   UNL     1      37.126 -19.911 -20.266  0.00  0.00    -0.018 NA
ATOM     32  C   UNL     1      35.667 -18.439 -20.826  0.00  0.00    +0.092 C 
ATOM     33  C   UNL     1      35.581 -21.757 -19.936  0.00  0.00    +0.163 C 
ENDBRANCH  27  32
ENDBRANCH   5  23
TORSDOF 8
ENDMDL
MODEL 8
REMARK VINA RESULT:      -9.9     10.594     14.273
REMARK  Name = 11476460
REMARK  8 active torsions:
REMARK  status: ('A' for Active; 'I' for Inactive)
REMARK    1  A    between atoms: C_2  and  N_10
REMARK    2  A    between atoms: C_5  and  C_23
REMARK    3  A    between atoms: C_11  and  C_14
REMARK    4  A    between atoms: C_14  and  O_15
REMARK    5  A    between atoms: O_15  and  P_16
REMARK    6  A    between atoms: P_16  and  O_18
REMARK    7  A    between atoms: P_16  and  O_20
REMARK    8  A    between atoms: C_27  and  C_32
REMARK                            x       y       z     vdW  Elec       q    Type
REMARK                         _______ _______ _______ _____ _____    ______ ____
ROOT
ATOM      1  F   UNL     1      32.085 -13.695 -20.630  0.00  0.00    -0.204 F 
ATOM      2  C   UNL     1      32.901 -10.998 -22.934  0.00  0.00    +0.059 C 
ATOM      3  C   UNL     1      32.262 -11.731 -21.928  0.00  0.00    +0.045 C 
ATOM      4  C   UNL     1      33.995 -11.555 -23.603  0.00  0.00    +0.015 C 
ATOM      5  C   UNL     1      33.805 -13.559 -22.267  0.00  0.00    +0.029 C 
ATOM      6  C   UNL     1      32.713 -13.008 -21.596  0.00  0.00    +0.141 C 
ATOM      7  C   UNL     1      34.446 -12.832 -23.270  0.00  0.00    +0.004 C 
ENDROOT
BRANCH   2  10
ATOM      8  O   UNL     1      31.123  -7.888 -23.584  0.00  0.00    -0.434 OA
ATOM      9  O   UNL     1      30.140  -9.739 -22.716  0.00  0.00    -0.226 OA
ATOM     10  N   UNL     1      32.440  -9.694 -23.273  0.00  0.00    -0.221 N 
ATOM     11  C   UNL     1      32.467  -7.444 -23.815  0.00  0.00    +0.221 C 
ATOM     12  C   UNL     1      33.268  -8.723 -23.935  0.00  0.00    +0.148 C 
ATOM     13  C   UNL     1      31.150  -9.188 -23.133  0.00  0.00    +0.409 C 
BRANCH  11  14
ATOM     14  C   UNL     1      32.904  -6.571 -22.646  0.00  0.00    +0.199 C 
BRANCH  14  15
ATOM     15  O   UNL     1      33.503  -7.397 -21.663  0.00  0.00    -0.269 OA
BRANCH  15  16
ATOM     16  P   UNL     1      32.709  -7.645 -20.274  0.00  0.00    +0.473 P 
ATOM     17  O   UNL     1      32.526  -9.086 -19.896  0.00  0.00    -0.227 OA
BRANCH  16  18
ATOM     18  O   UNL     1      31.343  -6.798 -20.455  0.00  0.00    -0.303 OA
ATOM     19  H   UNL     1      31.121  -6.741 -21.399  0.00  0.00    +0.222 HD
ENDBRANCH  16  18
BRANCH  16  20
ATOM     20  O   UNL     1      33.554  -6.763 -19.213  0.00  0.00    -0.303 OA
ATOM     21  H   UNL     1      32.951  -6.391 -18.550  0.00  0.00    +0.222 HD
ENDBRANCH  16  20
ENDBRANCH  15  16
ENDBRANCH  14  15
ENDBRANCH  11  14
ENDBRANCH   2  10
BRANCH   5  23
ATOM     22  N   UNL     1      34.890 -16.479 -20.220  0.00  0.00    -0.234 NA
ATOM     23  C   UNL     1      34.276 -14.884 -21.926  0.00  0.00    +0.021 C 
ATOM     24  C   UNL     1      34.567 -15.815 -22.915  0.00  0.00    +0.004 C 
ATOM     25  C   UNL     1      34.452 -15.260 -20.607  0.00  0.00    +0.100 C 
ATOM     26  C   UNL     1      35.019 -17.080 -22.558  0.00  0.00    +0.029 C 
ATOM     27  C   UNL     1      35.162 -17.360 -21.208  0.00  0.00    +0.146 C 
BRANCH  27  32
ATOM     28  N   UNL     1      34.825 -19.704 -20.629  0.00  0.00    -0.105 NA
ATOM     29  N   UNL     1      35.734 -20.607 -20.232  0.00  0.00    -0.113 N 
ATOM     30  N   UNL     1      36.936 -18.895 -20.496  0.00  0.00    -0.085 NA
ATOM     31  N   UNL     1      36.998 -20.172 -20.140  0.00  0.00    -0.018 NA
ATOM     32  C   UNL     1      35.627 -18.649 -20.782  0.00  0.00    +0.092 C 
ATOM     33  C   UNL     1      35.373 -21.967 -19.923  0.00  0.00    +0.163 C 
ENDBRANCH  27  32
ENDBRANCH   5  23
TORSDOF 8
ENDMDL
MODEL 9
REMARK VINA RESULT:      -9.6     12.161     15.862
REMARK  Name = 11476460
REMARK  8 active torsions:
REMARK  status: ('A' for Active; 'I' for Inactive)
REMARK    1  A    between atoms: C_2  and  N_10
REMARK    2  A    between atoms: C_5  and  C_23
REMARK    3  A    between atoms: C_11  and  C_14
REMARK    4  A    between atoms: C_14  and  O_15
REMARK    5  A    between atoms: O_15  and  P_16
REMARK    6  A    between atoms: P_16  and  O_18
REMARK    7  A    between atoms: P_16  and  O_20
REMARK    8  A    between atoms: C_27  and  C_32
REMARK                            x       y       z     vdW  Elec       q    Type
REMARK                         _______ _______ _______ _____ _____    ______ ____
ROOT
ATOM      1  F   UNL     1      31.170 -12.465 -21.598  0.00  0.00    -0.204 F 
ATOM      2  C   UNL     1      32.227  -9.258 -22.955  0.00  0.00    +0.059 C 
ATOM      3  C   UNL     1      31.456 -10.235 -22.317  0.00  0.00    +0.045 C 
ATOM      4  C   UNL     1      33.475  -9.603 -23.485  0.00  0.00    +0.015 C 
ATOM      5  C   UNL     1      33.171 -11.882 -22.742  0.00  0.00    +0.029 C 
ATOM      6  C   UNL     1      31.926 -11.544 -22.212  0.00  0.00    +0.141 C 
ATOM      7  C   UNL     1      33.945 -10.912 -23.379  0.00  0.00    +0.004 C 
ENDROOT
BRANCH   2  10
ATOM      8  O   UNL     1      31.029  -5.843 -22.555  0.00  0.00    -0.434 OA
ATOM      9  O   UNL     1      31.585  -7.191 -20.817  0.00  0.00    -0.226 OA
ATOM     10  N   UNL     1      31.747  -7.922 -23.063  0.00  0.00    -0.221 N 
ATOM     11  C   UNL     1      31.209  -5.865 -23.977  0.00  0.00    +0.221 C 
ATOM     12  C   UNL     1      31.353  -7.334 -24.314  0.00  0.00    +0.148 C 
ATOM     13  C   UNL     1      31.485  -7.030 -22.026  0.00  0.00    +0.409 C 
BRANCH  11  14
ATOM     14  C   UNL     1      32.443  -5.046 -24.330  0.00  0.00    +0.199 C 
BRANCH  14  15
ATOM     15  O   UNL     1      33.028  -5.588 -25.500  0.00  0.00    -0.269 OA
BRANCH  15  16
ATOM     16  P   UNL     1      34.641  -5.714 -25.571  0.00  0.00    +0.473 P 
ATOM     17  O   UNL     1      35.347  -4.512 -26.126  0.00  0.00    -0.227 OA
BRANCH  16  18
ATOM     18  O   UNL     1      34.883  -7.093 -26.380  0.00  0.00    -0.303 OA
ATOM     19  H   UNL     1      34.882  -7.838 -25.757  0.00  0.00    +0.222 HD
ENDBRANCH  16  18
BRANCH  16  20
ATOM     20  O   UNL     1      35.040  -6.100 -24.051  0.00  0.00    -0.303 OA
ATOM     21  H   UNL     1      34.513  -6.862 -23.763  0.00  0.00    +0.222 HD
ENDBRANCH  16  20
ENDBRANCH  15  16
ENDBRANCH  14  15
ENDBRANCH  11  14
ENDBRANCH   2  10
BRANCH   5  23
ATOM     22  N   UNL     1      34.534 -15.013 -21.249  0.00  0.00    -0.234 NA
ATOM     23  C   UNL     1      33.663 -13.239 -22.636  0.00  0.00    +0.021 C 
ATOM     24  C   UNL     1      33.750 -14.057 -23.755  0.00  0.00    +0.004 C 
ATOM     25  C   UNL     1      34.064 -13.758 -21.418  0.00  0.00    +0.100 C 
ATOM     26  C   UNL     1      34.228 -15.355 -23.622  0.00  0.00    +0.029 C 
ATOM     27  C   UNL     1      34.604 -15.782 -22.358  0.00  0.00    +0.146 C 
BRANCH  27  32
ATOM     28  N   UNL     1      35.472 -17.591 -20.973  0.00  0.00    -0.105 NA
ATOM     29  N   UNL     1      35.847 -18.823 -21.344  0.00  0.00    -0.113 N 
ATOM     30  N   UNL     1      35.250 -17.996 -23.189  0.00  0.00    -0.085 NA
ATOM     31  N   UNL     1      35.733 -19.108 -22.649  0.00  0.00    -0.018 NA
ATOM     32  C   UNL     1      35.106 -17.112 -22.163  0.00  0.00    +0.092 C 
ATOM     33  C   UNL     1      36.345 -19.787 -20.397  0.00  0.00    +0.163 C 
ENDBRANCH  27  32
ENDBRANCH   5  23
TORSDOF 8
ENDMDL
