MODEL 1
REMARK VINA RESULT:     -12.0      0.000      0.000
REMARK  Name = 447656
REMARK  5 active torsions:
REMARK  status: ('A' for Active; 'I' for Inactive)
REMARK    1  A    between atoms: N_5  and  C_14
REMARK    2  A    between atoms: C_6  and  O_25
REMARK    3  A    between atoms: C_17  and  C_22
REMARK    4  A    between atoms: O_25  and  C_26
REMARK    5  A    between atoms: C_26  and  C_27
REMARK                            x       y       z     vdW  Elec       q    Type
REMARK                         _______ _______ _______ _____ _____    ______ ____
ROOT
ATOM      1  N   UNL     1      33.837 -23.819 -15.353  0.00  0.00    -0.293 NA
ATOM      2  N   UNL     1      37.491 -24.124 -15.070  0.00  0.00    -0.266 NA
ATOM      3  N   UNL     1      34.591 -24.932 -13.316  0.00  0.00    -0.316 NA
ATOM      4  N   UNL     1      37.007 -25.128 -13.140  0.00  0.00    -0.296 N 
ATOM      5  N   UNL     1      32.316 -24.604 -13.754  0.00  0.00    -0.238 N 
ATOM      6  C   UNL     1      35.106 -23.646 -15.779  0.00  0.00    +0.288 C 
ATOM      7  C   UNL     1      36.128 -24.114 -14.979  0.00  0.00    +0.215 C 
ATOM      8  C   UNL     1      35.853 -24.743 -13.772  0.00  0.00    +0.196 C 
ATOM      9  C   UNL     1      33.659 -24.443 -14.164  0.00  0.00    +0.207 C 
ATOM     10  C   UNL     1      37.973 -24.741 -13.947  0.00  0.00    +0.164 C 
ATOM     11  H   UNL     1      38.028 -23.755 -15.809  0.00  0.00    +0.126 HD
ATOM     12  H   UNL     1      37.095 -25.591 -12.275  0.00  0.00    +0.150 HD
ATOM     13  H   UNL     1      32.217 -25.059 -12.887  0.00  0.00    +0.166 HD
ENDROOT
BRANCH   5  14
ATOM     14  C   UNL     1      31.092 -24.240 -14.343  0.00  0.00    +0.058 C 
ATOM     15  C   UNL     1      30.692 -22.901 -14.360  0.00  0.00    +0.015 C 
ATOM     16  C   UNL     1      30.271 -25.215 -14.915  0.00  0.00    +0.015 C 
ATOM     17  C   UNL     1      28.661 -23.516 -15.515  0.00  0.00    +0.053 C 
ATOM     18  C   UNL     1      29.479 -22.539 -14.945  0.00  0.00    +0.006 C 
ATOM     19  C   UNL     1      29.057 -24.853 -15.500  0.00  0.00    +0.006 C 
BRANCH  17  22
ATOM     20  O   UNL     1      27.120 -23.460 -17.295  0.00  0.00    -0.270 OA
ATOM     21  N   UNL     1      26.491 -22.420 -15.349  0.00  0.00    -0.325 N 
ATOM     22  C   UNL     1      27.397 -23.139 -16.125  0.00  0.00    +0.243 C 
ATOM     23  H   UNL     1      25.625 -22.147 -15.730  0.00  0.00    +0.145 HD
ATOM     24  H   UNL     1      26.718 -22.183 -14.421  0.00  0.00    +0.145 HD
ENDBRANCH  17  22
ENDBRANCH   5  14
BRANCH   6  25
ATOM     25  O   UNL     1      35.322 -23.018 -16.981  0.00  0.00    -0.453 OA
BRANCH  25  26
ATOM     26  C   UNL     1      34.202 -22.854 -17.831  0.00  0.00    +0.208 C 
BRANCH  26  27
ATOM     27  C   UNL     1      34.664 -22.166 -19.114  0.00  0.00    +0.044 C 
ATOM     28  C   UNL     1      33.626 -21.135 -19.580  0.00  0.00    +0.004 C 
ATOM     29  C   UNL     1      36.035 -21.508 -18.913  0.00  0.00    +0.004 C 
ATOM     30  C   UNL     1      34.090 -20.395 -20.833  0.00  0.00    +0.000 C 
ATOM     31  C   UNL     1      36.494 -20.766 -20.166  0.00  0.00    +0.000 C 
ATOM     32  C   UNL     1      35.457 -19.750 -20.631  0.00  0.00    +0.000 C 
ENDBRANCH  26  27
ENDBRANCH  25  26
ENDBRANCH   6  25
TORSDOF 5
ENDMDL
MODEL 2
REMARK VINA RESULT:     -11.5      1.216      2.034
REMARK  Name = 447656
REMARK  5 active torsions:
REMARK  status: ('A' for Active; 'I' for Inactive)
REMARK    1  A    between atoms: N_5  and  C_14
REMARK    2  A    between atoms: C_6  and  O_25
REMARK    3  A    between atoms: C_17  and  C_22
REMARK    4  A    between atoms: O_25  and  C_26
REMARK    5  A    between atoms: C_26  and  C_27
REMARK                            x       y       z     vdW  Elec       q    Type
REMARK                         _______ _______ _______ _____ _____    ______ ____
ROOT
ATOM      1  N   UNL     1      34.274 -24.232 -14.327  0.00  0.00    -0.293 NA
ATOM      2  N   UNL     1      37.800 -24.387 -13.296  0.00  0.00    -0.266 NA
ATOM      3  N   UNL     1      34.599 -24.618 -11.940  0.00  0.00    -0.316 NA
ATOM      4  N   UNL     1      36.933 -24.720 -11.270  0.00  0.00    -0.296 N 
ATOM      5  N   UNL     1      32.456 -24.474 -12.870  0.00  0.00    -0.238 N 
ATOM      6  C   UNL     1      35.605 -24.191 -14.546  0.00  0.00    +0.288 C 
ATOM      7  C   UNL     1      36.445 -24.364 -13.465  0.00  0.00    +0.215 C 
ATOM      8  C   UNL     1      35.930 -24.573 -12.193  0.00  0.00    +0.196 C 
ATOM      9  C   UNL     1      33.858 -24.439 -13.056  0.00  0.00    +0.207 C 
ATOM     10  C   UNL     1      38.044 -24.603 -11.966  0.00  0.00    +0.164 C 
ATOM     11  H   UNL     1      38.477 -24.271 -14.002  0.00  0.00    +0.126 HD
ATOM     12  H   UNL     1      36.843 -24.877 -10.302  0.00  0.00    +0.150 HD
ATOM     13  H   UNL     1      32.183 -24.626 -11.937  0.00  0.00    +0.166 HD
ENDROOT
BRANCH   5  14
ATOM     14  C   UNL     1      31.376 -24.334 -13.759  0.00  0.00    +0.058 C 
ATOM     15  C   UNL     1      30.549 -25.425 -14.037  0.00  0.00    +0.015 C 
ATOM     16  C   UNL     1      31.125 -23.103 -14.370  0.00  0.00    +0.015 C 
ATOM     17  C   UNL     1      29.229 -24.056 -15.526  0.00  0.00    +0.053 C 
ATOM     18  C   UNL     1      29.477 -25.287 -14.918  0.00  0.00    +0.006 C 
ATOM     19  C   UNL     1      30.053 -22.964 -15.252  0.00  0.00    +0.006 C 
BRANCH  17  22
ATOM     20  O   UNL     1      27.706 -24.867 -17.129  0.00  0.00    -0.270 OA
ATOM     21  N   UNL     1      27.493 -22.666 -16.520  0.00  0.00    -0.325 N 
ATOM     22  C   UNL     1      28.112 -23.911 -16.444  0.00  0.00    +0.243 C 
ATOM     23  H   UNL     1      26.733 -22.530 -17.132  0.00  0.00    +0.145 HD
ATOM     24  H   UNL     1      27.816 -21.921 -15.964  0.00  0.00    +0.145 HD
ENDBRANCH  17  22
ENDBRANCH   5  14
BRANCH   6  25
ATOM     25  O   UNL     1      36.062 -23.983 -15.825  0.00  0.00    -0.453 OA
BRANCH  25  26
ATOM     26  C   UNL     1      36.612 -22.710 -16.111  0.00  0.00    +0.208 C 
BRANCH  26  27
ATOM     27  C   UNL     1      35.754 -22.043 -17.186  0.00  0.00    +0.044 C 
ATOM     28  C   UNL     1      36.587 -21.758 -18.443  0.00  0.00    +0.004 C 
ATOM     29  C   UNL     1      34.536 -22.912 -17.524  0.00  0.00    +0.004 C 
ATOM     30  C   UNL     1      35.739 -21.139 -19.552  0.00  0.00    +0.000 C 
ATOM     31  C   UNL     1      33.692 -22.292 -18.634  0.00  0.00    +0.000 C 
ATOM     32  C   UNL     1      34.524 -22.001 -19.879  0.00  0.00    +0.000 C 
ENDBRANCH  26  27
ENDBRANCH  25  26
ENDBRANCH   6  25
TORSDOF 5
ENDMDL
MODEL 3
REMARK VINA RESULT:     -11.4      2.015      6.770
REMARK  Name = 447656
REMARK  5 active torsions:
REMARK  status: ('A' for Active; 'I' for Inactive)
REMARK    1  A    between atoms: N_5  and  C_14
REMARK    2  A    between atoms: C_6  and  O_25
REMARK    3  A    between atoms: C_17  and  C_22
REMARK    4  A    between atoms: O_25  and  C_26
REMARK    5  A    between atoms: C_26  and  C_27
REMARK                            x       y       z     vdW  Elec       q    Type
REMARK                         _______ _______ _______ _____ _____    ______ ____
ROOT
ATOM      1  N   UNL     1      33.970 -24.016 -15.547  0.00  0.00    -0.293 NA
ATOM      2  N   UNL     1      30.533 -23.087 -16.467  0.00  0.00    -0.266 NA
ATOM      3  N   UNL     1      32.425 -23.913 -13.661  0.00  0.00    -0.316 NA
ATOM      4  N   UNL     1      30.157 -23.297 -14.281  0.00  0.00    -0.296 N 
ATOM      5  N   UNL     1      34.676 -24.479 -13.362  0.00  0.00    -0.238 N 
ATOM      6  C   UNL     1      32.997 -23.670 -16.417  0.00  0.00    +0.288 C 
ATOM      7  C   UNL     1      31.732 -23.442 -15.918  0.00  0.00    +0.215 C 
ATOM      8  C   UNL     1      31.472 -23.567 -14.560  0.00  0.00    +0.196 C 
ATOM      9  C   UNL     1      33.629 -24.115 -14.240  0.00  0.00    +0.207 C 
ATOM     10  C   UNL     1      29.621 -23.012 -15.448  0.00  0.00    +0.164 C 
ATOM     11  H   UNL     1      30.357 -22.915 -17.421  0.00  0.00    +0.126 HD
ATOM     12  H   UNL     1      29.712 -23.313 -13.402  0.00  0.00    +0.150 HD
ATOM     13  H   UNL     1      34.399 -24.544 -12.420  0.00  0.00    +0.166 HD
ENDROOT
BRANCH   5  14
ATOM     14  C   UNL     1      36.036 -24.768 -13.573  0.00  0.00    +0.058 C 
ATOM     15  C   UNL     1      36.577 -25.972 -13.115  0.00  0.00    +0.015 C 
ATOM     16  C   UNL     1      36.852 -23.852 -14.241  0.00  0.00    +0.015 C 
ATOM     17  C   UNL     1      38.738 -25.343 -13.991  0.00  0.00    +0.053 C 
ATOM     18  C   UNL     1      37.925 -26.260 -13.324  0.00  0.00    +0.006 C 
ATOM     19  C   UNL     1      38.201 -24.139 -14.450  0.00  0.00    +0.006 C 
BRANCH  17  22
ATOM     20  O   UNL     1      40.928 -24.783 -14.652  0.00  0.00    -0.270 OA
ATOM     21  N   UNL     1      40.591 -26.920 -13.889  0.00  0.00    -0.325 N 
ATOM     22  C   UNL     1      40.143 -25.642 -14.210  0.00  0.00    +0.243 C 
ATOM     23  H   UNL     1      41.537 -27.159 -14.025  0.00  0.00    +0.145 HD
ATOM     24  H   UNL     1      39.962 -27.587 -13.529  0.00  0.00    +0.145 HD
ENDBRANCH  17  22
ENDBRANCH   5  14
BRANCH   6  25
ATOM     25  O   UNL     1      33.309 -23.560 -17.750  0.00  0.00    -0.453 OA
BRANCH  25  26
ATOM     26  C   UNL     1      32.958 -22.350 -18.395  0.00  0.00    +0.208 C 
BRANCH  26  27
ATOM     27  C   UNL     1      34.081 -21.971 -19.359  0.00  0.00    +0.044 C 
ATOM     28  C   UNL     1      33.759 -20.652 -20.074  0.00  0.00    +0.004 C 
ATOM     29  C   UNL     1      35.422 -21.879 -18.620  0.00  0.00    +0.004 C 
ATOM     30  C   UNL     1      34.891 -20.224 -21.006  0.00  0.00    +0.000 C 
ATOM     31  C   UNL     1      36.551 -21.449 -19.554  0.00  0.00    +0.000 C 
ATOM     32  C   UNL     1      36.224 -20.142 -20.269  0.00  0.00    +0.000 C 
ENDBRANCH  26  27
ENDBRANCH  25  26
ENDBRANCH   6  25
TORSDOF 5
ENDMDL
MODEL 4
REMARK VINA RESULT:     -11.2      2.833      7.061
REMARK  Name = 447656
REMARK  5 active torsions:
REMARK  status: ('A' for Active; 'I' for Inactive)
REMARK    1  A    between atoms: N_5  and  C_14
REMARK    2  A    between atoms: C_6  and  O_25
REMARK    3  A    between atoms: C_17  and  C_22
REMARK    4  A    between atoms: O_25  and  C_26
REMARK    5  A    between atoms: C_26  and  C_27
REMARK                            x       y       z     vdW  Elec       q    Type
REMARK                         _______ _______ _______ _____ _____    ______ ____
ROOT
ATOM      1  N   UNL     1      33.677 -22.974 -16.097  0.00  0.00    -0.293 NA
ATOM      2  N   UNL     1      32.629 -24.825 -13.097  0.00  0.00    -0.266 NA
ATOM      3  N   UNL     1      31.457 -23.972 -16.266  0.00  0.00    -0.316 NA
ATOM      4  N   UNL     1      30.775 -25.194 -14.278  0.00  0.00    -0.296 N 
ATOM      5  N   UNL     1      32.375 -22.739 -18.030  0.00  0.00    -0.238 N 
ATOM      6  C   UNL     1      33.844 -23.453 -14.846  0.00  0.00    +0.288 C 
ATOM      7  C   UNL     1      32.821 -24.196 -14.294  0.00  0.00    +0.215 C 
ATOM      8  C   UNL     1      31.656 -24.439 -15.009  0.00  0.00    +0.196 C 
ATOM      9  C   UNL     1      32.510 -23.259 -16.722  0.00  0.00    +0.207 C 
ATOM     10  C   UNL     1      31.390 -25.408 -13.135  0.00  0.00    +0.164 C 
ATOM     11  H   UNL     1      33.265 -24.855 -12.346  0.00  0.00    +0.126 HD
ATOM     12  H   UNL     1      29.880 -25.505 -14.548  0.00  0.00    +0.150 HD
ATOM     13  H   UNL     1      31.517 -22.961 -18.458  0.00  0.00    +0.166 HD
ENDROOT
BRANCH   5  14
ATOM     14  C   UNL     1      33.227 -21.965 -18.837  0.00  0.00    +0.058 C 
ATOM     15  C   UNL     1      34.607 -22.188 -18.817  0.00  0.00    +0.015 C 
ATOM     16  C   UNL     1      32.699 -20.970 -19.664  0.00  0.00    +0.015 C 
ATOM     17  C   UNL     1      34.922 -20.429 -20.442  0.00  0.00    +0.053 C 
ATOM     18  C   UNL     1      35.453 -21.421 -19.618  0.00  0.00    +0.006 C 
ATOM     19  C   UNL     1      33.545 -20.203 -20.466  0.00  0.00    +0.006 C 
BRANCH  17  22
ATOM     20  O   UNL     1      35.554 -19.433 -22.481  0.00  0.00    -0.270 OA
ATOM     21  N   UNL     1      36.930 -19.071 -20.682  0.00  0.00    -0.325 N 
ATOM     22  C   UNL     1      35.803 -19.630 -21.278  0.00  0.00    +0.243 C 
ATOM     23  H   UNL     1      37.550 -18.525 -21.218  0.00  0.00    +0.145 HD
ATOM     24  H   UNL     1      37.109 -19.224 -19.726  0.00  0.00    +0.145 HD
ENDBRANCH  17  22
ENDBRANCH   5  14
BRANCH   6  25
ATOM     25  O   UNL     1      35.017 -23.184 -14.184  0.00  0.00    -0.453 OA
BRANCH  25  26
ATOM     26  C   UNL     1      36.210 -23.224 -14.946  0.00  0.00    +0.208 C 
BRANCH  26  27
ATOM     27  C   UNL     1      37.274 -23.967 -14.140  0.00  0.00    +0.044 C 
ATOM     28  C   UNL     1      37.026 -23.805 -12.635  0.00  0.00    +0.004 C 
ATOM     29  C   UNL     1      37.312 -25.450 -14.530  0.00  0.00    +0.004 C 
ATOM     30  C   UNL     1      38.047 -24.583 -11.808  0.00  0.00    +0.000 C 
ATOM     31  C   UNL     1      38.332 -26.226 -13.700  0.00  0.00    +0.000 C 
ATOM     32  C   UNL     1      38.088 -26.054 -12.204  0.00  0.00    +0.000 C 
ENDBRANCH  26  27
ENDBRANCH  25  26
ENDBRANCH   6  25
TORSDOF 5
ENDMDL
MODEL 5
REMARK VINA RESULT:     -11.2      2.620      6.093
REMARK  Name = 447656
REMARK  5 active torsions:
REMARK  status: ('A' for Active; 'I' for Inactive)
REMARK    1  A    between atoms: N_5  and  C_14
REMARK    2  A    between atoms: C_6  and  O_25
REMARK    3  A    between atoms: C_17  and  C_22
REMARK    4  A    between atoms: O_25  and  C_26
REMARK    5  A    between atoms: C_26  and  C_27
REMARK                            x       y       z     vdW  Elec       q    Type
REMARK                         _______ _______ _______ _____ _____    ______ ____
ROOT
ATOM      1  N   UNL     1      35.554 -24.073 -15.279  0.00  0.00    -0.293 NA
ATOM      2  N   UNL     1      36.419 -26.051 -12.301  0.00  0.00    -0.266 NA
ATOM      3  N   UNL     1      37.907 -23.947 -14.647  0.00  0.00    -0.316 NA
ATOM      4  N   UNL     1      38.467 -25.257 -12.677  0.00  0.00    -0.296 N 
ATOM      5  N   UNL     1      37.081 -22.787 -16.503  0.00  0.00    -0.238 N 
ATOM      6  C   UNL     1      35.278 -24.902 -14.249  0.00  0.00    +0.288 C 
ATOM      7  C   UNL     1      36.312 -25.260 -13.410  0.00  0.00    +0.215 C 
ATOM      8  C   UNL     1      37.597 -24.780 -13.623  0.00  0.00    +0.196 C 
ATOM      9  C   UNL     1      36.834 -23.653 -15.413  0.00  0.00    +0.207 C 
ATOM     10  C   UNL     1      37.727 -26.017 -11.899  0.00  0.00    +0.164 C 
ATOM     11  H   UNL     1      35.688 -26.551 -11.870  0.00  0.00    +0.126 HD
ATOM     12  H   UNL     1      39.431 -25.073 -12.598  0.00  0.00    +0.150 HD
ATOM     13  H   UNL     1      38.019 -22.498 -16.576  0.00  0.00    +0.166 HD
ENDROOT
BRANCH   5  14
ATOM     14  C   UNL     1      36.248 -22.258 -17.504  0.00  0.00    +0.058 C 
ATOM     15  C   UNL     1      36.773 -21.400 -18.474  0.00  0.00    +0.015 C 
ATOM     16  C   UNL     1      34.890 -22.588 -17.534  0.00  0.00    +0.015 C 
ATOM     17  C   UNL     1      34.592 -21.207 -19.495  0.00  0.00    +0.053 C 
ATOM     18  C   UNL     1      35.947 -20.875 -19.468  0.00  0.00    +0.006 C 
ATOM     19  C   UNL     1      34.064 -22.063 -18.528  0.00  0.00    +0.006 C 
BRANCH  17  22
ATOM     20  O   UNL     1      34.201 -20.099 -21.536  0.00  0.00    -0.270 OA
ATOM     21  N   UNL     1      32.355 -20.804 -20.372  0.00  0.00    -0.325 N 
ATOM     22  C   UNL     1      33.731 -20.661 -20.530  0.00  0.00    +0.243 C 
ATOM     23  H   UNL     1      31.741 -20.446 -21.053  0.00  0.00    +0.145 HD
ATOM     24  H   UNL     1      31.996 -21.262 -19.577  0.00  0.00    +0.145 HD
ENDBRANCH  17  22
ENDBRANCH   5  14
BRANCH   6  25
ATOM     25  O   UNL     1      33.989 -25.347 -14.084  0.00  0.00    -0.453 OA
BRANCH  25  26
ATOM     26  C   UNL     1      33.034 -24.401 -13.639  0.00  0.00    +0.208 C 
BRANCH  26  27
ATOM     27  C   UNL     1      31.787 -24.523 -14.513  0.00  0.00    +0.044 C 
ATOM     28  C   UNL     1      30.605 -25.067 -13.700  0.00  0.00    +0.004 C 
ATOM     29  C   UNL     1      31.437 -23.171 -15.149  0.00  0.00    +0.004 C 
ATOM     30  C   UNL     1      29.332 -25.148 -14.539  0.00  0.00    +0.000 C 
ATOM     31  C   UNL     1      30.162 -23.255 -15.985  0.00  0.00    +0.000 C 
ATOM     32  C   UNL     1      28.992 -23.805 -15.176  0.00  0.00    +0.000 C 
ENDBRANCH  26  27
ENDBRANCH  25  26
ENDBRANCH   6  25
TORSDOF 5
ENDMDL
MODEL 6
REMARK VINA RESULT:     -10.8      2.729      7.658
REMARK  Name = 447656
REMARK  5 active torsions:
REMARK  status: ('A' for Active; 'I' for Inactive)
REMARK    1  A    between atoms: N_5  and  C_14
REMARK    2  A    between atoms: C_6  and  O_25
REMARK    3  A    between atoms: C_17  and  C_22
REMARK    4  A    between atoms: O_25  and  C_26
REMARK    5  A    between atoms: C_26  and  C_27
REMARK                            x       y       z     vdW  Elec       q    Type
REMARK                         _______ _______ _______ _____ _____    ______ ____
ROOT
ATOM      1  N   UNL     1      34.947 -22.786 -17.263  0.00  0.00    -0.293 NA
ATOM      2  N   UNL     1      33.398 -21.241 -20.220  0.00  0.00    -0.266 NA
ATOM      3  N   UNL     1      36.421 -21.275 -18.486  0.00  0.00    -0.316 NA
ATOM      4  N   UNL     1      35.387 -20.260 -20.439  0.00  0.00    -0.296 N 
ATOM      5  N   UNL     1      37.148 -22.394 -16.565  0.00  0.00    -0.238 N 
ATOM      6  C   UNL     1      33.933 -22.565 -18.127  0.00  0.00    +0.288 C 
ATOM      7  C   UNL     1      34.154 -21.699 -19.178  0.00  0.00    +0.215 C 
ATOM      8  C   UNL     1      35.384 -21.074 -19.336  0.00  0.00    +0.196 C 
ATOM      9  C   UNL     1      36.113 -22.135 -17.492  0.00  0.00    +0.207 C 
ATOM     10  C   UNL     1      34.179 -20.383 -20.946  0.00  0.00    +0.164 C 
ATOM     11  H   UNL     1      32.464 -21.485 -20.413  0.00  0.00    +0.126 HD
ATOM     12  H   UNL     1      36.128 -19.705 -20.776  0.00  0.00    +0.150 HD
ATOM     13  H   UNL     1      37.982 -21.908 -16.756  0.00  0.00    +0.166 HD
ENDROOT
BRANCH   5  14
ATOM     14  C   UNL     1      37.218 -23.210 -15.422  0.00  0.00    +0.058 C 
ATOM     15  C   UNL     1      38.278 -24.106 -15.263  0.00  0.00    +0.015 C 
ATOM     16  C   UNL     1      36.228 -23.128 -14.439  0.00  0.00    +0.015 C 
ATOM     17  C   UNL     1      37.358 -24.831 -13.150  0.00  0.00    +0.053 C 
ATOM     18  C   UNL     1      38.349 -24.915 -14.129  0.00  0.00    +0.006 C 
ATOM     19  C   UNL     1      36.298 -23.937 -13.305  0.00  0.00    +0.006 C 
BRANCH  17  22
ATOM     20  O   UNL     1      37.701 -25.200 -10.849  0.00  0.00    -0.270 OA
ATOM     21  N   UNL     1      37.170 -27.032 -12.123  0.00  0.00    -0.325 N 
ATOM     22  C   UNL     1      37.432 -25.673 -11.968  0.00  0.00    +0.243 C 
ATOM     23  H   UNL     1      37.211 -27.633 -11.345  0.00  0.00    +0.145 HD
ATOM     24  H   UNL     1      36.946 -27.392 -13.012  0.00  0.00    +0.145 HD
ENDBRANCH  17  22
ENDBRANCH   5  14
BRANCH   6  25
ATOM     25  O   UNL     1      32.737 -23.209 -17.924  0.00  0.00    -0.453 OA
BRANCH  25  26
ATOM     26  C   UNL     1      31.939 -22.759 -16.845  0.00  0.00    +0.208 C 
BRANCH  26  27
ATOM     27  C   UNL     1      31.784 -23.904 -15.847  0.00  0.00    +0.044 C 
ATOM     28  C   UNL     1      32.611 -23.637 -14.582  0.00  0.00    +0.004 C 
ATOM     29  C   UNL     1      30.306 -24.121 -15.496  0.00  0.00    +0.004 C 
ATOM     30  C   UNL     1      32.431 -24.744 -13.545  0.00  0.00    +0.000 C 
ATOM     31  C   UNL     1      30.129 -25.226 -14.458  0.00  0.00    +0.000 C 
ATOM     32  C   UNL     1      30.960 -24.962 -13.206  0.00  0.00    +0.000 C 
ENDBRANCH  26  27
ENDBRANCH  25  26
ENDBRANCH   6  25
TORSDOF 5
ENDMDL
MODEL 7
REMARK VINA RESULT:     -10.5      2.946      7.212
REMARK  Name = 447656
REMARK  5 active torsions:
REMARK  status: ('A' for Active; 'I' for Inactive)
REMARK    1  A    between atoms: N_5  and  C_14
REMARK    2  A    between atoms: C_6  and  O_25
REMARK    3  A    between atoms: C_17  and  C_22
REMARK    4  A    between atoms: O_25  and  C_26
REMARK    5  A    between atoms: C_26  and  C_27
REMARK                            x       y       z     vdW  Elec       q    Type
REMARK                         _______ _______ _______ _____ _____    ______ ____
ROOT
ATOM      1  N   UNL     1      34.914 -22.552 -17.602  0.00  0.00    -0.293 NA
ATOM      2  N   UNL     1      34.803 -24.739 -14.647  0.00  0.00    -0.266 NA
ATOM      3  N   UNL     1      36.994 -22.613 -16.327  0.00  0.00    -0.316 NA
ATOM      4  N   UNL     1      36.909 -24.061 -14.376  0.00  0.00    -0.296 N 
ATOM      5  N   UNL     1      36.785 -21.302 -18.254  0.00  0.00    -0.238 N 
ATOM      6  C   UNL     1      34.318 -23.416 -16.752  0.00  0.00    +0.288 C 
ATOM      7  C   UNL     1      35.054 -23.885 -15.683  0.00  0.00    +0.215 C 
ATOM      8  C   UNL     1      36.367 -23.478 -15.492  0.00  0.00    +0.196 C 
ATOM      9  C   UNL     1      36.198 -22.208 -17.341  0.00  0.00    +0.207 C 
ATOM     10  C   UNL     1      35.943 -24.813 -13.892  0.00  0.00    +0.164 C 
ATOM     11  H   UNL     1      33.958 -25.215 -14.475  0.00  0.00    +0.126 HD
ATOM     12  H   UNL     1      37.818 -23.944 -14.017  0.00  0.00    +0.150 HD
ATOM     13  H   UNL     1      37.717 -21.071 -18.040  0.00  0.00    +0.166 HD
ENDROOT
BRANCH   5  14
ATOM     14  C   UNL     1      36.296 -20.667 -19.409  0.00  0.00    +0.058 C 
ATOM     15  C   UNL     1      35.019 -20.969 -19.889  0.00  0.00    +0.015 C 
ATOM     16  C   UNL     1      37.085 -19.732 -20.083  0.00  0.00    +0.015 C 
ATOM     17  C   UNL     1      35.324 -19.406 -21.705  0.00  0.00    +0.053 C 
ATOM     18  C   UNL     1      34.534 -20.340 -21.035  0.00  0.00    +0.006 C 
ATOM     19  C   UNL     1      36.600 -19.102 -21.229  0.00  0.00    +0.006 C 
BRANCH  17  22
ATOM     20  O   UNL     1      33.957 -19.285 -23.619  0.00  0.00    -0.270 OA
ATOM     21  N   UNL     1      35.316 -17.485 -23.203  0.00  0.00    -0.325 N 
ATOM     22  C   UNL     1      34.819 -18.749 -22.899  0.00  0.00    +0.243 C 
ATOM     23  H   UNL     1      34.997 -17.010 -24.005  0.00  0.00    +0.145 HD
ATOM     24  H   UNL     1      35.989 -17.067 -22.618  0.00  0.00    +0.145 HD
ENDBRANCH  17  22
ENDBRANCH   5  14
BRANCH   6  25
ATOM     25  O   UNL     1      33.016 -23.785 -16.987  0.00  0.00    -0.453 OA
BRANCH  25  26
ATOM     26  C   UNL     1      32.029 -22.780 -16.851  0.00  0.00    +0.208 C 
BRANCH  26  27
ATOM     27  C   UNL     1      31.028 -23.227 -15.787  0.00  0.00    +0.044 C 
ATOM     28  C   UNL     1      29.591 -23.120 -16.315  0.00  0.00    +0.004 C 
ATOM     29  C   UNL     1      31.332 -24.657 -15.322  0.00  0.00    +0.004 C 
ATOM     30  C   UNL     1      28.574 -23.611 -15.288  0.00  0.00    +0.000 C 
ATOM     31  C   UNL     1      30.312 -25.146 -14.297  0.00  0.00    +0.000 C 
ATOM     32  C   UNL     1      28.885 -25.029 -14.822  0.00  0.00    +0.000 C 
ENDBRANCH  26  27
ENDBRANCH  25  26
ENDBRANCH   6  25
TORSDOF 5
ENDMDL
MODEL 8
REMARK VINA RESULT:     -10.5      7.568     11.319
REMARK  Name = 447656
REMARK  5 active torsions:
REMARK  status: ('A' for Active; 'I' for Inactive)
REMARK    1  A    between atoms: N_5  and  C_14
REMARK    2  A    between atoms: C_6  and  O_25
REMARK    3  A    between atoms: C_17  and  C_22
REMARK    4  A    between atoms: O_25  and  C_26
REMARK    5  A    between atoms: C_26  and  C_27
REMARK                            x       y       z     vdW  Elec       q    Type
REMARK                         _______ _______ _______ _____ _____    ______ ____
ROOT
ATOM      1  N   UNL     1      34.651 -16.387 -22.240  0.00  0.00    -0.293 NA
ATOM      2  N   UNL     1      33.669 -13.455 -24.230  0.00  0.00    -0.266 NA
ATOM      3  N   UNL     1      34.379 -16.844 -24.621  0.00  0.00    -0.316 NA
ATOM      4  N   UNL     1      33.729 -14.899 -25.927  0.00  0.00    -0.296 N 
ATOM      5  N   UNL     1      35.000 -18.529 -23.121  0.00  0.00    -0.238 N 
ATOM      6  C   UNL     1      34.329 -15.087 -22.409  0.00  0.00    +0.288 C 
ATOM      7  C   UNL     1      34.028 -14.654 -23.684  0.00  0.00    +0.215 C 
ATOM      8  C   UNL     1      34.059 -15.534 -24.757  0.00  0.00    +0.196 C 
ATOM      9  C   UNL     1      34.657 -17.175 -23.341  0.00  0.00    +0.207 C 
ATOM     10  C   UNL     1      33.500 -13.652 -25.575  0.00  0.00    +0.164 C 
ATOM     11  H   UNL     1      33.551 -12.606 -23.746  0.00  0.00    +0.126 HD
ATOM     12  H   UNL     1      33.675 -15.290 -26.830  0.00  0.00    +0.150 HD
ATOM     13  H   UNL     1      34.996 -19.077 -23.939  0.00  0.00    +0.166 HD
ENDROOT
BRANCH   5  14
ATOM     14  C   UNL     1      35.346 -19.246 -21.962  0.00  0.00    +0.058 C 
ATOM     15  C   UNL     1      34.408 -20.078 -21.345  0.00  0.00    +0.015 C 
ATOM     16  C   UNL     1      36.628 -19.129 -21.422  0.00  0.00    +0.015 C 
ATOM     17  C   UNL     1      36.032 -20.670 -19.658  0.00  0.00    +0.053 C 
ATOM     18  C   UNL     1      34.750 -20.789 -20.195  0.00  0.00    +0.006 C 
ATOM     19  C   UNL     1      36.972 -19.841 -20.272  0.00  0.00    +0.006 C 
BRANCH  17  22
ATOM     20  O   UNL     1      35.944 -22.553 -18.246  0.00  0.00    -0.270 OA
ATOM     21  N   UNL     1      37.269 -20.810 -17.564  0.00  0.00    -0.325 N 
ATOM     22  C   UNL     1      36.390 -21.411 -18.460  0.00  0.00    +0.243 C 
ATOM     23  H   UNL     1      37.533 -21.282 -16.741  0.00  0.00    +0.145 HD
ATOM     24  H   UNL     1      37.625 -19.911 -17.751  0.00  0.00    +0.145 HD
ENDBRANCH  17  22
ENDBRANCH   5  14
BRANCH   6  25
ATOM     25  O   UNL     1      34.313 -14.260 -21.312  0.00  0.00    -0.453 OA
BRANCH  25  26
ATOM     26  C   UNL     1      33.082 -14.126 -20.626  0.00  0.00    +0.208 C 
BRANCH  26  27
ATOM     27  C   UNL     1      32.622 -12.673 -20.738  0.00  0.00    +0.044 C 
ATOM     28  C   UNL     1      31.449 -12.550 -21.720  0.00  0.00    +0.004 C 
ATOM     29  C   UNL     1      32.240 -12.118 -19.360  0.00  0.00    +0.004 C 
ATOM     30  C   UNL     1      30.937 -11.114 -21.809  0.00  0.00    +0.000 C 
ATOM     31  C   UNL     1      31.725 -10.684 -19.452  0.00  0.00    +0.000 C 
ATOM     32  C   UNL     1      30.566 -10.563 -20.437  0.00  0.00    +0.000 C 
ENDBRANCH  26  27
ENDBRANCH  25  26
ENDBRANCH   6  25
TORSDOF 5
ENDMDL
MODEL 9
REMARK VINA RESULT:      -9.7     13.447     17.034
REMARK  Name = 447656
REMARK  5 active torsions:
REMARK  status: ('A' for Active; 'I' for Inactive)
REMARK    1  A    between atoms: N_5  and  C_14
REMARK    2  A    between atoms: C_6  and  O_25
REMARK    3  A    between atoms: C_17  and  C_22
REMARK    4  A    between atoms: O_25  and  C_26
REMARK    5  A    between atoms: C_26  and  C_27
REMARK                            x       y       z     vdW  Elec       q    Type
REMARK                         _______ _______ _______ _____ _____    ______ ____
ROOT
ATOM      1  N   UNL     1      32.690  -8.832 -22.380  0.00  0.00    -0.293 NA
ATOM      2  N   UNL     1      31.528 -10.952 -19.609  0.00  0.00    -0.266 NA
ATOM      3  N   UNL     1      32.678  -7.719 -20.210  0.00  0.00    -0.316 NA
ATOM      4  N   UNL     1      31.908  -9.129 -18.386  0.00  0.00    -0.296 N 
ATOM      5  N   UNL     1      33.371  -6.604 -22.147  0.00  0.00    -0.238 N 
ATOM      6  C   UNL     1      32.226  -9.980 -21.842  0.00  0.00    +0.288 C 
ATOM      7  C   UNL     1      31.984 -10.008 -20.484  0.00  0.00    +0.215 C 
ATOM      8  C   UNL     1      32.213  -8.885 -19.700  0.00  0.00    +0.196 C 
ATOM      9  C   UNL     1      32.885  -7.786 -21.543  0.00  0.00    +0.207 C 
ATOM     10  C   UNL     1      31.500 -10.380 -18.366  0.00  0.00    +0.164 C 
ATOM     11  H   UNL     1      31.267 -11.876 -19.833  0.00  0.00    +0.126 HD
ATOM     12  H   UNL     1      31.980  -8.507 -17.625  0.00  0.00    +0.150 HD
ATOM     13  H   UNL     1      33.504  -5.861 -21.514  0.00  0.00    +0.166 HD
ENDROOT
BRANCH   5  14
ATOM     14  C   UNL     1      33.703  -6.282 -23.475  0.00  0.00    +0.058 C 
ATOM     15  C   UNL     1      32.733  -5.758 -24.333  0.00  0.00    +0.015 C 
ATOM     16  C   UNL     1      35.003  -6.484 -23.942  0.00  0.00    +0.015 C 
ATOM     17  C   UNL     1      34.361  -5.641 -26.113  0.00  0.00    +0.053 C 
ATOM     18  C   UNL     1      33.061  -5.437 -25.650  0.00  0.00    +0.006 C 
ATOM     19  C   UNL     1      35.332  -6.163 -25.260  0.00  0.00    +0.006 C 
BRANCH  17  22
ATOM     20  O   UNL     1      35.145  -4.184 -27.789  0.00  0.00    -0.270 OA
ATOM     21  N   UNL     1      34.540  -6.294 -28.453  0.00  0.00    -0.325 N 
ATOM     22  C   UNL     1      34.703  -5.307 -27.486  0.00  0.00    +0.243 C 
ATOM     23  H   UNL     1      34.761  -6.103 -29.394  0.00  0.00    +0.145 HD
ATOM     24  H   UNL     1      34.201  -7.183 -28.198  0.00  0.00    +0.145 HD
ENDBRANCH  17  22
ENDBRANCH   5  14
BRANCH   6  25
ATOM     25  O   UNL     1      32.016 -11.061 -22.664  0.00  0.00    -0.453 OA
BRANCH  25  26
ATOM     26  C   UNL     1      33.124 -11.521 -23.416  0.00  0.00    +0.208 C 
BRANCH  26  27
ATOM     27  C   UNL     1      33.168 -13.045 -23.330  0.00  0.00    +0.044 C 
ATOM     28  C   UNL     1      33.407 -13.660 -24.716  0.00  0.00    +0.004 C 
ATOM     29  C   UNL     1      34.245 -13.501 -22.337  0.00  0.00    +0.004 C 
ATOM     30  C   UNL     1      33.509 -15.182 -24.648  0.00  0.00    +0.000 C 
ATOM     31  C   UNL     1      34.346 -15.023 -22.274  0.00  0.00    +0.000 C 
ATOM     32  C   UNL     1      34.574 -15.631 -23.654  0.00  0.00    +0.000 C 
ENDBRANCH  26  27
ENDBRANCH  25  26
ENDBRANCH   6  25
TORSDOF 5
ENDMDL
