MODEL 1
REMARK VINA RESULT:     -12.7      0.000      0.000
REMARK  Name = 25101874
REMARK  5 active torsions:
REMARK  status: ('A' for Active; 'I' for Inactive)
REMARK    1  A    between atoms: N_1  and  C_22
REMARK    2  A    between atoms: C_2  and  N_8
REMARK    3  A    between atoms: N_8  and  C_11
REMARK    4  A    between atoms: C_11  and  C_14
REMARK    5  A    between atoms: C_22  and  C_28
REMARK                            x       y       z     vdW  Elec       q    Type
REMARK                         _______ _______ _______ _____ _____    ______ ____
ROOT
ATOM      1  N   UNL     1      33.969 -22.944 -18.792  0.00  0.00    +0.388 N 
ATOM      2  C   UNL     1      34.471 -20.421 -20.187  0.00  0.00    -0.066 C 
ATOM      3  C   UNL     1      35.328 -22.391 -18.865  0.00  0.00    -0.079 C 
ATOM      4  C   UNL     1      32.959 -21.876 -18.783  0.00  0.00    -0.079 C 
ATOM      5  C   UNL     1      35.513 -21.541 -20.124  0.00  0.00    -0.044 C 
ATOM      6  C   UNL     1      33.064 -21.009 -20.040  0.00  0.00    -0.044 C 
ATOM      7  H   UNL     1      33.817 -23.513 -19.624  0.00  0.00    -0.080 HD
ENDROOT
BRANCH   2   8
ATOM      8  N   UNL     1      34.599 -19.680 -21.439  0.00  0.00    +0.389 N 
ATOM      9  H   UNL     1      33.718 -19.207 -21.640  0.00  0.00    -0.084 HD
ATOM     10  H   UNL     1      34.828 -20.337 -22.185  0.00  0.00    -0.084 HD
BRANCH   8  11
ATOM     11  C   UNL     1      35.662 -18.691 -21.348  0.00  0.00    -0.034 C 
BRANCH  11  14
ATOM     12  O   UNL     1      33.844 -13.489 -22.309  0.00  0.00    -0.474 OA
ATOM     13  N   UNL     1      35.014 -16.467 -20.609  0.00  0.00    -0.247 NA
ATOM     14  C   UNL     1      35.166 -17.303 -21.659  0.00  0.00    +0.037 C 
ATOM     15  C   UNL     1      34.895 -16.959 -22.974  0.00  0.00    +0.011 C 
ATOM     16  C   UNL     1      34.431 -15.669 -23.238  0.00  0.00    +0.015 C 
ATOM     17  C   UNL     1      34.122 -15.248 -24.645  0.00  0.00    +0.033 C 
ATOM     18  C   UNL     1      34.286 -14.775 -22.175  0.00  0.00    +0.154 C 
ATOM     19  C   UNL     1      33.276 -13.982 -24.642  0.00  0.00    +0.052 C 
ATOM     20  C   UNL     1      34.575 -15.221 -20.893  0.00  0.00    +0.135 C 
ATOM     21  C   UNL     1      33.862 -12.987 -23.651  0.00  0.00    +0.206 C 
ENDBRANCH  11  14
ENDBRANCH   8  11
ENDBRANCH   2   8
BRANCH   1  22
ATOM     22  C   UNL     1      33.825 -23.795 -17.610  0.00  0.00    -0.055 C 
BRANCH  22  28
ATOM     23  O   UNL     1      30.961 -23.738 -15.790  0.00  0.00    -0.273 OA
ATOM     24  O   UNL     1      37.608 -23.323 -13.906  0.00  0.00    -0.270 OA
ATOM     25  N   UNL     1      33.221 -23.648 -15.207  0.00  0.00    -0.261 N 
ATOM     26  N   UNL     1      35.384 -23.511 -14.541  0.00  0.00    -0.255 N 
ATOM     27  N   UNL     1      32.515 -24.966 -12.834  0.00  0.00    -0.262 NA
ATOM     28  C   UNL     1      33.896 -22.969 -16.331  0.00  0.00    +0.076 C 
ATOM     29  C   UNL     1      35.357 -22.806 -15.831  0.00  0.00    +0.113 C 
ATOM     30  C   UNL     1      34.127 -23.941 -14.241  0.00  0.00    +0.196 C 
ATOM     31  C   UNL     1      33.797 -24.569 -13.116  0.00  0.00    +0.092 C 
ATOM     32  C   UNL     1      31.896 -23.960 -15.038  0.00  0.00    +0.252 C 
ATOM     33  C   UNL     1      36.458 -23.698 -13.693  0.00  0.00    +0.251 C 
ATOM     34  C   UNL     1      34.857 -24.823 -12.166  0.00  0.00    +0.022 C 
ATOM     35  C   UNL     1      31.615 -24.681 -13.730  0.00  0.00    +0.210 C 
ATOM     36  C   UNL     1      36.118 -24.426 -12.417  0.00  0.00    +0.059 C 
ENDBRANCH  22  28
ENDBRANCH   1  22
TORSDOF 5
ENDMDL
MODEL 2
REMARK VINA RESULT:     -12.4      1.124      2.807
REMARK  Name = 25101874
REMARK  5 active torsions:
REMARK  status: ('A' for Active; 'I' for Inactive)
REMARK    1  A    between atoms: N_1  and  C_22
REMARK    2  A    between atoms: C_2  and  N_8
REMARK    3  A    between atoms: N_8  and  C_11
REMARK    4  A    between atoms: C_11  and  C_14
REMARK    5  A    between atoms: C_22  and  C_28
REMARK                            x       y       z     vdW  Elec       q    Type
REMARK                         _______ _______ _______ _____ _____    ______ ____
ROOT
ATOM      1  N   UNL     1      34.943 -22.231 -18.573  0.00  0.00    +0.388 N 
ATOM      2  C   UNL     1      34.674 -20.193 -20.655  0.00  0.00    -0.066 C 
ATOM      3  C   UNL     1      36.078 -21.364 -18.916  0.00  0.00    -0.079 C 
ATOM      4  C   UNL     1      33.662 -21.538 -18.774  0.00  0.00    -0.079 C 
ATOM      5  C   UNL     1      36.001 -20.903 -20.374  0.00  0.00    -0.044 C 
ATOM      6  C   UNL     1      33.504 -21.084 -20.228  0.00  0.00    -0.044 C 
ATOM      7  H   UNL     1      34.965 -23.037 -19.196  0.00  0.00    -0.080 HD
ENDROOT
BRANCH   2   8
ATOM      8  N   UNL     1      34.577 -19.846 -22.070  0.00  0.00    +0.389 N 
ATOM      9  H   UNL     1      33.677 -19.397 -22.244  0.00  0.00    -0.084 HD
ATOM     10  H   UNL     1      34.659 -20.700 -22.623  0.00  0.00    -0.084 HD
BRANCH   8  11
ATOM     11  C   UNL     1      35.646 -18.938 -22.455  0.00  0.00    -0.034 C 
BRANCH  11  14
ATOM     12  O   UNL     1      33.874 -13.642 -22.784  0.00  0.00    -0.474 OA
ATOM     13  N   UNL     1      35.150 -16.770 -21.473  0.00  0.00    -0.247 NA
ATOM     14  C   UNL     1      35.156 -17.521 -22.596  0.00  0.00    +0.037 C 
ATOM     15  C   UNL     1      34.744 -17.066 -23.839  0.00  0.00    +0.011 C 
ATOM     16  C   UNL     1      34.288 -15.750 -23.943  0.00  0.00    +0.015 C 
ATOM     17  C   UNL     1      33.829 -15.210 -25.267  0.00  0.00    +0.033 C 
ATOM     18  C   UNL     1      34.293 -14.943 -22.804  0.00  0.00    +0.154 C 
ATOM     19  C   UNL     1      33.025 -13.933 -25.065  0.00  0.00    +0.052 C 
ATOM     20  C   UNL     1      34.715 -15.497 -21.604  0.00  0.00    +0.135 C 
ATOM     21  C   UNL     1      33.750 -13.034 -24.075  0.00  0.00    +0.206 C 
ENDBRANCH  11  14
ENDBRANCH   8  11
ENDBRANCH   2   8
BRANCH   1  22
ATOM     22  C   UNL     1      35.058 -22.703 -17.193  0.00  0.00    -0.055 C 
BRANCH  22  28
ATOM     23  O   UNL     1      36.090 -24.971 -14.888  0.00  0.00    -0.273 OA
ATOM     24  O   UNL     1      29.776 -22.709 -16.597  0.00  0.00    -0.270 OA
ATOM     25  N   UNL     1      33.988 -24.139 -15.474  0.00  0.00    -0.261 N 
ATOM     26  N   UNL     1      31.900 -23.427 -15.997  0.00  0.00    -0.255 N 
ATOM     27  N   UNL     1      33.250 -24.515 -12.794  0.00  0.00    -0.262 NA
ATOM     28  C   UNL     1      34.069 -23.828 -16.915  0.00  0.00    +0.076 C 
ATOM     29  C   UNL     1      32.615 -23.422 -17.281  0.00  0.00    +0.113 C 
ATOM     30  C   UNL     1      32.739 -23.869 -15.019  0.00  0.00    +0.196 C 
ATOM     31  C   UNL     1      32.386 -24.043 -13.749  0.00  0.00    +0.092 C 
ATOM     32  C   UNL     1      34.942 -24.648 -14.630  0.00  0.00    +0.252 C 
ATOM     33  C   UNL     1      30.579 -23.101 -15.755  0.00  0.00    +0.251 C 
ATOM     34  C   UNL     1      31.023 -23.718 -13.391  0.00  0.00    +0.022 C 
ATOM     35  C   UNL     1      34.452 -24.806 -13.200  0.00  0.00    +0.210 C 
ATOM     36  C   UNL     1      30.155 -23.269 -14.317  0.00  0.00    +0.059 C 
ENDBRANCH  22  28
ENDBRANCH   1  22
TORSDOF 5
ENDMDL
MODEL 3
REMARK VINA RESULT:     -12.1      3.992     12.096
REMARK  Name = 25101874
REMARK  5 active torsions:
REMARK  status: ('A' for Active; 'I' for Inactive)
REMARK    1  A    between atoms: N_1  and  C_22
REMARK    2  A    between atoms: C_2  and  N_8
REMARK    3  A    between atoms: N_8  and  C_11
REMARK    4  A    between atoms: C_11  and  C_14
REMARK    5  A    between atoms: C_22  and  C_28
REMARK                            x       y       z     vdW  Elec       q    Type
REMARK                         _______ _______ _______ _____ _____    ______ ____
ROOT
ATOM      1  N   UNL     1      33.726 -13.663 -23.047  0.00  0.00    +0.388 N 
ATOM      2  C   UNL     1      34.750 -16.385 -23.364  0.00  0.00    -0.066 C 
ATOM      3  C   UNL     1      34.661 -14.226 -22.063  0.00  0.00    -0.079 C 
ATOM      4  C   UNL     1      33.966 -14.216 -24.387  0.00  0.00    -0.079 C 
ATOM      5  C   UNL     1      34.534 -15.750 -21.989  0.00  0.00    -0.044 C 
ATOM      6  C   UNL     1      33.815 -15.739 -24.391  0.00  0.00    -0.044 C 
ATOM      7  H   UNL     1      32.781 -13.923 -22.765  0.00  0.00    -0.080 HD
ENDROOT
BRANCH   2   8
ATOM      8  N   UNL     1      34.530 -17.828 -23.295  0.00  0.00    +0.389 N 
ATOM      9  H   UNL     1      34.563 -18.218 -24.237  0.00  0.00    -0.084 HD
ATOM     10  H   UNL     1      33.618 -18.000 -22.871  0.00  0.00    -0.084 HD
BRANCH   8  11
ATOM     11  C   UNL     1      35.551 -18.468 -22.478  0.00  0.00    -0.034 C 
BRANCH  11  14
ATOM     12  O   UNL     1      33.155 -22.035 -18.897  0.00  0.00    -0.474 OA
ATOM     13  N   UNL     1      33.609 -19.548 -21.492  0.00  0.00    -0.247 NA
ATOM     14  C   UNL     1      34.955 -19.438 -21.492  0.00  0.00    +0.037 C 
ATOM     15  C   UNL     1      35.794 -20.152 -20.652  0.00  0.00    +0.011 C 
ATOM     16  C   UNL     1      35.219 -21.042 -19.742  0.00  0.00    +0.015 C 
ATOM     17  C   UNL     1      36.085 -21.838 -18.810  0.00  0.00    +0.033 C 
ATOM     18  C   UNL     1      33.831 -21.195 -19.736  0.00  0.00    +0.154 C 
ATOM     19  C   UNL     1      35.247 -22.414 -17.676  0.00  0.00    +0.052 C 
ATOM     20  C   UNL     1      33.078 -20.425 -20.611  0.00  0.00    +0.135 C 
ATOM     21  C   UNL     1      33.973 -23.017 -18.248  0.00  0.00    +0.206 C 
ENDBRANCH  11  14
ENDBRANCH   8  11
ENDBRANCH   2   8
BRANCH   1  22
ATOM     22  C   UNL     1      33.824 -12.204 -23.069  0.00  0.00    -0.055 C 
BRANCH  22  28
ATOM     23  O   UNL     1      32.134 -13.218 -20.306  0.00  0.00    -0.273 OA
ATOM     24  O   UNL     1      32.140  -7.207 -23.736  0.00  0.00    -0.270 OA
ATOM     25  N   UNL     1      32.210 -11.198 -21.474  0.00  0.00    -0.261 N 
ATOM     26  N   UNL     1      32.179  -9.209 -22.563  0.00  0.00    -0.255 N 
ATOM     27  N   UNL     1      31.753  -9.923 -19.018  0.00  0.00    -0.262 NA
ATOM     28  C   UNL     1      32.455 -11.561 -22.884  0.00  0.00    +0.076 C 
ATOM     29  C   UNL     1      32.349 -10.203 -23.632  0.00  0.00    +0.113 C 
ATOM     30  C   UNL     1      32.083  -9.851 -21.366  0.00  0.00    +0.196 C 
ATOM     31  C   UNL     1      31.871  -9.243 -20.203  0.00  0.00    +0.092 C 
ATOM     32  C   UNL     1      32.080 -12.001 -20.371  0.00  0.00    +0.252 C 
ATOM     33  C   UNL     1      32.073  -7.837 -22.684  0.00  0.00    +0.251 C 
ATOM     34  C   UNL     1      31.756  -7.802 -20.222  0.00  0.00    +0.022 C 
ATOM     35  C   UNL     1      31.847 -11.220 -19.088  0.00  0.00    +0.210 C 
ATOM     36  C   UNL     1      31.851  -7.117 -21.377  0.00  0.00    +0.059 C 
ENDBRANCH  22  28
ENDBRANCH   1  22
TORSDOF 5
ENDMDL
MODEL 4
REMARK VINA RESULT:     -12.1      1.414      2.050
REMARK  Name = 25101874
REMARK  5 active torsions:
REMARK  status: ('A' for Active; 'I' for Inactive)
REMARK    1  A    between atoms: N_1  and  C_22
REMARK    2  A    between atoms: C_2  and  N_8
REMARK    3  A    between atoms: N_8  and  C_11
REMARK    4  A    between atoms: C_11  and  C_14
REMARK    5  A    between atoms: C_22  and  C_28
REMARK                            x       y       z     vdW  Elec       q    Type
REMARK                         _______ _______ _______ _____ _____    ______ ____
ROOT
ATOM      1  N   UNL     1      35.110 -22.210 -17.877  0.00  0.00    +0.388 N 
ATOM      2  C   UNL     1      34.568 -21.005 -20.487  0.00  0.00    -0.066 C 
ATOM      3  C   UNL     1      33.888 -22.554 -18.616  0.00  0.00    -0.079 C 
ATOM      4  C   UNL     1      36.215 -21.891 -18.792  0.00  0.00    -0.079 C 
ATOM      5  C   UNL     1      33.448 -21.402 -19.523  0.00  0.00    -0.044 C 
ATOM      6  C   UNL     1      35.853 -20.716 -19.705  0.00  0.00    -0.044 C 
ATOM      7  H   UNL     1      34.915 -21.380 -17.319  0.00  0.00    -0.080 HD
ENDROOT
BRANCH   2   8
ATOM      8  N   UNL     1      34.167 -19.844 -21.278  0.00  0.00    +0.389 N 
ATOM      9  H   UNL     1      33.507 -19.283 -20.739  0.00  0.00    -0.084 HD
ATOM     10  H   UNL     1      33.732 -20.171 -22.141  0.00  0.00    -0.084 HD
BRANCH   8  11
ATOM     11  C   UNL     1      35.321 -19.025 -21.618  0.00  0.00    -0.034 C 
BRANCH  11  14
ATOM     12  O   UNL     1      33.889 -14.779 -24.966  0.00  0.00    -0.474 OA
ATOM     13  N   UNL     1      34.751 -18.096 -23.792  0.00  0.00    -0.247 NA
ATOM     14  C   UNL     1      34.941 -17.848 -22.477  0.00  0.00    +0.037 C 
ATOM     15  C   UNL     1      34.809 -16.598 -21.894  0.00  0.00    +0.011 C 
ATOM     16  C   UNL     1      34.462 -15.520 -22.712  0.00  0.00    +0.015 C 
ATOM     17  C   UNL     1      34.308 -14.146 -22.128  0.00  0.00    +0.033 C 
ATOM     18  C   UNL     1      34.235 -15.751 -24.070  0.00  0.00    +0.154 C 
ATOM     19  C   UNL     1      34.325 -13.099 -23.234  0.00  0.00    +0.052 C 
ATOM     20  C   UNL     1      34.404 -17.038 -24.558  0.00  0.00    +0.135 C 
ATOM     21  C   UNL     1      33.428 -13.558 -24.375  0.00  0.00    +0.206 C 
ENDBRANCH  11  14
ENDBRANCH   8  11
ENDBRANCH   2   8
BRANCH   1  22
ATOM     22  C   UNL     1      35.488 -23.301 -16.978  0.00  0.00    -0.055 C 
BRANCH  22  28
ATOM     23  O   UNL     1      32.773 -22.766 -15.013  0.00  0.00    -0.273 OA
ATOM     24  O   UNL     1      39.267 -24.598 -13.473  0.00  0.00    -0.270 OA
ATOM     25  N   UNL     1      34.966 -23.426 -14.555  0.00  0.00    -0.261 N 
ATOM     26  N   UNL     1      37.080 -24.030 -14.001  0.00  0.00    -0.255 N 
ATOM     27  N   UNL     1      33.923 -24.897 -12.406  0.00  0.00    -0.262 NA
ATOM     28  C   UNL     1      35.802 -22.775 -15.582  0.00  0.00    +0.076 C 
ATOM     29  C   UNL     1      37.251 -23.126 -15.146  0.00  0.00    +0.113 C 
ATOM     30  C   UNL     1      35.754 -24.134 -13.707  0.00  0.00    +0.196 C 
ATOM     31  C   UNL     1      35.263 -24.836 -12.690  0.00  0.00    +0.092 C 
ATOM     32  C   UNL     1      33.609 -23.376 -14.366  0.00  0.00    +0.252 C 
ATOM     33  C   UNL     1      38.060 -24.665 -13.261  0.00  0.00    +0.251 C 
ATOM     34  C   UNL     1      36.210 -25.547 -11.860  0.00  0.00    +0.022 C 
ATOM     35  C   UNL     1      33.138 -24.212 -13.186  0.00  0.00    +0.210 C 
ATOM     36  C   UNL     1      37.531 -25.485 -12.111  0.00  0.00    +0.059 C 
ENDBRANCH  22  28
ENDBRANCH   1  22
TORSDOF 5
ENDMDL
MODEL 5
REMARK VINA RESULT:     -12.0      2.111     10.951
REMARK  Name = 25101874
REMARK  5 active torsions:
REMARK  status: ('A' for Active; 'I' for Inactive)
REMARK    1  A    between atoms: N_1  and  C_22
REMARK    2  A    between atoms: C_2  and  N_8
REMARK    3  A    between atoms: N_8  and  C_11
REMARK    4  A    between atoms: C_11  and  C_14
REMARK    5  A    between atoms: C_22  and  C_28
REMARK                            x       y       z     vdW  Elec       q    Type
REMARK                         _______ _______ _______ _____ _____    ______ ____
ROOT
ATOM      1  N   UNL     1      36.015 -19.095 -22.036  0.00  0.00    +0.388 N 
ATOM      2  C   UNL     1      35.603 -20.758 -19.664  0.00  0.00    -0.066 C 
ATOM      3  C   UNL     1      34.657 -19.468 -21.615  0.00  0.00    -0.079 C 
ATOM      4  C   UNL     1      36.918 -18.982 -20.882  0.00  0.00    -0.079 C 
ATOM      5  C   UNL     1      34.658 -20.804 -20.867  0.00  0.00    -0.044 C 
ATOM      6  C   UNL     1      36.995 -20.302 -20.110  0.00  0.00    -0.044 C 
ATOM      7  H   UNL     1      36.369 -19.835 -22.641  0.00  0.00    -0.080 HD
ENDROOT
BRANCH   2   8
ATOM      8  N   UNL     1      35.665 -22.068 -19.020  0.00  0.00    +0.389 N 
ATOM      9  H   UNL     1      36.029 -21.959 -18.073  0.00  0.00    -0.084 HD
ATOM     10  H   UNL     1      36.278 -22.673 -19.567  0.00  0.00    -0.084 HD
BRANCH   8  11
ATOM     11  C   UNL     1      34.345 -22.677 -18.957  0.00  0.00    -0.034 C 
BRANCH  11  14
ATOM     12  O   UNL     1      33.040 -23.867 -13.650  0.00  0.00    -0.474 OA
ATOM     13  N   UNL     1      34.943 -23.214 -16.662  0.00  0.00    -0.247 NA
ATOM     14  C   UNL     1      33.941 -22.998 -17.542  0.00  0.00    +0.037 C 
ATOM     15  C   UNL     1      32.595 -23.057 -17.218  0.00  0.00    +0.011 C 
ATOM     16  C   UNL     1      32.245 -23.362 -15.902  0.00  0.00    +0.015 C 
ATOM     17  C   UNL     1      30.800 -23.440 -15.501  0.00  0.00    +0.033 C 
ATOM     18  C   UNL     1      33.259 -23.566 -14.964  0.00  0.00    +0.154 C 
ATOM     19  C   UNL     1      30.662 -24.159 -14.166  0.00  0.00    +0.052 C 
ATOM     20  C   UNL     1      34.577 -23.495 -15.392  0.00  0.00    +0.135 C 
ATOM     21  C   UNL     1      31.704 -23.623 -13.195  0.00  0.00    +0.206 C 
ENDBRANCH  11  14
ENDBRANCH   8  11
ENDBRANCH   2   8
BRANCH   1  22
ATOM     22  C   UNL     1      35.990 -17.843 -22.792  0.00  0.00    -0.055 C 
BRANCH  22  28
ATOM     23  O   UNL     1      34.865 -16.458 -19.905  0.00  0.00    -0.273 OA
ATOM     24  O   UNL     1      33.496 -15.008 -26.533  0.00  0.00    -0.270 OA
ATOM     25  N   UNL     1      34.474 -15.982 -22.158  0.00  0.00    -0.261 N 
ATOM     26  N   UNL     1      33.996 -15.468 -24.314  0.00  0.00    -0.255 N 
ATOM     27  N   UNL     1      34.170 -13.301 -21.392  0.00  0.00    -0.262 NA
ATOM     28  C   UNL     1      34.577 -17.275 -22.863  0.00  0.00    +0.076 C 
ATOM     29  C   UNL     1      34.167 -16.928 -24.320  0.00  0.00    +0.113 C 
ATOM     30  C   UNL     1      34.162 -15.004 -23.045  0.00  0.00    +0.196 C 
ATOM     31  C   UNL     1      34.021 -13.731 -22.686  0.00  0.00    +0.092 C 
ATOM     32  C   UNL     1      34.619 -15.695 -20.825  0.00  0.00    +0.252 C 
ATOM     33  C   UNL     1      33.668 -14.644 -25.373  0.00  0.00    +0.251 C 
ATOM     34  C   UNL     1      33.688 -12.784 -23.727  0.00  0.00    +0.022 C 
ATOM     35  C   UNL     1      34.447 -14.217 -20.511  0.00  0.00    +0.210 C 
ATOM     36  C   UNL     1      33.521 -13.190 -25.000  0.00  0.00    +0.059 C 
ENDBRANCH  22  28
ENDBRANCH   1  22
TORSDOF 5
ENDMDL
MODEL 6
REMARK VINA RESULT:     -11.8      1.524      2.139
REMARK  Name = 25101874
REMARK  5 active torsions:
REMARK  status: ('A' for Active; 'I' for Inactive)
REMARK    1  A    between atoms: N_1  and  C_22
REMARK    2  A    between atoms: C_2  and  N_8
REMARK    3  A    between atoms: N_8  and  C_11
REMARK    4  A    between atoms: C_11  and  C_14
REMARK    5  A    between atoms: C_22  and  C_28
REMARK                            x       y       z     vdW  Elec       q    Type
REMARK                         _______ _______ _______ _____ _____    ______ ____
ROOT
ATOM      1  N   UNL     1      35.377 -21.843 -19.933  0.00  0.00    +0.388 N 
ATOM      2  C   UNL     1      35.799 -19.107 -20.881  0.00  0.00    -0.066 C 
ATOM      3  C   UNL     1      36.545 -21.072 -19.485  0.00  0.00    -0.079 C 
ATOM      4  C   UNL     1      34.231 -20.964 -20.202  0.00  0.00    -0.079 C 
ATOM      5  C   UNL     1      36.963 -20.041 -20.537  0.00  0.00    -0.044 C 
ATOM      6  C   UNL     1      34.570 -19.929 -21.278  0.00  0.00    -0.044 C 
ATOM      7  H   UNL     1      35.625 -22.311 -20.804  0.00  0.00    -0.080 HD
ENDROOT
BRANCH   2   8
ATOM      8  N   UNL     1      36.185 -18.193 -21.953  0.00  0.00    +0.389 N 
ATOM      9  H   UNL     1      37.143 -18.396 -22.238  0.00  0.00    -0.084 HD
ATOM     10  H   UNL     1      36.113 -17.235 -21.607  0.00  0.00    -0.084 HD
BRANCH   8  11
ATOM     11  C   UNL     1      35.304 -18.341 -23.101  0.00  0.00    -0.034 C 
BRANCH  11  14
ATOM     12  O   UNL     1      33.089 -13.529 -24.898  0.00  0.00    -0.474 OA
ATOM     13  N   UNL     1      34.169 -16.985 -24.770  0.00  0.00    -0.247 NA
ATOM     14  C   UNL     1      34.726 -17.021 -23.539  0.00  0.00    +0.037 C 
ATOM     15  C   UNL     1      34.791 -15.934 -22.682  0.00  0.00    +0.011 C 
ATOM     16  C   UNL     1      34.254 -14.720 -23.113  0.00  0.00    +0.015 C 
ATOM     17  C   UNL     1      34.301 -13.512 -22.222  0.00  0.00    +0.033 C 
ATOM     18  C   UNL     1      33.650 -14.658 -24.371  0.00  0.00    +0.154 C 
ATOM     19  C   UNL     1      34.031 -12.250 -23.031  0.00  0.00    +0.052 C 
ATOM     20  C   UNL     1      33.646 -15.800 -25.157  0.00  0.00    +0.135 C 
ATOM     21  C   UNL     1      32.840 -12.485 -23.948  0.00  0.00    +0.206 C 
ENDBRANCH  11  14
ENDBRANCH   8  11
ENDBRANCH   2   8
BRANCH   1  22
ATOM     22  C   UNL     1      35.023 -22.857 -18.940  0.00  0.00    -0.055 C 
BRANCH  22  28
ATOM     23  O   UNL     1      31.894 -22.489 -17.678  0.00  0.00    -0.273 OA
ATOM     24  O   UNL     1      37.975 -23.691 -14.599  0.00  0.00    -0.270 OA
ATOM     25  N   UNL     1      33.964 -22.939 -16.696  0.00  0.00    -0.261 N 
ATOM     26  N   UNL     1      35.932 -23.335 -15.642  0.00  0.00    -0.255 N 
ATOM     27  N   UNL     1      32.568 -24.415 -14.763  0.00  0.00    -0.262 NA
ATOM     28  C   UNL     1      34.964 -22.256 -17.541  0.00  0.00    +0.076 C 
ATOM     29  C   UNL     1      36.294 -22.462 -16.768  0.00  0.00    +0.113 C 
ATOM     30  C   UNL     1      34.587 -23.543 -15.653  0.00  0.00    +0.196 C 
ATOM     31  C   UNL     1      33.928 -24.248 -14.737  0.00  0.00    +0.092 C 
ATOM     32  C   UNL     1      32.600 -23.000 -16.824  0.00  0.00    +0.252 C 
ATOM     33  C   UNL     1      36.759 -23.854 -14.665  0.00  0.00    +0.251 C 
ATOM     34  C   UNL     1      34.708 -24.843 -13.675  0.00  0.00    +0.022 C 
ATOM     35  C   UNL     1      31.935 -23.830 -15.739  0.00  0.00    +0.210 C 
ATOM     36  C   UNL     1      36.043 -24.675 -13.622  0.00  0.00    +0.059 C 
ENDBRANCH  22  28
ENDBRANCH   1  22
TORSDOF 5
ENDMDL
MODEL 7
REMARK VINA RESULT:     -11.4      2.075     11.233
REMARK  Name = 25101874
REMARK  5 active torsions:
REMARK  status: ('A' for Active; 'I' for Inactive)
REMARK    1  A    between atoms: N_1  and  C_22
REMARK    2  A    between atoms: C_2  and  N_8
REMARK    3  A    between atoms: N_8  and  C_11
REMARK    4  A    between atoms: C_11  and  C_14
REMARK    5  A    between atoms: C_22  and  C_28
REMARK                            x       y       z     vdW  Elec       q    Type
REMARK                         _______ _______ _______ _____ _____    ______ ____
ROOT
ATOM      1  N   UNL     1      35.981 -19.096 -22.089  0.00  0.00    +0.388 N 
ATOM      2  C   UNL     1      35.586 -20.720 -19.688  0.00  0.00    -0.066 C 
ATOM      3  C   UNL     1      34.626 -19.448 -21.643  0.00  0.00    -0.079 C 
ATOM      4  C   UNL     1      36.902 -18.976 -20.950  0.00  0.00    -0.079 C 
ATOM      5  C   UNL     1      34.623 -20.773 -20.877  0.00  0.00    -0.044 C 
ATOM      6  C   UNL     1      36.976 -20.285 -20.160  0.00  0.00    -0.044 C 
ATOM      7  H   UNL     1      36.319 -19.848 -22.688  0.00  0.00    -0.080 HD
ENDROOT
BRANCH   2   8
ATOM      8  N   UNL     1      35.643 -22.021 -19.026  0.00  0.00    +0.389 N 
ATOM      9  H   UNL     1      35.922 -22.730 -19.704  0.00  0.00    -0.084 HD
ATOM     10  H   UNL     1      34.720 -22.236 -18.647  0.00  0.00    -0.084 HD
BRANCH   8  11
ATOM     11  C   UNL     1      36.603 -22.004 -17.932  0.00  0.00    -0.034 C 
BRANCH  11  14
ATOM     12  O   UNL     1      34.351 -24.375 -13.394  0.00  0.00    -0.474 OA
ATOM     13  N   UNL     1      34.774 -23.091 -16.755  0.00  0.00    -0.247 NA
ATOM     14  C   UNL     1      36.042 -22.629 -16.683  0.00  0.00    +0.037 C 
ATOM     15  C   UNL     1      36.831 -22.698 -15.545  0.00  0.00    +0.011 C 
ATOM     16  C   UNL     1      36.287 -23.277 -14.397  0.00  0.00    +0.015 C 
ATOM     17  C   UNL     1      37.101 -23.374 -13.139  0.00  0.00    +0.033 C 
ATOM     18  C   UNL     1      34.988 -23.785 -14.449  0.00  0.00    +0.154 C 
ATOM     19  C   UNL     1      36.197 -23.661 -11.948  0.00  0.00    +0.052 C 
ATOM     20  C   UNL     1      34.276 -23.657 -15.634  0.00  0.00    +0.135 C 
ATOM     21  C   UNL     1      35.213 -24.761 -12.316  0.00  0.00    +0.206 C 
ENDBRANCH  11  14
ENDBRANCH   8  11
ENDBRANCH   2   8
BRANCH   1  22
ATOM     22  C   UNL     1      35.959 -17.854 -22.863  0.00  0.00    -0.055 C 
BRANCH  22  28
ATOM     23  O   UNL     1      34.868 -16.487 -19.954  0.00  0.00    -0.273 OA
ATOM     24  O   UNL     1      33.474 -14.951 -26.557  0.00  0.00    -0.270 OA
ATOM     25  N   UNL     1      34.469 -15.983 -22.199  0.00  0.00    -0.261 N 
ATOM     26  N   UNL     1      33.983 -15.441 -24.346  0.00  0.00    -0.255 N 
ATOM     27  N   UNL     1      34.200 -13.307 -21.403  0.00  0.00    -0.262 NA
ATOM     28  C   UNL     1      34.553 -17.270 -22.918  0.00  0.00    +0.076 C 
ATOM     29  C   UNL     1      34.138 -16.902 -24.369  0.00  0.00    +0.113 C 
ATOM     30  C   UNL     1      34.162 -14.992 -23.073  0.00  0.00    +0.196 C 
ATOM     31  C   UNL     1      34.038 -13.721 -22.700  0.00  0.00    +0.092 C 
ATOM     32  C   UNL     1      34.625 -15.711 -20.864  0.00  0.00    +0.252 C 
ATOM     33  C   UNL     1      33.658 -14.601 -25.394  0.00  0.00    +0.251 C 
ATOM     34  C   UNL     1      33.709 -12.760 -23.729  0.00  0.00    +0.022 C 
ATOM     35  C   UNL     1      34.472 -14.236 -20.533  0.00  0.00    +0.210 C 
ATOM     36  C   UNL     1      33.529 -13.150 -25.005  0.00  0.00    +0.059 C 
ENDBRANCH  22  28
ENDBRANCH   1  22
TORSDOF 5
ENDMDL
MODEL 8
REMARK VINA RESULT:     -11.0      4.920     13.808
REMARK  Name = 25101874
REMARK  5 active torsions:
REMARK  status: ('A' for Active; 'I' for Inactive)
REMARK    1  A    between atoms: N_1  and  C_22
REMARK    2  A    between atoms: C_2  and  N_8
REMARK    3  A    between atoms: N_8  and  C_11
REMARK    4  A    between atoms: C_11  and  C_14
REMARK    5  A    between atoms: C_22  and  C_28
REMARK                            x       y       z     vdW  Elec       q    Type
REMARK                         _______ _______ _______ _____ _____    ______ ____
ROOT
ATOM      1  N   UNL     1      33.332 -12.015 -22.729  0.00  0.00    +0.388 N 
ATOM      2  C   UNL     1      34.136 -14.823 -22.909  0.00  0.00    -0.066 C 
ATOM      3  C   UNL     1      33.419 -12.683 -24.036  0.00  0.00    -0.079 C 
ATOM      4  C   UNL     1      32.961 -12.964 -21.670  0.00  0.00    -0.079 C 
ATOM      5  C   UNL     1      34.454 -13.811 -24.012  0.00  0.00    -0.044 C 
ATOM      6  C   UNL     1      33.981 -14.102 -21.567  0.00  0.00    -0.044 C 
ATOM      7  H   UNL     1      34.254 -11.641 -22.507  0.00  0.00    -0.080 HD
ENDROOT
BRANCH   2   8
ATOM      8  N   UNL     1      35.184 -15.839 -22.837  0.00  0.00    +0.389 N 
ATOM      9  H   UNL     1      35.591 -15.835 -21.902  0.00  0.00    -0.084 HD
ATOM     10  H   UNL     1      35.896 -15.622 -23.535  0.00  0.00    -0.084 HD
BRANCH   8  11
ATOM     11  C   UNL     1      34.643 -17.160 -23.118  0.00  0.00    -0.034 C 
BRANCH  11  14
ATOM     12  O   UNL     1      36.745 -20.919 -19.547  0.00  0.00    -0.474 OA
ATOM     13  N   UNL     1      36.491 -18.195 -21.922  0.00  0.00    -0.247 NA
ATOM     14  C   UNL     1      35.160 -18.194 -22.152  0.00  0.00    +0.037 C 
ATOM     15  C   UNL     1      34.268 -19.075 -21.561  0.00  0.00    +0.011 C 
ATOM     16  C   UNL     1      34.770 -20.029 -20.674  0.00  0.00    +0.015 C 
ATOM     17  C   UNL     1      33.845 -21.007 -20.009  0.00  0.00    +0.033 C 
ATOM     18  C   UNL     1      36.139 -20.038 -20.398  0.00  0.00    +0.154 C 
ATOM     19  C   UNL     1      34.639 -22.167 -19.422  0.00  0.00    +0.052 C 
ATOM     20  C   UNL     1      36.949 -19.120 -21.050  0.00  0.00    +0.135 C 
ATOM     21  C   UNL     1      35.849 -21.623 -18.678  0.00  0.00    +0.206 C 
ENDBRANCH  11  14
ENDBRANCH   8  11
ENDBRANCH   2   8
BRANCH   1  22
ATOM     22  C   UNL     1      32.377 -10.909 -22.783  0.00  0.00    -0.055 C 
BRANCH  22  28
ATOM     23  O   UNL     1      35.526 -10.013 -23.675  0.00  0.00    -0.273 OA
ATOM     24  O   UNL     1      30.127  -6.266 -21.504  0.00  0.00    -0.270 OA
ATOM     25  N   UNL     1      33.659  -8.793 -22.982  0.00  0.00    -0.261 N 
ATOM     26  N   UNL     1      31.918  -7.523 -22.277  0.00  0.00    -0.255 N 
ATOM     27  N   UNL     1      34.595  -6.708 -24.607  0.00  0.00    -0.262 NA
ATOM     28  C   UNL     1      32.921  -9.681 -22.062  0.00  0.00    +0.076 C 
ATOM     29  C   UNL     1      31.780  -8.776 -21.522  0.00  0.00    +0.113 C 
ATOM     30  C   UNL     1      33.024  -7.598 -23.069  0.00  0.00    +0.196 C 
ATOM     31  C   UNL     1      33.462  -6.608 -23.842  0.00  0.00    +0.092 C 
ATOM     32  C   UNL     1      34.824  -9.015 -23.671  0.00  0.00    +0.252 C 
ATOM     33  C   UNL     1      31.126  -6.393 -22.207  0.00  0.00    +0.251 C 
ATOM     34  C   UNL     1      32.693  -5.383 -23.847  0.00  0.00    +0.022 C 
ATOM     35  C   UNL     1      35.243  -7.834 -24.531  0.00  0.00    +0.210 C 
ATOM     36  C   UNL     1      31.588  -5.260 -23.088  0.00  0.00    +0.059 C 
ENDBRANCH  22  28
ENDBRANCH   1  22
TORSDOF 5
ENDMDL
MODEL 9
REMARK VINA RESULT:     -10.7      7.457     15.408
REMARK  Name = 25101874
REMARK  5 active torsions:
REMARK  status: ('A' for Active; 'I' for Inactive)
REMARK    1  A    between atoms: N_1  and  C_22
REMARK    2  A    between atoms: C_2  and  N_8
REMARK    3  A    between atoms: N_8  and  C_11
REMARK    4  A    between atoms: C_11  and  C_14
REMARK    5  A    between atoms: C_22  and  C_28
REMARK                            x       y       z     vdW  Elec       q    Type
REMARK                         _______ _______ _______ _____ _____    ______ ____
ROOT
ATOM      1  N   UNL     1      32.066  -9.383 -22.459  0.00  0.00    +0.388 N 
ATOM      2  C   UNL     1      32.403 -12.265 -22.083  0.00  0.00    -0.066 C 
ATOM      3  C   UNL     1      32.336 -10.257 -23.608  0.00  0.00    -0.079 C 
ATOM      4  C   UNL     1      31.307 -10.091 -21.418  0.00  0.00    -0.079 C 
ATOM      5  C   UNL     1      33.132 -11.495 -23.186  0.00  0.00    -0.044 C 
ATOM      6  C   UNL     1      32.069 -11.324 -20.923  0.00  0.00    -0.044 C 
ATOM      7  H   UNL     1      32.962  -9.105 -22.059  0.00  0.00    -0.080 HD
ENDROOT
BRANCH   2   8
ATOM      8  N   UNL     1      33.219 -13.388 -21.626  0.00  0.00    +0.389 N 
ATOM      9  H   UNL     1      32.634 -14.220 -21.555  0.00  0.00    -0.084 HD
ATOM     10  H   UNL     1      33.615 -13.154 -20.715  0.00  0.00    -0.084 HD
BRANCH   8  11
ATOM     11  C   UNL     1      34.308 -13.647 -22.555  0.00  0.00    -0.034 C 
BRANCH  11  14
ATOM     12  O   UNL     1      34.325 -18.922 -24.415  0.00  0.00    -0.474 OA
ATOM     13  N   UNL     1      33.854 -15.334 -24.246  0.00  0.00    -0.247 NA
ATOM     14  C   UNL     1      34.331 -15.084 -23.007  0.00  0.00    +0.037 C 
ATOM     15  C   UNL     1      34.825 -16.056 -22.152  0.00  0.00    +0.011 C 
ATOM     16  C   UNL     1      34.830 -17.381 -22.590  0.00  0.00    +0.015 C 
ATOM     17  C   UNL     1      35.354 -18.472 -21.701  0.00  0.00    +0.033 C 
ATOM     18  C   UNL     1      34.366 -17.668 -23.876  0.00  0.00    +0.154 C 
ATOM     19  C   UNL     1      34.901 -19.833 -22.213  0.00  0.00    +0.052 C 
ATOM     20  C   UNL     1      33.882 -16.623 -24.650  0.00  0.00    +0.135 C 
ATOM     21  C   UNL     1      35.109 -19.898 -23.719  0.00  0.00    +0.206 C 
ENDBRANCH  11  14
ENDBRANCH   8  11
ENDBRANCH   2   8
BRANCH   1  22
ATOM     22  C   UNL     1      31.350  -8.182 -22.887  0.00  0.00    -0.055 C 
BRANCH  22  28
ATOM     23  O   UNL     1      34.722  -8.282 -23.265  0.00  0.00    -0.273 OA
ATOM     24  O   UNL     1      30.227  -3.025 -23.517  0.00  0.00    -0.270 OA
ATOM     25  N   UNL     1      33.156  -6.553 -23.385  0.00  0.00    -0.261 N 
ATOM     26  N   UNL     1      31.723  -4.799 -23.479  0.00  0.00    -0.255 N 
ATOM     27  N   UNL     1      34.838  -5.353 -25.281  0.00  0.00    -0.262 NA
ATOM     28  C   UNL     1      32.082  -6.921 -22.441  0.00  0.00    +0.076 C 
ATOM     29  C   UNL     1      31.150  -5.679 -22.450  0.00  0.00    +0.113 C 
ATOM     30  C   UNL     1      32.876  -5.351 -23.947  0.00  0.00    +0.196 C 
ATOM     31  C   UNL     1      33.669  -4.780 -24.850  0.00  0.00    +0.092 C 
ATOM     32  C   UNL     1      34.312  -7.219 -23.703  0.00  0.00    +0.252 C 
ATOM     33  C   UNL     1      31.252  -3.574 -23.912  0.00  0.00    +0.251 C 
ATOM     34  C   UNL     1      33.256  -3.497 -25.375  0.00  0.00    +0.022 C 
ATOM     35  C   UNL     1      35.150  -6.497 -24.745  0.00  0.00    +0.210 C 
ATOM     36  C   UNL     1      32.121  -2.912 -24.951  0.00  0.00    +0.059 C 
ENDBRANCH  22  28
ENDBRANCH   1  22
TORSDOF 5
ENDMDL
