MODEL 1
REMARK VINA RESULT:     -12.2      0.000      0.000
REMARK  Name = 16040279
REMARK  5 active torsions:
REMARK  status: ('A' for Active; 'I' for Inactive)
REMARK    1  A    between atoms: N_2  and  C_21
REMARK    2  A    between atoms: C_3  and  C_11
REMARK    3  A    between atoms: C_4  and  N_17
REMARK    4  A    between atoms: C_21  and  C_22
REMARK    5  A    between atoms: C_22  and  C_25
REMARK                            x       y       z     vdW  Elec       q    Type
REMARK                         _______ _______ _______ _____ _____    ______ ____
ROOT
ATOM      1  O   UNL     1      33.431 -15.679 -25.843  0.00  0.00    -0.275 OA
ATOM      2  N   UNL     1      34.502 -15.947 -23.801  0.00  0.00    -0.281 N 
ATOM      3  C   UNL     1      33.009 -13.718 -22.771  0.00  0.00    +0.015 C 
ATOM      4  C   UNL     1      34.323 -14.126 -22.081  0.00  0.00    -0.041 C 
ATOM      5  C   UNL     1      34.594 -15.598 -22.384  0.00  0.00    +0.072 C 
ATOM      6  C   UNL     1      33.174 -13.910 -24.281  0.00  0.00    +0.088 C 
ATOM      7  C   UNL     1      33.685 -15.274 -24.705  0.00  0.00    +0.226 C 
ENDROOT
BRANCH   3  11
ATOM      8  F   UNL     1      31.279 -13.057 -20.620  0.00  0.00    -0.204 F 
ATOM      9  F   UNL     1      33.004  -8.936 -23.776  0.00  0.00    -0.202 F 
ATOM     10  F   UNL     1      31.333  -8.443 -21.669  0.00  0.00    -0.202 F 
ATOM     11  C   UNL     1      32.556 -12.298 -22.472  0.00  0.00    +0.006 C 
ATOM     12  C   UNL     1      31.705 -12.052 -21.398  0.00  0.00    +0.138 C 
ATOM     13  C   UNL     1      32.996 -11.251 -23.277  0.00  0.00    +0.030 C 
ATOM     14  C   UNL     1      32.583  -9.946 -23.005  0.00  0.00    +0.167 C 
ATOM     15  C   UNL     1      31.291 -10.747 -21.126  0.00  0.00    +0.061 C 
ATOM     16  C   UNL     1      31.730  -9.695 -21.930  0.00  0.00    +0.170 C 
ENDBRANCH   3  11
BRANCH   4  17
ATOM     17  N   UNL     1      34.257 -13.958 -20.628  0.00  0.00    +0.383 N 
ATOM     18  H   UNL     1      35.170 -14.159 -20.220  0.00  0.00    -0.089 HD
ATOM     19  H   UNL     1      33.563 -14.602 -20.243  0.00  0.00    -0.089 HD
ATOM     20  H   UNL     1      33.990 -12.999 -20.407  0.00  0.00    -0.089 HD
ENDBRANCH   4  17
BRANCH   2  21
ATOM     21  C   UNL     1      35.102 -17.218 -24.182  0.00  0.00    +0.098 C 
BRANCH  21  22
ATOM     22  C   UNL     1      34.350 -18.417 -23.608  0.00  0.00    +0.048 C 
BRANCH  22  25
ATOM     23  O   UNL     1      34.567 -21.472 -19.735  0.00  0.00    -0.435 OA
ATOM     24  O   UNL     1      36.784 -20.743 -19.137  0.00  0.00    -0.435 OA
ATOM     25  C   UNL     1      35.036 -19.023 -22.409  0.00  0.00    -0.017 C 
ATOM     26  C   UNL     1      34.375 -19.994 -21.669  0.00  0.00    +0.036 C 
ATOM     27  C   UNL     1      36.322 -18.590 -22.073  0.00  0.00    -0.001 C 
ATOM     28  C   UNL     1      35.042 -20.519 -20.581  0.00  0.00    +0.176 C 
ATOM     29  C   UNL     1      36.309 -20.101 -20.239  0.00  0.00    +0.176 C 
ATOM     30  C   UNL     1      36.976 -19.137 -20.966  0.00  0.00    +0.040 C 
ATOM     31  C   UNL     1      35.676 -21.610 -18.823  0.00  0.00    +0.429 C 
ENDBRANCH  22  25
ENDBRANCH  21  22
ENDBRANCH   2  21
TORSDOF 5
ENDMDL
MODEL 2
REMARK VINA RESULT:     -12.1      1.424      2.212
REMARK  Name = 16040279
REMARK  5 active torsions:
REMARK  status: ('A' for Active; 'I' for Inactive)
REMARK    1  A    between atoms: N_2  and  C_21
REMARK    2  A    between atoms: C_3  and  C_11
REMARK    3  A    between atoms: C_4  and  N_17
REMARK    4  A    between atoms: C_21  and  C_22
REMARK    5  A    between atoms: C_22  and  C_25
REMARK                            x       y       z     vdW  Elec       q    Type
REMARK                         _______ _______ _______ _____ _____    ______ ____
ROOT
ATOM      1  O   UNL     1      34.435 -17.336 -25.089  0.00  0.00    -0.275 OA
ATOM      2  N   UNL     1      35.040 -17.281 -22.849  0.00  0.00    -0.281 N 
ATOM      3  C   UNL     1      33.687 -14.759 -22.586  0.00  0.00    +0.015 C 
ATOM      4  C   UNL     1      34.775 -15.139 -21.565  0.00  0.00    -0.041 C 
ATOM      5  C   UNL     1      34.899 -16.661 -21.533  0.00  0.00    +0.072 C 
ATOM      6  C   UNL     1      34.117 -15.270 -23.964  0.00  0.00    +0.088 C 
ATOM      7  C   UNL     1      34.513 -16.733 -24.015  0.00  0.00    +0.226 C 
ENDROOT
BRANCH   3  11
ATOM      8  F   UNL     1      31.501 -13.560 -21.231  0.00  0.00    -0.204 F 
ATOM      9  F   UNL     1      34.696 -10.258 -24.197  0.00  0.00    -0.202 F 
ATOM     10  F   UNL     1      32.553  -9.237 -22.839  0.00  0.00    -0.202 F 
ATOM     11  C   UNL     1      33.379 -13.272 -22.653  0.00  0.00    +0.006 C 
ATOM     12  C   UNL     1      32.288 -12.757 -21.960  0.00  0.00    +0.138 C 
ATOM     13  C   UNL     1      34.194 -12.434 -23.408  0.00  0.00    +0.030 C 
ATOM     14  C   UNL     1      33.915 -11.068 -23.472  0.00  0.00    +0.167 C 
ATOM     15  C   UNL     1      32.008 -11.392 -22.023  0.00  0.00    +0.061 C 
ATOM     16  C   UNL     1      32.822 -10.547 -22.779  0.00  0.00    +0.170 C 
ENDBRANCH   3  11
BRANCH   4  17
ATOM     17  N   UNL     1      34.448 -14.674 -20.215  0.00  0.00    +0.383 N 
ATOM     18  H   UNL     1      33.654 -14.036 -20.258  0.00  0.00    -0.089 HD
ATOM     19  H   UNL     1      35.254 -14.188 -19.819  0.00  0.00    -0.089 HD
ATOM     20  H   UNL     1      34.211 -15.474 -19.627  0.00  0.00    -0.089 HD
ENDBRANCH   4  17
BRANCH   2  21
ATOM     21  C   UNL     1      35.527 -18.655 -22.856  0.00  0.00    +0.098 C 
BRANCH  21  22
ATOM     22  C   UNL     1      36.090 -19.083 -21.502  0.00  0.00    +0.048 C 
BRANCH  22  25
ATOM     23  O   UNL     1      35.140 -22.756 -18.342  0.00  0.00    -0.435 OA
ATOM     24  O   UNL     1      32.757 -22.535 -18.622  0.00  0.00    -0.435 OA
ATOM     25  C   UNL     1      35.162 -19.997 -20.741  0.00  0.00    -0.017 C 
ATOM     26  C   UNL     1      35.701 -20.952 -19.889  0.00  0.00    +0.036 C 
ATOM     27  C   UNL     1      33.782 -19.858 -20.914  0.00  0.00    -0.001 C 
ATOM     28  C   UNL     1      34.812 -21.765 -19.215  0.00  0.00    +0.176 C 
ATOM     29  C   UNL     1      33.451 -21.639 -19.376  0.00  0.00    +0.176 C 
ATOM     30  C   UNL     1      32.904 -20.694 -20.219  0.00  0.00    +0.040 C 
ATOM     31  C   UNL     1      33.833 -23.239 -17.970  0.00  0.00    +0.429 C 
ENDBRANCH  22  25
ENDBRANCH  21  22
ENDBRANCH   2  21
TORSDOF 5
ENDMDL
MODEL 3
REMARK VINA RESULT:     -11.9      4.230      7.278
REMARK  Name = 16040279
REMARK  5 active torsions:
REMARK  status: ('A' for Active; 'I' for Inactive)
REMARK    1  A    between atoms: N_2  and  C_21
REMARK    2  A    between atoms: C_3  and  C_11
REMARK    3  A    between atoms: C_4  and  N_17
REMARK    4  A    between atoms: C_21  and  C_22
REMARK    5  A    between atoms: C_22  and  C_25
REMARK                            x       y       z     vdW  Elec       q    Type
REMARK                         _______ _______ _______ _____ _____    ______ ____
ROOT
ATOM      1  O   UNL     1      32.972 -21.408 -19.356  0.00  0.00    -0.275 OA
ATOM      2  N   UNL     1      35.289 -21.312 -19.444  0.00  0.00    -0.281 N 
ATOM      3  C   UNL     1      35.091 -18.922 -21.027  0.00  0.00    +0.015 C 
ATOM      4  C   UNL     1      36.385 -19.753 -21.080  0.00  0.00    -0.041 C 
ATOM      5  C   UNL     1      36.495 -20.562 -19.789  0.00  0.00    +0.072 C 
ATOM      6  C   UNL     1      33.902 -19.881 -20.918  0.00  0.00    +0.088 C 
ATOM      7  C   UNL     1      34.007 -20.913 -19.811  0.00  0.00    +0.226 C 
ENDROOT
BRANCH   3  11
ATOM      8  F   UNL     1      34.529 -19.827 -23.658  0.00  0.00    -0.204 F 
ATOM      9  F   UNL     1      34.910 -14.421 -22.921  0.00  0.00    -0.202 F 
ATOM     10  F   UNL     1      34.374 -15.431 -25.404  0.00  0.00    -0.202 F 
ATOM     11  C   UNL     1      34.897 -17.984 -22.208  0.00  0.00    +0.006 C 
ATOM     12  C   UNL     1      34.624 -18.503 -23.470  0.00  0.00    +0.138 C 
ATOM     13  C   UNL     1      34.995 -16.609 -22.018  0.00  0.00    +0.030 C 
ATOM     14  C   UNL     1      34.818 -15.744 -23.099  0.00  0.00    +0.167 C 
ATOM     15  C   UNL     1      34.448 -17.640 -24.552  0.00  0.00    +0.061 C 
ATOM     16  C   UNL     1      34.544 -16.260 -24.366  0.00  0.00    +0.170 C 
ENDBRANCH   3  11
BRANCH   4  17
ATOM     17  N   UNL     1      37.576 -18.910 -21.200  0.00  0.00    +0.383 N 
ATOM     18  H   UNL     1      37.919 -18.939 -22.160  0.00  0.00    -0.089 HD
ATOM     19  H   UNL     1      38.302 -19.255 -20.569  0.00  0.00    -0.089 HD
ATOM     20  H   UNL     1      37.340 -17.949 -20.952  0.00  0.00    -0.089 HD
ENDBRANCH   4  17
BRANCH   2  21
ATOM     21  C   UNL     1      35.459 -22.367 -18.454  0.00  0.00    +0.098 C 
BRANCH  21  22
ATOM     22  C   UNL     1      36.571 -22.059 -17.453  0.00  0.00    +0.048 C 
BRANCH  22  25
ATOM     23  O   UNL     1      38.234 -24.151 -13.302  0.00  0.00    -0.435 OA
ATOM     24  O   UNL     1      36.009 -24.656 -12.527  0.00  0.00    -0.435 OA
ATOM     25  C   UNL     1      36.382 -22.758 -16.130  0.00  0.00    -0.017 C 
ATOM     26  C   UNL     1      37.499 -23.098 -15.379  0.00  0.00    +0.036 C 
ATOM     27  C   UNL     1      35.086 -23.045 -15.694  0.00  0.00    -0.001 C 
ATOM     28  C   UNL     1      37.277 -23.737 -14.176  0.00  0.00    +0.176 C 
ATOM     29  C   UNL     1      36.005 -24.026 -13.734  0.00  0.00    +0.176 C 
ATOM     30  C   UNL     1      34.888 -23.692 -14.471  0.00  0.00    +0.040 C 
ATOM     31  C   UNL     1      37.423 -24.731 -12.260  0.00  0.00    +0.429 C 
ENDBRANCH  22  25
ENDBRANCH  21  22
ENDBRANCH   2  21
TORSDOF 5
ENDMDL
MODEL 4
REMARK VINA RESULT:     -11.6      4.944      8.373
REMARK  Name = 16040279
REMARK  5 active torsions:
REMARK  status: ('A' for Active; 'I' for Inactive)
REMARK    1  A    between atoms: N_2  and  C_21
REMARK    2  A    between atoms: C_3  and  C_11
REMARK    3  A    between atoms: C_4  and  N_17
REMARK    4  A    between atoms: C_21  and  C_22
REMARK    5  A    between atoms: C_22  and  C_25
REMARK                            x       y       z     vdW  Elec       q    Type
REMARK                         _______ _______ _______ _____ _____    ______ ____
ROOT
ATOM      1  O   UNL     1      36.814 -22.387 -18.255  0.00  0.00    -0.275 OA
ATOM      2  N   UNL     1      34.503 -22.437 -18.470  0.00  0.00    -0.281 N 
ATOM      3  C   UNL     1      34.706 -20.589 -20.661  0.00  0.00    +0.015 C 
ATOM      4  C   UNL     1      33.373 -20.712 -19.901  0.00  0.00    -0.041 C 
ATOM      5  C   UNL     1      33.314 -22.089 -19.244  0.00  0.00    +0.072 C 
ATOM      6  C   UNL     1      35.851 -20.728 -19.654  0.00  0.00    +0.088 C 
ATOM      7  C   UNL     1      35.775 -21.947 -18.755  0.00  0.00    +0.226 C 
ENDROOT
BRANCH   3  11
ATOM      8  F   UNL     1      34.861 -20.516 -23.494  0.00  0.00    -0.204 F 
ATOM      9  F   UNL     1      35.146 -15.727 -20.867  0.00  0.00    -0.202 F 
ATOM     10  F   UNL     1      35.283 -15.804 -23.597  0.00  0.00    -0.202 F 
ATOM     11  C   UNL     1      34.861 -19.301 -21.454  0.00  0.00    +0.006 C 
ATOM     12  C   UNL     1      34.931 -19.346 -22.843  0.00  0.00    +0.138 C 
ATOM     13  C   UNL     1      34.934 -18.084 -20.783  0.00  0.00    +0.030 C 
ATOM     14  C   UNL     1      35.076 -16.900 -21.508  0.00  0.00    +0.167 C 
ATOM     15  C   UNL     1      35.074 -18.163 -23.569  0.00  0.00    +0.061 C 
ATOM     16  C   UNL     1      35.146 -16.940 -22.900  0.00  0.00    +0.170 C 
ENDBRANCH   3  11
BRANCH   4  17
ATOM     17  N   UNL     1      32.218 -20.576 -20.792  0.00  0.00    +0.383 N 
ATOM     18  H   UNL     1      31.857 -19.623 -20.737  0.00  0.00    -0.089 HD
ATOM     19  H   UNL     1      31.489 -21.232 -20.507  0.00  0.00    -0.089 HD
ATOM     20  H   UNL     1      32.501 -20.778 -21.751  0.00  0.00    -0.089 HD
ENDBRANCH   4  17
BRANCH   2  21
ATOM     21  C   UNL     1      34.353 -23.547 -17.538  0.00  0.00    +0.098 C 
BRANCH  21  22
ATOM     22  C   UNL     1      33.963 -23.086 -16.135  0.00  0.00    +0.048 C 
BRANCH  22  25
ATOM     23  O   UNL     1      29.069 -22.842 -16.742  0.00  0.00    -0.435 OA
ATOM     24  O   UNL     1      28.649 -24.325 -14.889  0.00  0.00    -0.435 OA
ATOM     25  C   UNL     1      32.542 -23.441 -15.772  0.00  0.00    -0.017 C 
ATOM     26  C   UNL     1      31.499 -22.906 -16.515  0.00  0.00    +0.036 C 
ATOM     27  C   UNL     1      32.314 -24.301 -14.694  0.00  0.00    -0.001 C 
ATOM     28  C   UNL     1      30.218 -23.260 -16.145  0.00  0.00    +0.176 C 
ATOM     29  C   UNL     1      29.978 -24.106 -15.085  0.00  0.00    +0.176 C 
ATOM     30  C   UNL     1      31.006 -24.644 -14.340  0.00  0.00    +0.040 C 
ATOM     31  C   UNL     1      28.079 -23.521 -15.942  0.00  0.00    +0.429 C 
ENDBRANCH  22  25
ENDBRANCH  21  22
ENDBRANCH   2  21
TORSDOF 5
ENDMDL
MODEL 5
REMARK VINA RESULT:     -11.5      4.473      7.608
REMARK  Name = 16040279
REMARK  5 active torsions:
REMARK  status: ('A' for Active; 'I' for Inactive)
REMARK    1  A    between atoms: N_2  and  C_21
REMARK    2  A    between atoms: C_3  and  C_11
REMARK    3  A    between atoms: C_4  and  N_17
REMARK    4  A    between atoms: C_21  and  C_22
REMARK    5  A    between atoms: C_22  and  C_25
REMARK                            x       y       z     vdW  Elec       q    Type
REMARK                         _______ _______ _______ _____ _____    ______ ____
ROOT
ATOM      1  O   UNL     1      32.644 -21.837 -19.296  0.00  0.00    -0.275 OA
ATOM      2  N   UNL     1      34.962 -21.800 -19.182  0.00  0.00    -0.281 N 
ATOM      3  C   UNL     1      34.957 -19.348 -20.680  0.00  0.00    +0.015 C 
ATOM      4  C   UNL     1      36.231 -20.211 -20.655  0.00  0.00    -0.041 C 
ATOM      5  C   UNL     1      36.211 -21.070 -19.393  0.00  0.00    +0.072 C 
ATOM      6  C   UNL     1      33.741 -20.278 -20.710  0.00  0.00    +0.088 C 
ATOM      7  C   UNL     1      33.726 -21.353 -19.641  0.00  0.00    +0.226 C 
ENDROOT
BRANCH   3  11
ATOM      8  F   UNL     1      34.678 -20.141 -23.390  0.00  0.00    -0.204 F 
ATOM      9  F   UNL     1      34.970 -14.772 -22.393  0.00  0.00    -0.202 F 
ATOM     10  F   UNL     1      34.701 -15.677 -24.959  0.00  0.00    -0.202 F 
ATOM     11  C   UNL     1      34.888 -18.361 -21.834  0.00  0.00    +0.006 C 
ATOM     12  C   UNL     1      34.751 -18.827 -23.139  0.00  0.00    +0.138 C 
ATOM     13  C   UNL     1      34.963 -16.995 -21.578  0.00  0.00    +0.030 C 
ATOM     14  C   UNL     1      34.899 -16.086 -22.635  0.00  0.00    +0.167 C 
ATOM     15  C   UNL     1      34.688 -17.919 -24.196  0.00  0.00    +0.061 C 
ATOM     16  C   UNL     1      34.762 -16.549 -23.944  0.00  0.00    +0.170 C 
ENDBRANCH   3  11
BRANCH   4  17
ATOM     17  N   UNL     1      37.448 -19.396 -20.639  0.00  0.00    +0.383 N 
ATOM     18  H   UNL     1      37.324 -18.612 -19.997  0.00  0.00    -0.089 HD
ATOM     19  H   UNL     1      37.631 -19.040 -21.579  0.00  0.00    -0.089 HD
ATOM     20  H   UNL     1      38.236 -19.966 -20.332  0.00  0.00    -0.089 HD
ENDBRANCH   4  17
BRANCH   2  21
ATOM     21  C   UNL     1      35.021 -22.896 -18.224  0.00  0.00    +0.098 C 
BRANCH  21  22
ATOM     22  C   UNL     1      35.547 -22.454 -16.859  0.00  0.00    +0.048 C 
BRANCH  22  25
ATOM     23  O   UNL     1      31.612 -24.474 -14.666  0.00  0.00    -0.435 OA
ATOM     24  O   UNL     1      32.850 -24.995 -12.666  0.00  0.00    -0.435 OA
ATOM     25  C   UNL     1      34.852 -23.139 -15.710  0.00  0.00    -0.017 C 
ATOM     26  C   UNL     1      33.506 -23.459 -15.826  0.00  0.00    +0.036 C 
ATOM     27  C   UNL     1      35.582 -23.435 -14.555  0.00  0.00    -0.001 C 
ATOM     28  C   UNL     1      32.913 -24.084 -14.748  0.00  0.00    +0.176 C 
ATOM     29  C   UNL     1      33.620 -24.381 -13.605  0.00  0.00    +0.176 C 
ATOM     30  C   UNL     1      34.958 -24.069 -13.477  0.00  0.00    +0.040 C 
ATOM     31  C   UNL     1      31.579 -25.051 -13.345  0.00  0.00    +0.429 C 
ENDBRANCH  22  25
ENDBRANCH  21  22
ENDBRANCH   2  21
TORSDOF 5
ENDMDL
MODEL 6
REMARK VINA RESULT:     -11.2      4.198      8.860
REMARK  Name = 16040279
REMARK  5 active torsions:
REMARK  status: ('A' for Active; 'I' for Inactive)
REMARK    1  A    between atoms: N_2  and  C_21
REMARK    2  A    between atoms: C_3  and  C_11
REMARK    3  A    between atoms: C_4  and  N_17
REMARK    4  A    between atoms: C_21  and  C_22
REMARK    5  A    between atoms: C_22  and  C_25
REMARK                            x       y       z     vdW  Elec       q    Type
REMARK                         _______ _______ _______ _____ _____    ______ ____
ROOT
ATOM      1  O   UNL     1      34.705 -16.339 -25.253  0.00  0.00    -0.275 OA
ATOM      2  N   UNL     1      34.470 -15.153 -23.273  0.00  0.00    -0.281 N 
ATOM      3  C   UNL     1      35.372 -17.466 -21.826  0.00  0.00    +0.015 C 
ATOM      4  C   UNL     1      34.550 -16.393 -21.091  0.00  0.00    -0.041 C 
ATOM      5  C   UNL     1      34.707 -15.067 -21.833  0.00  0.00    +0.072 C 
ATOM      6  C   UNL     1      34.825 -17.605 -23.249  0.00  0.00    +0.088 C 
ATOM      7  C   UNL     1      34.694 -16.306 -24.020  0.00  0.00    +0.226 C 
ENDROOT
BRANCH   3  11
ATOM      8  F   UNL     1      37.764 -18.761 -21.014  0.00  0.00    -0.204 F 
ATOM      9  F   UNL     1      33.062 -21.368 -20.006  0.00  0.00    -0.202 F 
ATOM     10  F   UNL     1      35.441 -22.501 -19.278  0.00  0.00    -0.202 F 
ATOM     11  C   UNL     1      35.394 -18.822 -21.140  0.00  0.00    +0.006 C 
ATOM     12  C   UNL     1      36.608 -19.394 -20.771  0.00  0.00    +0.138 C 
ATOM     13  C   UNL     1      34.196 -19.483 -20.885  0.00  0.00    +0.030 C 
ATOM     14  C   UNL     1      34.212 -20.728 -20.254  0.00  0.00    +0.167 C 
ATOM     15  C   UNL     1      36.624 -20.640 -20.141  0.00  0.00    +0.061 C 
ATOM     16  C   UNL     1      35.426 -21.306 -19.883  0.00  0.00    +0.170 C 
ENDBRANCH   3  11
BRANCH   4  17
ATOM     17  N   UNL     1      35.001 -16.204 -19.710  0.00  0.00    +0.383 N 
ATOM     18  H   UNL     1      36.013 -16.321 -19.664  0.00  0.00    -0.089 HD
ATOM     19  H   UNL     1      34.551 -16.896 -19.108  0.00  0.00    -0.089 HD
ATOM     20  H   UNL     1      34.752 -15.266 -19.395  0.00  0.00    -0.089 HD
ENDBRANCH   4  17
BRANCH   2  21
ATOM     21  C   UNL     1      34.242 -13.886 -23.955  0.00  0.00    +0.098 C 
BRANCH  21  22
ATOM     22  C   UNL     1      32.769 -13.479 -23.959  0.00  0.00    +0.048 C 
BRANCH  22  25
ATOM     23  O   UNL     1      32.596  -8.786 -22.434  0.00  0.00    -0.435 OA
ATOM     24  O   UNL     1      31.647  -9.392 -20.304  0.00  0.00    -0.435 OA
ATOM     25  C   UNL     1      32.454 -12.402 -22.950  0.00  0.00    -0.017 C 
ATOM     26  C   UNL     1      32.717 -11.077 -23.269  0.00  0.00    +0.036 C 
ATOM     27  C   UNL     1      31.904 -12.768 -21.718  0.00  0.00    -0.001 C 
ATOM     28  C   UNL     1      32.412 -10.129 -22.314  0.00  0.00    +0.176 C 
ATOM     29  C   UNL     1      31.870 -10.475 -21.096  0.00  0.00    +0.176 C 
ATOM     30  C   UNL     1      31.604 -11.788 -20.768  0.00  0.00    +0.040 C 
ATOM     31  C   UNL     1      32.108  -8.326 -21.157  0.00  0.00    +0.429 C 
ENDBRANCH  22  25
ENDBRANCH  21  22
ENDBRANCH   2  21
TORSDOF 5
ENDMDL
MODEL 7
REMARK VINA RESULT:     -11.2      4.805      8.163
REMARK  Name = 16040279
REMARK  5 active torsions:
REMARK  status: ('A' for Active; 'I' for Inactive)
REMARK    1  A    between atoms: N_2  and  C_21
REMARK    2  A    between atoms: C_3  and  C_11
REMARK    3  A    between atoms: C_4  and  N_17
REMARK    4  A    between atoms: C_21  and  C_22
REMARK    5  A    between atoms: C_22  and  C_25
REMARK                            x       y       z     vdW  Elec       q    Type
REMARK                         _______ _______ _______ _____ _____    ______ ____
ROOT
ATOM      1  O   UNL     1      36.859 -22.093 -18.534  0.00  0.00    -0.275 OA
ATOM      2  N   UNL     1      34.549 -22.209 -18.723  0.00  0.00    -0.281 N 
ATOM      3  C   UNL     1      34.674 -20.342 -20.904  0.00  0.00    +0.015 C 
ATOM      4  C   UNL     1      33.353 -20.508 -20.132  0.00  0.00    -0.041 C 
ATOM      5  C   UNL     1      33.341 -21.891 -19.483  0.00  0.00    +0.072 C 
ATOM      6  C   UNL     1      35.834 -20.455 -19.911  0.00  0.00    +0.088 C 
ATOM      7  C   UNL     1      35.802 -21.681 -19.019  0.00  0.00    +0.226 C 
ENDROOT
BRANCH   3  11
ATOM      8  F   UNL     1      34.662 -20.237 -23.741  0.00  0.00    -0.204 F 
ATOM      9  F   UNL     1      35.105 -15.478 -21.082  0.00  0.00    -0.202 F 
ATOM     10  F   UNL     1      35.081 -15.525 -23.816  0.00  0.00    -0.202 F 
ATOM     11  C   UNL     1      34.783 -19.046 -21.691  0.00  0.00    +0.006 C 
ATOM     12  C   UNL     1      34.771 -19.075 -23.082  0.00  0.00    +0.138 C 
ATOM     13  C   UNL     1      34.897 -17.836 -21.012  0.00  0.00    +0.030 C 
ATOM     14  C   UNL     1      34.997 -16.644 -21.731  0.00  0.00    +0.167 C 
ATOM     15  C   UNL     1      34.872 -17.883 -23.802  0.00  0.00    +0.061 C 
ATOM     16  C   UNL     1      34.985 -16.668 -23.125  0.00  0.00    +0.170 C 
ENDBRANCH   3  11
BRANCH   4  17
ATOM     17  N   UNL     1      32.185 -20.400 -21.009  0.00  0.00    +0.383 N 
ATOM     18  H   UNL     1      32.458 -19.954 -21.884  0.00  0.00    -0.089 HD
ATOM     19  H   UNL     1      31.466 -19.838 -20.550  0.00  0.00    -0.089 HD
ATOM     20  H   UNL     1      31.816 -21.332 -21.202  0.00  0.00    -0.089 HD
ENDBRANCH   4  17
BRANCH   2  21
ATOM     21  C   UNL     1      34.440 -23.329 -17.797  0.00  0.00    +0.098 C 
BRANCH  21  22
ATOM     22  C   UNL     1      33.226 -23.213 -16.878  0.00  0.00    +0.048 C 
BRANCH  22  25
ATOM     23  O   UNL     1      36.212 -24.816 -13.286  0.00  0.00    -0.435 OA
ATOM     24  O   UNL     1      34.433 -24.844 -11.662  0.00  0.00    -0.435 OA
ATOM     25  C   UNL     1      33.516 -23.647 -15.462  0.00  0.00    -0.017 C 
ATOM     26  C   UNL     1      34.808 -24.023 -15.121  0.00  0.00    +0.036 C 
ATOM     27  C   UNL     1      32.474 -23.660 -14.530  0.00  0.00    -0.001 C 
ATOM     28  C   UNL     1      35.024 -24.413 -13.814  0.00  0.00    +0.176 C 
ATOM     29  C   UNL     1      34.007 -24.430 -12.886  0.00  0.00    +0.176 C 
ATOM     30  C   UNL     1      32.720 -24.058 -13.214  0.00  0.00    +0.040 C 
ATOM     31  C   UNL     1      35.829 -25.087 -11.923  0.00  0.00    +0.429 C 
ENDBRANCH  22  25
ENDBRANCH  21  22
ENDBRANCH   2  21
TORSDOF 5
ENDMDL
MODEL 8
REMARK VINA RESULT:     -11.2      4.892      8.303
REMARK  Name = 16040279
REMARK  5 active torsions:
REMARK  status: ('A' for Active; 'I' for Inactive)
REMARK    1  A    between atoms: N_2  and  C_21
REMARK    2  A    between atoms: C_3  and  C_11
REMARK    3  A    between atoms: C_4  and  N_17
REMARK    4  A    between atoms: C_21  and  C_22
REMARK    5  A    between atoms: C_22  and  C_25
REMARK                            x       y       z     vdW  Elec       q    Type
REMARK                         _______ _______ _______ _____ _____    ______ ____
ROOT
ATOM      1  O   UNL     1      37.032 -22.130 -18.308  0.00  0.00    -0.275 OA
ATOM      2  N   UNL     1      34.718 -22.258 -18.425  0.00  0.00    -0.281 N 
ATOM      3  C   UNL     1      34.776 -20.513 -20.707  0.00  0.00    +0.015 C 
ATOM      4  C   UNL     1      33.479 -20.637 -19.889  0.00  0.00    -0.041 C 
ATOM      5  C   UNL     1      33.488 -21.982 -19.166  0.00  0.00    +0.072 C 
ATOM      6  C   UNL     1      35.964 -20.570 -19.743  0.00  0.00    +0.088 C 
ATOM      7  C   UNL     1      35.961 -21.745 -18.785  0.00  0.00    +0.226 C 
ENDROOT
BRANCH   3  11
ATOM      8  F   UNL     1      34.807 -20.571 -23.545  0.00  0.00    -0.204 F 
ATOM      9  F   UNL     1      35.067 -15.656 -21.159  0.00  0.00    -0.202 F 
ATOM     10  F   UNL     1      35.088 -15.860 -23.886  0.00  0.00    -0.202 F 
ATOM     11  C   UNL     1      34.860 -19.261 -21.566  0.00  0.00    +0.006 C 
ATOM     12  C   UNL     1      34.871 -19.370 -22.953  0.00  0.00    +0.138 C 
ATOM     13  C   UNL     1      34.927 -18.011 -20.956  0.00  0.00    +0.030 C 
ATOM     14  C   UNL     1      35.004 -16.860 -21.741  0.00  0.00    +0.167 C 
ATOM     15  C   UNL     1      34.949 -18.219 -23.739  0.00  0.00    +0.061 C 
ATOM     16  C   UNL     1      35.014 -16.964 -23.132  0.00  0.00    +0.170 C 
ENDBRANCH   3  11
BRANCH   4  17
ATOM     17  N   UNL     1      32.286 -20.578 -20.737  0.00  0.00    +0.383 N 
ATOM     18  H   UNL     1      31.496 -20.993 -20.243  0.00  0.00    -0.089 HD
ATOM     19  H   UNL     1      32.457 -21.095 -21.601  0.00  0.00    -0.089 HD
ATOM     20  H   UNL     1      32.074 -19.605 -20.959  0.00  0.00    -0.089 HD
ENDBRANCH   4  17
BRANCH   2  21
ATOM     21  C   UNL     1      34.639 -23.326 -17.437  0.00  0.00    +0.098 C 
BRANCH  21  22
ATOM     22  C   UNL     1      35.096 -22.876 -16.051  0.00  0.00    +0.048 C 
BRANCH  22  25
ATOM     23  O   UNL     1      39.372 -24.569 -14.254  0.00  0.00    -0.435 OA
ATOM     24  O   UNL     1      38.366 -26.611 -13.466  0.00  0.00    -0.435 OA
ATOM     25  C   UNL     1      35.948 -23.905 -15.349  0.00  0.00    -0.017 C 
ATOM     26  C   UNL     1      37.301 -23.654 -15.170  0.00  0.00    +0.036 C 
ATOM     27  C   UNL     1      35.351 -25.086 -14.899  0.00  0.00    -0.001 C 
ATOM     28  C   UNL     1      38.040 -24.625 -14.523  0.00  0.00    +0.176 C 
ATOM     29  C   UNL     1      37.465 -25.792 -14.074  0.00  0.00    +0.176 C 
ATOM     30  C   UNL     1      36.121 -26.052 -14.246  0.00  0.00    +0.040 C 
ATOM     31  C   UNL     1      39.571 -25.830 -13.584  0.00  0.00    +0.429 C 
ENDBRANCH  22  25
ENDBRANCH  21  22
ENDBRANCH   2  21
TORSDOF 5
ENDMDL
MODEL 9
REMARK VINA RESULT:     -11.1      4.256      9.111
REMARK  Name = 16040279
REMARK  5 active torsions:
REMARK  status: ('A' for Active; 'I' for Inactive)
REMARK    1  A    between atoms: N_2  and  C_21
REMARK    2  A    between atoms: C_3  and  C_11
REMARK    3  A    between atoms: C_4  and  N_17
REMARK    4  A    between atoms: C_21  and  C_22
REMARK    5  A    between atoms: C_22  and  C_25
REMARK                            x       y       z     vdW  Elec       q    Type
REMARK                         _______ _______ _______ _____ _____    ______ ____
ROOT
ATOM      1  O   UNL     1      34.808 -14.943 -21.049  0.00  0.00    -0.275 OA
ATOM      2  N   UNL     1      34.887 -16.154 -23.027  0.00  0.00    -0.281 N 
ATOM      3  C   UNL     1      34.532 -18.571 -21.514  0.00  0.00    +0.015 C 
ATOM      4  C   UNL     1      35.154 -18.649 -22.920  0.00  0.00    -0.041 C 
ATOM      5  C   UNL     1      34.701 -17.429 -23.719  0.00  0.00    +0.072 C 
ATOM      6  C   UNL     1      35.033 -17.295 -20.832  0.00  0.00    +0.088 C 
ATOM      7  C   UNL     1      34.866 -16.024 -21.641  0.00  0.00    +0.226 C 
ENDROOT
BRANCH   3  11
ATOM      8  F   UNL     1      37.148 -19.365 -20.751  0.00  0.00    -0.204 F 
ATOM      9  F   UNL     1      32.994 -22.405 -18.903  0.00  0.00    -0.202 F 
ATOM     10  F   UNL     1      35.567 -23.055 -18.246  0.00  0.00    -0.202 F 
ATOM     11  C   UNL     1      34.813 -19.779 -20.634  0.00  0.00    +0.006 C 
ATOM     12  C   UNL     1      36.125 -20.105 -20.302  0.00  0.00    +0.138 C 
ATOM     13  C   UNL     1      33.754 -20.551 -20.165  0.00  0.00    +0.030 C 
ATOM     14  C   UNL     1      34.009 -21.659 -19.357  0.00  0.00    +0.167 C 
ATOM     15  C   UNL     1      36.380 -21.214 -19.495  0.00  0.00    +0.061 C 
ATOM     16  C   UNL     1      35.322 -21.991 -19.022  0.00  0.00    +0.170 C 
ENDBRANCH   3  11
BRANCH   4  17
ATOM     17  N   UNL     1      34.735 -19.854 -23.640  0.00  0.00    +0.383 N 
ATOM     18  H   UNL     1      35.534 -20.478 -23.753  0.00  0.00    -0.089 HD
ATOM     19  H   UNL     1      34.376 -19.592 -24.560  0.00  0.00    -0.089 HD
ATOM     20  H   UNL     1      34.003 -20.330 -23.112  0.00  0.00    -0.089 HD
ENDBRANCH   4  17
BRANCH   2  21
ATOM     21  C   UNL     1      34.826 -14.963 -23.863  0.00  0.00    +0.098 C 
BRANCH  21  22
ATOM     22  C   UNL     1      33.392 -14.538 -24.174  0.00  0.00    +0.048 C 
BRANCH  22  25
ATOM     23  O   UNL     1      33.262  -9.672 -23.348  0.00  0.00    -0.435 OA
ATOM     24  O   UNL     1      31.860  -9.923 -21.404  0.00  0.00    -0.435 OA
ATOM     25  C   UNL     1      32.960 -13.315 -23.404  0.00  0.00    -0.017 C 
ATOM     26  C   UNL     1      33.379 -12.063 -23.831  0.00  0.00    +0.036 C 
ATOM     27  C   UNL     1      32.147 -13.475 -22.278  0.00  0.00    -0.001 C 
ATOM     28  C   UNL     1      32.959 -10.974 -23.094  0.00  0.00    +0.176 C 
ATOM     29  C   UNL     1      32.159 -11.117 -21.983  0.00  0.00    +0.176 C 
ATOM     30  C   UNL     1      31.735 -12.357 -21.549  0.00  0.00    +0.040 C 
ATOM     31  C   UNL     1      32.562  -9.012 -22.273  0.00  0.00    +0.429 C 
ENDBRANCH  22  25
ENDBRANCH  21  22
ENDBRANCH   2  21
TORSDOF 5
ENDMDL
