MODEL 1
REMARK VINA RESULT:     -12.5      0.000      0.000
REMARK  Name = 23629645
REMARK  6 active torsions:
REMARK  status: ('A' for Active; 'I' for Inactive)
REMARK    1  A    between atoms: N_1  and  C_6
REMARK    2  A    between atoms: N_1  and  C_21
REMARK    3  A    between atoms: C_3  and  C_16
REMARK    4  A    between atoms: C_11  and  C_18
REMARK    5  A    between atoms: C_18  and  O_19
REMARK    6  A    between atoms: C_21  and  C_28
REMARK                            x       y       z     vdW  Elec       q    Type
REMARK                         _______ _______ _______ _____ _____    ______ ____
ROOT
ATOM      1  N   UNL     1      34.943 -19.111 -22.368  0.00  0.00    -0.300 N 
ATOM      2  C   UNL     1      34.366 -19.341 -23.677  0.00  0.00    +0.113 C 
ENDROOT
BRANCH   1   6
ATOM      3  C   UNL     1      34.001 -21.643 -19.157  0.00  0.00    +0.054 C 
ATOM      4  C   UNL     1      35.328 -21.490 -19.553  0.00  0.00    +0.006 C 
ATOM      5  C   UNL     1      32.986 -20.960 -19.821  0.00  0.00    +0.006 C 
ATOM      6  C   UNL     1      34.626 -19.963 -21.288  0.00  0.00    +0.048 C 
ATOM      7  C   UNL     1      35.641 -20.648 -20.620  0.00  0.00    +0.015 C 
ATOM      8  C   UNL     1      33.299 -20.118 -20.889  0.00  0.00    +0.015 C 
BRANCH   3  16
ATOM      9  O   UNL     1      32.487 -22.834 -17.913  0.00  0.00    -0.270 OA
ATOM     10  N   UNL     1      34.709 -22.946 -17.196  0.00  0.00    -0.276 N 
ATOM     11  C   UNL     1      36.338 -22.758 -14.803  0.00  0.00    +0.102 C 
ATOM     12  C   UNL     1      34.881 -23.232 -14.763  0.00  0.00    +0.033 C 
ATOM     13  C   UNL     1      36.645 -21.933 -16.059  0.00  0.00    +0.033 C 
ATOM     14  C   UNL     1      34.425 -23.849 -16.085  0.00  0.00    +0.094 C 
ATOM     15  C   UNL     1      36.124 -22.584 -17.339  0.00  0.00    +0.094 C 
ATOM     16  C   UNL     1      33.672 -22.530 -18.034  0.00  0.00    +0.249 C 
BRANCH  11  18
ATOM     17  O   UNL     1      38.445 -23.908 -15.020  0.00  0.00    -0.250 OA
ATOM     18  C   UNL     1      37.268 -23.930 -14.686  0.00  0.00    +0.317 C 
BRANCH  18  19
ATOM     19  O   UNL     1      36.596 -24.993 -14.159  0.00  0.00    -0.444 OA
ATOM     20  C   UNL     1      37.019 -26.280 -14.624  0.00  0.00    +0.256 C 
ENDBRANCH  18  19
ENDBRANCH  11  18
ENDBRANCH   3  16
ENDBRANCH   1   6
BRANCH   1  21
ATOM     21  C   UNL     1      35.839 -17.988 -22.178  0.00  0.00    +0.148 C 
BRANCH  21  28
ATOM     22  N   UNL     1      34.624 -16.075 -23.041  0.00  0.00    -0.392 NA
ATOM     23  N   UNL     1      34.234 -15.070 -20.491  0.00  0.00    -0.200 NA
ATOM     24  N   UNL     1      33.081 -13.262 -21.365  0.00  0.00    -0.271 NA
ATOM     25  N   UNL     1      32.751 -13.035 -23.729  0.00  0.00    -0.310 NA
ATOM     26  N   UNL     1      33.613 -14.679 -25.192  0.00  0.00    -0.329 N 
ATOM     27  N   UNL     1      31.912 -11.428 -22.247  0.00  0.00    -0.283 N 
ATOM     28  C   UNL     1      35.087 -16.701 -21.958  0.00  0.00    +0.133 C 
ATOM     29  C   UNL     1      34.904 -16.220 -20.701  0.00  0.00    +0.193 C 
ATOM     30  C   UNL     1      33.954 -14.925 -22.829  0.00  0.00    +0.248 C 
ATOM     31  C   UNL     1      33.750 -14.406 -21.549  0.00  0.00    +0.131 C 
ATOM     32  C   UNL     1      33.428 -14.189 -23.872  0.00  0.00    +0.231 C 
ATOM     33  C   UNL     1      32.615 -12.633 -22.460  0.00  0.00    +0.207 C 
ATOM     34  H   UNL     1      33.250 -14.178 -25.958  0.00  0.00    +0.145 HD
ATOM     35  H   UNL     1      34.102 -15.519 -25.340  0.00  0.00    +0.145 HD
ATOM     36  H   UNL     1      31.784 -11.088 -21.332  0.00  0.00    +0.156 HD
ATOM     37  H   UNL     1      31.551 -10.927 -23.013  0.00  0.00    +0.156 HD
ENDBRANCH  21  28
ENDBRANCH   1  21
TORSDOF 6
ENDMDL
MODEL 2
REMARK VINA RESULT:     -12.4      1.033      2.052
REMARK  Name = 23629645
REMARK  6 active torsions:
REMARK  status: ('A' for Active; 'I' for Inactive)
REMARK    1  A    between atoms: N_1  and  C_6
REMARK    2  A    between atoms: N_1  and  C_21
REMARK    3  A    between atoms: C_3  and  C_16
REMARK    4  A    between atoms: C_11  and  C_18
REMARK    5  A    between atoms: C_18  and  O_19
REMARK    6  A    between atoms: C_21  and  C_28
REMARK                            x       y       z     vdW  Elec       q    Type
REMARK                         _______ _______ _______ _____ _____    ______ ____
ROOT
ATOM      1  N   UNL     1      35.634 -19.307 -21.970  0.00  0.00    -0.300 N 
ATOM      2  C   UNL     1      36.850 -18.553 -21.742  0.00  0.00    +0.113 C 
ENDROOT
BRANCH   1   6
ATOM      3  C   UNL     1      34.065 -21.774 -18.961  0.00  0.00    +0.054 C 
ATOM      4  C   UNL     1      35.440 -21.730 -19.174  0.00  0.00    +0.006 C 
ATOM      5  C   UNL     1      33.208 -21.003 -19.741  0.00  0.00    +0.006 C 
ATOM      6  C   UNL     1      35.106 -20.136 -20.958  0.00  0.00    +0.048 C 
ATOM      7  C   UNL     1      35.962 -20.910 -20.174  0.00  0.00    +0.015 C 
ATOM      8  C   UNL     1      33.729 -20.182 -20.742  0.00  0.00    +0.015 C 
BRANCH   3  16
ATOM      9  O   UNL     1      32.303 -22.837 -17.948  0.00  0.00    -0.270 OA
ATOM     10  N   UNL     1      34.394 -23.152 -16.952  0.00  0.00    -0.276 N 
ATOM     11  C   UNL     1      35.707 -23.130 -14.365  0.00  0.00    +0.102 C 
ATOM     12  C   UNL     1      34.221 -23.474 -14.523  0.00  0.00    +0.033 C 
ATOM     13  C   UNL     1      36.246 -22.324 -15.553  0.00  0.00    +0.033 C 
ATOM     14  C   UNL     1      33.890 -24.036 -15.905  0.00  0.00    +0.094 C 
ATOM     15  C   UNL     1      35.842 -22.915 -16.903  0.00  0.00    +0.094 C 
ATOM     16  C   UNL     1      33.516 -22.638 -17.908  0.00  0.00    +0.249 C 
BRANCH  11  18
ATOM     17  O   UNL     1      36.017 -25.477 -13.914  0.00  0.00    -0.250 OA
ATOM     18  C   UNL     1      36.508 -24.382 -14.152  0.00  0.00    +0.317 C 
BRANCH  18  19
ATOM     19  O   UNL     1      37.836 -24.097 -14.265  0.00  0.00    -0.444 OA
ATOM     20  C   UNL     1      38.713 -25.228 -14.229  0.00  0.00    +0.256 C 
ENDBRANCH  18  19
ENDBRANCH  11  18
ENDBRANCH   3  16
ENDBRANCH   1   6
BRANCH   1  21
ATOM     21  C   UNL     1      34.973 -19.209 -23.257  0.00  0.00    +0.148 C 
BRANCH  21  28
ATOM     22  N   UNL     1      34.638 -16.902 -22.592  0.00  0.00    -0.392 NA
ATOM     23  N   UNL     1      33.866 -16.191 -25.153  0.00  0.00    -0.200 NA
ATOM     24  N   UNL     1      33.561 -14.000 -24.468  0.00  0.00    -0.271 NA
ATOM     25  N   UNL     1      33.970 -13.350 -22.196  0.00  0.00    -0.310 NA
ATOM     26  N   UNL     1      34.696 -14.964 -20.632  0.00  0.00    -0.329 N 
ATOM     27  N   UNL     1      33.251 -11.778 -23.777  0.00  0.00    -0.283 N 
ATOM     28  C   UNL     1      34.590 -17.790 -23.585  0.00  0.00    +0.133 C 
ATOM     29  C   UNL     1      34.212 -17.456 -24.846  0.00  0.00    +0.193 C 
ATOM     30  C   UNL     1      34.292 -15.637 -22.900  0.00  0.00    +0.248 C 
ATOM     31  C   UNL     1      33.900 -15.264 -24.187  0.00  0.00    +0.131 C 
ATOM     32  C   UNL     1      34.305 -14.629 -21.954  0.00  0.00    +0.231 C 
ATOM     33  C   UNL     1      33.612 -13.106 -23.462  0.00  0.00    +0.207 C 
ATOM     34  H   UNL     1      34.716 -14.270 -19.934  0.00  0.00    +0.145 HD
ATOM     35  H   UNL     1      34.948 -15.890 -20.412  0.00  0.00    +0.145 HD
ATOM     36  H   UNL     1      32.979 -11.547 -24.695  0.00  0.00    +0.156 HD
ATOM     37  H   UNL     1      33.270 -11.085 -23.079  0.00  0.00    +0.156 HD
ENDBRANCH  21  28
ENDBRANCH   1  21
TORSDOF 6
ENDMDL
MODEL 3
REMARK VINA RESULT:     -11.5      4.853     10.433
REMARK  Name = 23629645
REMARK  6 active torsions:
REMARK  status: ('A' for Active; 'I' for Inactive)
REMARK    1  A    between atoms: N_1  and  C_6
REMARK    2  A    between atoms: N_1  and  C_21
REMARK    3  A    between atoms: C_3  and  C_16
REMARK    4  A    between atoms: C_11  and  C_18
REMARK    5  A    between atoms: C_18  and  O_19
REMARK    6  A    between atoms: C_21  and  C_28
REMARK                            x       y       z     vdW  Elec       q    Type
REMARK                         _______ _______ _______ _____ _____    ______ ____
ROOT
ATOM      1  N   UNL     1      35.184 -18.845 -22.892  0.00  0.00    -0.300 N 
ATOM      2  C   UNL     1      34.898 -19.866 -23.880  0.00  0.00    +0.113 C 
ENDROOT
BRANCH   1   6
ATOM      3  C   UNL     1      34.073 -14.857 -23.574  0.00  0.00    +0.054 C 
ATOM      4  C   UNL     1      33.868 -15.813 -24.566  0.00  0.00    +0.006 C 
ATOM      5  C   UNL     1      34.646 -15.218 -22.358  0.00  0.00    +0.006 C 
ATOM      6  C   UNL     1      34.810 -17.504 -23.122  0.00  0.00    +0.048 C 
ATOM      7  C   UNL     1      34.236 -17.139 -24.339  0.00  0.00    +0.015 C 
ATOM      8  C   UNL     1      35.015 -16.544 -22.131  0.00  0.00    +0.015 C 
BRANCH   3  16
ATOM      9  O   UNL     1      34.158 -12.931 -24.818  0.00  0.00    -0.270 OA
ATOM     10  N   UNL     1      32.834 -12.846 -22.893  0.00  0.00    -0.276 N 
ATOM     11  C   UNL     1      32.288 -11.181 -20.581  0.00  0.00    +0.102 C 
ATOM     12  C   UNL     1      32.776 -10.595 -21.911  0.00  0.00    +0.033 C 
ATOM     13  C   UNL     1      32.625 -12.671 -20.445  0.00  0.00    +0.033 C 
ATOM     14  C   UNL     1      32.406 -11.467 -23.111  0.00  0.00    +0.094 C 
ATOM     15  C   UNL     1      32.270 -13.476 -21.694  0.00  0.00    +0.094 C 
ATOM     16  C   UNL     1      33.686 -13.461 -23.814  0.00  0.00    +0.249 C 
BRANCH  11  18
ATOM     17  O   UNL     1      29.985 -11.168 -21.289  0.00  0.00    -0.250 OA
ATOM     18  C   UNL     1      30.815 -10.942 -20.420  0.00  0.00    +0.317 C 
BRANCH  18  19
ATOM     19  O   UNL     1      30.568 -10.444 -19.175  0.00  0.00    -0.444 OA
ATOM     20  C   UNL     1      31.504  -9.468 -18.705  0.00  0.00    +0.256 C 
ENDBRANCH  18  19
ENDBRANCH  11  18
ENDBRANCH   3  16
ENDBRANCH   1   6
BRANCH   1  21
ATOM     21  C   UNL     1      35.870 -19.216 -21.671  0.00  0.00    +0.148 C 
BRANCH  21  28
ATOM     22  N   UNL     1      35.628 -20.759 -19.816  0.00  0.00    -0.392 NA
ATOM     23  N   UNL     1      32.891 -20.914 -20.198  0.00  0.00    -0.200 NA
ATOM     24  N   UNL     1      32.712 -22.386 -18.418  0.00  0.00    -0.271 NA
ATOM     25  N   UNL     1      34.649 -23.062 -17.178  0.00  0.00    -0.310 NA
ATOM     26  N   UNL     1      36.773 -22.217 -17.776  0.00  0.00    -0.329 N 
ATOM     27  N   UNL     1      32.527 -23.877 -16.615  0.00  0.00    -0.283 N 
ATOM     28  C   UNL     1      35.012 -20.079 -20.784  0.00  0.00    +0.133 C 
ATOM     29  C   UNL     1      33.670 -20.146 -20.983  0.00  0.00    +0.193 C 
ATOM     30  C   UNL     1      34.847 -21.527 -19.031  0.00  0.00    +0.248 C 
ATOM     31  C   UNL     1      33.466 -21.615 -19.212  0.00  0.00    +0.131 C 
ATOM     32  C   UNL     1      35.372 -22.276 -17.996  0.00  0.00    +0.231 C 
ATOM     33  C   UNL     1      33.338 -23.070 -17.443  0.00  0.00    +0.207 C 
ATOM     34  H   UNL     1      37.179 -22.739 -17.046  0.00  0.00    +0.145 HD
ATOM     35  H   UNL     1      37.338 -21.654 -18.352  0.00  0.00    +0.145 HD
ATOM     36  H   UNL     1      31.555 -23.918 -16.768  0.00  0.00    +0.156 HD
ATOM     37  H   UNL     1      32.933 -24.399 -15.887  0.00  0.00    +0.156 HD
ENDBRANCH  21  28
ENDBRANCH   1  21
TORSDOF 6
ENDMDL
MODEL 4
REMARK VINA RESULT:     -11.4      4.113     10.478
REMARK  Name = 23629645
REMARK  6 active torsions:
REMARK  status: ('A' for Active; 'I' for Inactive)
REMARK    1  A    between atoms: N_1  and  C_6
REMARK    2  A    between atoms: N_1  and  C_21
REMARK    3  A    between atoms: C_3  and  C_16
REMARK    4  A    between atoms: C_11  and  C_18
REMARK    5  A    between atoms: C_18  and  O_19
REMARK    6  A    between atoms: C_21  and  C_28
REMARK                            x       y       z     vdW  Elec       q    Type
REMARK                         _______ _______ _______ _____ _____    ______ ____
ROOT
ATOM      1  N   UNL     1      36.219 -20.630 -19.961  0.00  0.00    -0.300 N 
ATOM      2  C   UNL     1      37.055 -20.178 -18.868  0.00  0.00    +0.113 C 
ENDROOT
BRANCH   1   6
ATOM      3  C   UNL     1      34.951 -17.940 -22.921  0.00  0.00    +0.054 C 
ATOM      4  C   UNL     1      36.023 -17.608 -22.096  0.00  0.00    +0.006 C 
ATOM      5  C   UNL     1      34.298 -19.160 -22.768  0.00  0.00    +0.006 C 
ATOM      6  C   UNL     1      35.793 -19.726 -20.957  0.00  0.00    +0.048 C 
ATOM      7  C   UNL     1      36.445 -18.503 -21.112  0.00  0.00    +0.015 C 
ATOM      8  C   UNL     1      34.719 -20.055 -21.785  0.00  0.00    +0.015 C 
BRANCH   3  16
ATOM      9  O   UNL     1      34.658 -17.361 -25.121  0.00  0.00    -0.270 OA
ATOM     10  N   UNL     1      33.964 -15.778 -23.548  0.00  0.00    -0.276 N 
ATOM     11  C   UNL     1      34.125 -12.943 -22.953  0.00  0.00    +0.102 C 
ATOM     12  C   UNL     1      34.195 -13.480 -24.386  0.00  0.00    +0.033 C 
ATOM     13  C   UNL     1      34.490 -14.010 -21.914  0.00  0.00    +0.033 C 
ATOM     14  C   UNL     1      33.487 -14.826 -24.547  0.00  0.00    +0.094 C 
ATOM     15  C   UNL     1      33.783 -15.343 -22.158  0.00  0.00    +0.094 C 
ATOM     16  C   UNL     1      34.507 -16.998 -23.956  0.00  0.00    +0.249 C 
BRANCH  11  18
ATOM     17  O   UNL     1      31.937 -12.885 -21.944  0.00  0.00    -0.250 OA
ATOM     18  C   UNL     1      32.765 -12.367 -22.681  0.00  0.00    +0.317 C 
BRANCH  18  19
ATOM     19  O   UNL     1      32.616 -11.204 -23.376  0.00  0.00    -0.444 OA
ATOM     20  C   UNL     1      31.857 -10.186 -22.716  0.00  0.00    +0.256 C 
ENDBRANCH  18  19
ENDBRANCH  11  18
ENDBRANCH   3  16
ENDBRANCH   1   6
BRANCH   1  21
ATOM     21  C   UNL     1      35.814 -22.022 -20.013  0.00  0.00    +0.148 C 
BRANCH  21  28
ATOM     22  N   UNL     1      35.159 -22.837 -17.826  0.00  0.00    -0.392 NA
ATOM     23  N   UNL     1      32.483 -22.388 -18.371  0.00  0.00    -0.200 NA
ATOM     24  N   UNL     1      31.909 -23.176 -16.270  0.00  0.00    -0.271 NA
ATOM     25  N   UNL     1      33.588 -23.934 -14.735  0.00  0.00    -0.310 NA
ATOM     26  N   UNL     1      35.863 -23.876 -15.371  0.00  0.00    -0.329 N 
ATOM     27  N   UNL     1      31.323 -23.974 -14.141  0.00  0.00    -0.283 N 
ATOM     28  C   UNL     1      34.752 -22.336 -18.993  0.00  0.00    +0.133 C 
ATOM     29  C   UNL     1      33.443 -22.111 -19.274  0.00  0.00    +0.193 C 
ATOM     30  C   UNL     1      34.198 -23.114 -16.923  0.00  0.00    +0.248 C 
ATOM     31  C   UNL     1      32.844 -22.893 -17.184  0.00  0.00    +0.131 C 
ATOM     32  C   UNL     1      34.498 -23.635 -15.679  0.00  0.00    +0.231 C 
ATOM     33  C   UNL     1      32.324 -23.681 -15.094  0.00  0.00    +0.207 C 
ATOM     34  H   UNL     1      36.111 -24.248 -14.493  0.00  0.00    +0.145 HD
ATOM     35  H   UNL     1      36.561 -23.672 -16.034  0.00  0.00    +0.145 HD
ATOM     36  H   UNL     1      30.377 -23.806 -14.356  0.00  0.00    +0.156 HD
ATOM     37  H   UNL     1      31.571 -24.346 -13.265  0.00  0.00    +0.156 HD
ENDBRANCH  21  28
ENDBRANCH   1  21
TORSDOF 6
ENDMDL
MODEL 5
REMARK VINA RESULT:     -10.6      4.142     10.765
REMARK  Name = 23629645
REMARK  6 active torsions:
REMARK  status: ('A' for Active; 'I' for Inactive)
REMARK    1  A    between atoms: N_1  and  C_6
REMARK    2  A    between atoms: N_1  and  C_21
REMARK    3  A    between atoms: C_3  and  C_16
REMARK    4  A    between atoms: C_11  and  C_18
REMARK    5  A    between atoms: C_18  and  O_19
REMARK    6  A    between atoms: C_21  and  C_28
REMARK                            x       y       z     vdW  Elec       q    Type
REMARK                         _______ _______ _______ _____ _____    ______ ____
ROOT
ATOM      1  N   UNL     1      35.316 -20.440 -20.549  0.00  0.00    -0.300 N 
ATOM      2  C   UNL     1      36.653 -20.763 -20.094  0.00  0.00    +0.113 C 
ENDROOT
BRANCH   1   6
ATOM      3  C   UNL     1      34.696 -17.309 -23.273  0.00  0.00    +0.054 C 
ATOM      4  C   UNL     1      35.313 -17.053 -22.052  0.00  0.00    +0.006 C 
ATOM      5  C   UNL     1      34.283 -18.599 -23.595  0.00  0.00    +0.006 C 
ATOM      6  C   UNL     1      35.108 -19.387 -21.465  0.00  0.00    +0.048 C 
ATOM      7  C   UNL     1      35.520 -18.093 -21.146  0.00  0.00    +0.015 C 
ATOM      8  C   UNL     1      34.489 -19.640 -22.689  0.00  0.00    +0.015 C 
BRANCH   3  16
ATOM      9  O   UNL     1      34.878 -16.404 -25.373  0.00  0.00    -0.270 OA
ATOM     10  N   UNL     1      33.853 -15.053 -23.764  0.00  0.00    -0.276 N 
ATOM     11  C   UNL     1      33.865 -12.342 -22.731  0.00  0.00    +0.102 C 
ATOM     12  C   UNL     1      34.244 -12.664 -24.181  0.00  0.00    +0.033 C 
ATOM     13  C   UNL     1      34.006 -13.560 -21.810  0.00  0.00    +0.033 C 
ATOM     14  C   UNL     1      33.595 -13.952 -24.688  0.00  0.00    +0.094 C 
ATOM     15  C   UNL     1      33.375 -14.823 -22.396  0.00  0.00    +0.094 C 
ATOM     16  C   UNL     1      34.478 -16.213 -24.226  0.00  0.00    +0.249 C 
BRANCH  11  18
ATOM     17  O   UNL     1      31.575 -12.244 -21.988  0.00  0.00    -0.250 OA
ATOM     18  C   UNL     1      32.475 -11.778 -22.672  0.00  0.00    +0.317 C 
BRANCH  18  19
ATOM     19  O   UNL     1      32.391 -10.688 -23.488  0.00  0.00    -0.444 OA
ATOM     20  C   UNL     1      32.775  -9.444 -22.894  0.00  0.00    +0.256 C 
ENDBRANCH  18  19
ENDBRANCH  11  18
ENDBRANCH   3  16
ENDBRANCH   1   6
BRANCH   1  21
ATOM     21  C   UNL     1      34.193 -21.202 -20.041  0.00  0.00    +0.148 C 
BRANCH  21  28
ATOM     22  N   UNL     1      35.609 -21.556 -18.105  0.00  0.00    -0.392 NA
ATOM     23  N   UNL     1      34.142 -23.774 -17.336  0.00  0.00    -0.200 NA
ATOM     24  N   UNL     1      35.524 -24.069 -15.501  0.00  0.00    -0.271 NA
ATOM     25  N   UNL     1      37.356 -22.579 -15.085  0.00  0.00    -0.310 NA
ATOM     26  N   UNL     1      37.761 -20.783 -16.565  0.00  0.00    -0.329 N 
ATOM     27  N   UNL     1      36.922 -24.370 -13.639  0.00  0.00    -0.283 N 
ATOM     28  C   UNL     1      34.556 -21.981 -18.804  0.00  0.00    +0.133 C 
ATOM     29  C   UNL     1      33.828 -23.068 -18.439  0.00  0.00    +0.193 C 
ATOM     30  C   UNL     1      35.922 -22.262 -17.001  0.00  0.00    +0.248 C 
ATOM     31  C   UNL     1      35.192 -23.383 -16.601  0.00  0.00    +0.131 C 
ATOM     32  C   UNL     1      36.990 -21.916 -16.196  0.00  0.00    +0.231 C 
ATOM     33  C   UNL     1      36.586 -23.635 -14.797  0.00  0.00    +0.207 C 
ATOM     34  H   UNL     1      38.530 -20.510 -16.013  0.00  0.00    +0.145 HD
ATOM     35  H   UNL     1      37.527 -20.270 -17.372  0.00  0.00    +0.145 HD
ATOM     36  H   UNL     1      36.386 -25.156 -13.384  0.00  0.00    +0.156 HD
ATOM     37  H   UNL     1      37.690 -24.097 -13.089  0.00  0.00    +0.156 HD
ENDBRANCH  21  28
ENDBRANCH   1  21
TORSDOF 6
ENDMDL
MODEL 6
REMARK VINA RESULT:     -10.5      4.105      7.781
REMARK  Name = 23629645
REMARK  6 active torsions:
REMARK  status: ('A' for Active; 'I' for Inactive)
REMARK    1  A    between atoms: N_1  and  C_6
REMARK    2  A    between atoms: N_1  and  C_21
REMARK    3  A    between atoms: C_3  and  C_16
REMARK    4  A    between atoms: C_11  and  C_18
REMARK    5  A    between atoms: C_18  and  O_19
REMARK    6  A    between atoms: C_21  and  C_28
REMARK                            x       y       z     vdW  Elec       q    Type
REMARK                         _______ _______ _______ _____ _____    ______ ____
ROOT
ATOM      1  N   UNL     1      33.414 -11.576 -23.248  0.00  0.00    -0.300 N 
ATOM      2  C   UNL     1      34.365 -10.580 -23.698  0.00  0.00    +0.113 C 
ENDROOT
BRANCH   1   6
ATOM      3  C   UNL     1      34.162 -15.659 -23.861  0.00  0.00    +0.054 C 
ATOM      4  C   UNL     1      34.445 -15.080 -22.626  0.00  0.00    +0.006 C 
ATOM      5  C   UNL     1      33.633 -14.889 -24.894  0.00  0.00    +0.006 C 
ATOM      6  C   UNL     1      33.665 -12.949 -23.454  0.00  0.00    +0.048 C 
ATOM      7  C   UNL     1      34.196 -13.723 -22.422  0.00  0.00    +0.015 C 
ATOM      8  C   UNL     1      33.384 -13.532 -24.690  0.00  0.00    +0.015 C 
BRANCH   3  16
ATOM      9  O   UNL     1      34.030 -17.558 -25.141  0.00  0.00    -0.270 OA
ATOM     10  N   UNL     1      35.084 -17.796 -23.068  0.00  0.00    -0.276 N 
ATOM     11  C   UNL     1      35.153 -19.522 -20.737  0.00  0.00    +0.102 C 
ATOM     12  C   UNL     1      34.777 -20.044 -22.129  0.00  0.00    +0.033 C 
ATOM     13  C   UNL     1      34.963 -18.005 -20.617  0.00  0.00    +0.033 C 
ATOM     14  C   UNL     1      35.387 -19.212 -23.256  0.00  0.00    +0.094 C 
ATOM     15  C   UNL     1      35.556 -17.236 -21.796  0.00  0.00    +0.094 C 
ATOM     16  C   UNL     1      34.426 -17.088 -24.076  0.00  0.00    +0.249 C 
BRANCH  11  18
ATOM     17  O   UNL     1      37.504 -19.142 -20.371  0.00  0.00    -0.250 OA
ATOM     18  C   UNL     1      36.560 -19.919 -20.398  0.00  0.00    +0.317 C 
BRANCH  18  19
ATOM     19  O   UNL     1      36.604 -21.256 -20.132  0.00  0.00    -0.444 OA
ATOM     20  C   UNL     1      35.988 -21.660 -18.905  0.00  0.00    +0.256 C 
ENDBRANCH  18  19
ENDBRANCH  11  18
ENDBRANCH   3  16
ENDBRANCH   1   6
BRANCH   1  21
ATOM     21  C   UNL     1      32.194 -11.144 -22.595  0.00  0.00    +0.148 C 
BRANCH  21  28
ATOM     22  N   UNL     1      32.424  -8.915 -21.668  0.00  0.00    -0.392 NA
ATOM     23  N   UNL     1      31.237  -7.779 -23.896  0.00  0.00    -0.200 NA
ATOM     24  N   UNL     1      31.480  -5.672 -22.967  0.00  0.00    -0.271 NA
ATOM     25  N   UNL     1      32.492  -5.382 -20.813  0.00  0.00    -0.310 NA
ATOM     26  N   UNL     1      33.254  -7.272 -19.617  0.00  0.00    -0.329 N 
ATOM     27  N   UNL     1      31.725  -3.534 -22.029  0.00  0.00    -0.283 N 
ATOM     28  C   UNL     1      32.001  -9.654 -22.695  0.00  0.00    +0.133 C 
ATOM     29  C   UNL     1      31.416  -9.110 -23.794  0.00  0.00    +0.193 C 
ATOM     30  C   UNL     1      32.244  -7.584 -21.772  0.00  0.00    +0.248 C 
ATOM     31  C   UNL     1      31.647  -6.997 -22.889  0.00  0.00    +0.131 C 
ATOM     32  C   UNL     1      32.643  -6.718 -20.772  0.00  0.00    +0.231 C 
ATOM     33  C   UNL     1      31.909  -4.930 -21.929  0.00  0.00    +0.207 C 
ATOM     34  H   UNL     1      33.550  -6.682 -18.886  0.00  0.00    +0.145 HD
ATOM     35  H   UNL     1      33.384  -8.245 -19.547  0.00  0.00    +0.145 HD
ATOM     36  H   UNL     1      31.300  -3.150 -22.831  0.00  0.00    +0.156 HD
ATOM     37  H   UNL     1      32.019  -2.945 -21.298  0.00  0.00    +0.156 HD
ENDBRANCH  21  28
ENDBRANCH   1  21
TORSDOF 6
ENDMDL
MODEL 7
REMARK VINA RESULT:     -10.5      4.843      8.659
REMARK  Name = 23629645
REMARK  6 active torsions:
REMARK  status: ('A' for Active; 'I' for Inactive)
REMARK    1  A    between atoms: N_1  and  C_6
REMARK    2  A    between atoms: N_1  and  C_21
REMARK    3  A    between atoms: C_3  and  C_16
REMARK    4  A    between atoms: C_11  and  C_18
REMARK    5  A    between atoms: C_18  and  O_19
REMARK    6  A    between atoms: C_21  and  C_28
REMARK                            x       y       z     vdW  Elec       q    Type
REMARK                         _______ _______ _______ _____ _____    ______ ____
ROOT
ATOM      1  N   UNL     1      32.733 -10.637 -22.912  0.00  0.00    -0.300 N 
ATOM      2  C   UNL     1      31.452 -10.269 -22.345  0.00  0.00    +0.113 C 
ENDROOT
BRANCH   1   6
ATOM      3  C   UNL     1      33.548 -14.631 -23.906  0.00  0.00    +0.054 C 
ATOM      4  C   UNL     1      33.774 -13.624 -24.841  0.00  0.00    +0.006 C 
ATOM      5  C   UNL     1      33.052 -14.319 -22.643  0.00  0.00    +0.006 C 
ATOM      6  C   UNL     1      33.008 -11.980 -23.246  0.00  0.00    +0.048 C 
ATOM      7  C   UNL     1      33.504 -12.296 -24.511  0.00  0.00    +0.015 C 
ATOM      8  C   UNL     1      32.782 -12.991 -22.312  0.00  0.00    +0.015 C 
BRANCH   3  16
ATOM      9  O   UNL     1      33.305 -16.450 -25.282  0.00  0.00    -0.270 OA
ATOM     10  N   UNL     1      34.656 -16.767 -23.401  0.00  0.00    -0.276 N 
ATOM     11  C   UNL     1      35.126 -18.631 -21.228  0.00  0.00    +0.102 C 
ATOM     12  C   UNL     1      34.574 -19.082 -22.585  0.00  0.00    +0.033 C 
ATOM     13  C   UNL     1      34.898 -17.135 -20.977  0.00  0.00    +0.033 C 
ATOM     14  C   UNL     1      34.982 -18.152 -23.727  0.00  0.00    +0.094 C 
ATOM     15  C   UNL     1      35.285 -16.266 -22.173  0.00  0.00    +0.094 C 
ATOM     16  C   UNL     1      33.832 -16.029 -24.254  0.00  0.00    +0.249 C 
BRANCH  11  18
ATOM     17  O   UNL     1      37.420 -18.694 -21.962  0.00  0.00    -0.250 OA
ATOM     18  C   UNL     1      36.582 -18.981 -21.119  0.00  0.00    +0.317 C 
BRANCH  18  19
ATOM     19  O   UNL     1      36.802 -19.655 -19.955  0.00  0.00    -0.444 OA
ATOM     20  C   UNL     1      36.115 -20.904 -19.827  0.00  0.00    +0.256 C 
ENDBRANCH  18  19
ENDBRANCH  11  18
ENDBRANCH   3  16
ENDBRANCH   1   6
BRANCH   1  21
ATOM     21  C   UNL     1      33.735  -9.610 -23.121  0.00  0.00    +0.148 C 
BRANCH  21  28
ATOM     22  N   UNL     1      32.997  -7.343 -23.558  0.00  0.00    -0.392 NA
ATOM     23  N   UNL     1      32.727  -6.822 -20.853  0.00  0.00    -0.200 NA
ATOM     24  N   UNL     1      32.027  -4.666 -21.323  0.00  0.00    -0.271 NA
ATOM     25  N   UNL     1      31.850  -3.892 -23.586  0.00  0.00    -0.310 NA
ATOM     26  N   UNL     1      32.397  -5.348 -25.364  0.00  0.00    -0.329 N 
ATOM     27  N   UNL     1      31.315  -2.479 -21.796  0.00  0.00    -0.283 N 
ATOM     28  C   UNL     1      33.270  -8.264 -22.633  0.00  0.00    +0.133 C 
ATOM     29  C   UNL     1      33.143  -8.022 -21.302  0.00  0.00    +0.193 C 
ATOM     30  C   UNL     1      32.581  -6.143 -23.107  0.00  0.00    +0.248 C 
ATOM     31  C   UNL     1      32.441  -5.866 -21.746  0.00  0.00    +0.131 C 
ATOM     32  C   UNL     1      32.268  -5.111 -23.971  0.00  0.00    +0.231 C 
ATOM     33  C   UNL     1      31.752  -3.739 -22.260  0.00  0.00    +0.207 C 
ATOM     34  H   UNL     1      32.182  -4.634 -26.007  0.00  0.00    +0.145 HD
ATOM     35  H   UNL     1      32.700  -6.227 -25.688  0.00  0.00    +0.145 HD
ATOM     36  H   UNL     1      31.227  -2.315 -20.829  0.00  0.00    +0.156 HD
ATOM     37  H   UNL     1      31.102  -1.765 -22.439  0.00  0.00    +0.156 HD
ENDBRANCH  21  28
ENDBRANCH   1  21
TORSDOF 6
ENDMDL
MODEL 8
REMARK VINA RESULT:     -10.4      8.933     14.575
REMARK  Name = 23629645
REMARK  6 active torsions:
REMARK  status: ('A' for Active; 'I' for Inactive)
REMARK    1  A    between atoms: N_1  and  C_6
REMARK    2  A    between atoms: N_1  and  C_21
REMARK    3  A    between atoms: C_3  and  C_16
REMARK    4  A    between atoms: C_11  and  C_18
REMARK    5  A    between atoms: C_18  and  O_19
REMARK    6  A    between atoms: C_21  and  C_28
REMARK                            x       y       z     vdW  Elec       q    Type
REMARK                         _______ _______ _______ _____ _____    ______ ____
ROOT
ATOM      1  N   UNL     1      31.516  -9.986 -20.619  0.00  0.00    -0.300 N 
ATOM      2  C   UNL     1      32.127  -9.962 -19.305  0.00  0.00    +0.113 C 
ENDROOT
BRANCH   1   6
ATOM      3  C   UNL     1      31.664  -6.600 -23.093  0.00  0.00    +0.054 C 
ATOM      4  C   UNL     1      32.031  -6.496 -21.753  0.00  0.00    +0.006 C 
ATOM      5  C   UNL     1      31.247  -7.822 -23.615  0.00  0.00    +0.006 C 
ATOM      6  C   UNL     1      31.566  -8.847 -21.451  0.00  0.00    +0.048 C 
ATOM      7  C   UNL     1      31.982  -7.622 -20.931  0.00  0.00    +0.015 C 
ATOM      8  C   UNL     1      31.198  -8.947 -22.793  0.00  0.00    +0.015 C 
BRANCH   3  16
ATOM      9  O   UNL     1      30.769  -4.635 -23.866  0.00  0.00    -0.270 OA
ATOM     10  N   UNL     1      32.808  -5.270 -24.815  0.00  0.00    -0.276 N 
ATOM     11  C   UNL     1      34.141  -5.526 -27.378  0.00  0.00    +0.102 C 
ATOM     12  C   UNL     1      33.024  -4.504 -27.138  0.00  0.00    +0.033 C 
ATOM     13  C   UNL     1      34.100  -6.679 -26.368  0.00  0.00    +0.033 C 
ATOM     14  C   UNL     1      32.907  -4.092 -25.671  0.00  0.00    +0.094 C 
ATOM     15  C   UNL     1      33.938  -6.200 -24.926  0.00  0.00    +0.094 C 
ATOM     16  C   UNL     1      31.715  -5.415 -23.958  0.00  0.00    +0.249 C 
BRANCH  11  18
ATOM     17  O   UNL     1      35.629  -3.634 -27.260  0.00  0.00    -0.250 OA
ATOM     18  C   UNL     1      35.478  -4.844 -27.366  0.00  0.00    +0.317 C 
BRANCH  18  19
ATOM     19  O   UNL     1      36.466  -5.775 -27.490  0.00  0.00    -0.444 OA
ATOM     20  C   UNL     1      36.812  -6.129 -28.833  0.00  0.00    +0.256 C 
ENDBRANCH  18  19
ENDBRANCH  11  18
ENDBRANCH   3  16
ENDBRANCH   1   6
BRANCH   1  21
ATOM     21  C   UNL     1      30.841 -11.189 -21.062  0.00  0.00    +0.148 C 
BRANCH  21  28
ATOM     22  N   UNL     1      32.265 -12.609 -22.416  0.00  0.00    -0.392 NA
ATOM     23  N   UNL     1      32.983 -14.126 -20.215  0.00  0.00    -0.200 NA
ATOM     24  N   UNL     1      34.330 -15.453 -21.552  0.00  0.00    -0.271 NA
ATOM     25  N   UNL     1      34.522 -15.040 -23.906  0.00  0.00    -0.310 NA
ATOM     26  N   UNL     1      33.322 -13.253 -24.880  0.00  0.00    -0.329 N 
ATOM     27  N   UNL     1      35.697 -16.800 -22.903  0.00  0.00    -0.283 N 
ATOM     28  C   UNL     1      31.791 -12.349 -21.197  0.00  0.00    +0.133 C 
ATOM     29  C   UNL     1      32.134 -13.086 -20.108  0.00  0.00    +0.193 C 
ATOM     30  C   UNL     1      33.115 -13.649 -22.522  0.00  0.00    +0.248 C 
ATOM     31  C   UNL     1      33.485 -14.424 -21.420  0.00  0.00    +0.131 C 
ATOM     32  C   UNL     1      33.671 -14.013 -23.733  0.00  0.00    +0.231 C 
ATOM     33  C   UNL     1      34.807 -15.711 -22.784  0.00  0.00    +0.207 C 
ATOM     34  H   UNL     1      33.701 -13.486 -25.758  0.00  0.00    +0.145 HD
ATOM     35  H   UNL     1      32.702 -12.494 -24.797  0.00  0.00    +0.145 HD
ATOM     36  H   UNL     1      35.939 -17.327 -22.107  0.00  0.00    +0.156 HD
ATOM     37  H   UNL     1      36.075 -17.033 -23.781  0.00  0.00    +0.156 HD
ENDBRANCH  21  28
ENDBRANCH   1  21
TORSDOF 6
ENDMDL
MODEL 9
REMARK VINA RESULT:     -10.4      3.625     10.837
REMARK  Name = 23629645
REMARK  6 active torsions:
REMARK  status: ('A' for Active; 'I' for Inactive)
REMARK    1  A    between atoms: N_1  and  C_6
REMARK    2  A    between atoms: N_1  and  C_21
REMARK    3  A    between atoms: C_3  and  C_16
REMARK    4  A    between atoms: C_11  and  C_18
REMARK    5  A    between atoms: C_18  and  O_19
REMARK    6  A    between atoms: C_21  and  C_28
REMARK                            x       y       z     vdW  Elec       q    Type
REMARK                         _______ _______ _______ _____ _____    ______ ____
ROOT
ATOM      1  N   UNL     1      34.315 -22.851 -17.453  0.00  0.00    -0.300 N 
ATOM      2  C   UNL     1      33.698 -24.160 -17.523  0.00  0.00    +0.113 C 
ENDROOT
BRANCH   1   6
ATOM      3  C   UNL     1      34.721 -20.505 -20.908  0.00  0.00    +0.054 C 
ATOM      4  C   UNL     1      35.856 -20.956 -20.239  0.00  0.00    +0.006 C 
ATOM      5  C   UNL     1      33.451 -20.828 -20.435  0.00  0.00    +0.006 C 
ATOM      6  C   UNL     1      34.451 -22.062 -18.615  0.00  0.00    +0.048 C 
ATOM      7  C   UNL     1      35.721 -21.736 -19.091  0.00  0.00    +0.015 C 
ATOM      8  C   UNL     1      33.316 -21.608 -19.287  0.00  0.00    +0.015 C 
BRANCH   3  16
ATOM      9  O   UNL     1      35.299 -20.255 -23.113  0.00  0.00    -0.270 OA
ATOM     10  N   UNL     1      34.508 -18.334 -22.041  0.00  0.00    -0.276 N 
ATOM     11  C   UNL     1      35.104 -15.516 -21.695  0.00  0.00    +0.102 C 
ATOM     12  C   UNL     1      35.513 -16.287 -22.955  0.00  0.00    +0.033 C 
ATOM     13  C   UNL     1      34.860 -16.445 -20.500  0.00  0.00    +0.033 C 
ATOM     14  C   UNL     1      34.611 -17.491 -23.229  0.00  0.00    +0.094 C 
ATOM     15  C   UNL     1      33.988 -17.649 -20.852  0.00  0.00    +0.094 C 
ATOM     16  C   UNL     1      34.863 -19.683 -22.117  0.00  0.00    +0.249 C 
BRANCH  11  18
ATOM     17  O   UNL     1      33.507 -14.383 -23.100  0.00  0.00    -0.250 OA
ATOM     18  C   UNL     1      33.898 -14.668 -21.976  0.00  0.00    +0.317 C 
BRANCH  18  19
ATOM     19  O   UNL     1      33.329 -14.279 -20.800  0.00  0.00    -0.444 OA
ATOM     20  C   UNL     1      32.212 -13.393 -20.919  0.00  0.00    +0.256 C 
ENDBRANCH  18  19
ENDBRANCH  11  18
ENDBRANCH   3  16
ENDBRANCH   1   6
BRANCH   1  21
ATOM     21  C   UNL     1      34.802 -22.367 -16.177  0.00  0.00    +0.148 C 
BRANCH  21  28
ATOM     22  N   UNL     1      35.963 -24.332 -15.359  0.00  0.00    -0.392 NA
ATOM     23  N   UNL     1      38.399 -23.019 -15.422  0.00  0.00    -0.200 NA
ATOM     24  N   UNL     1      39.460 -24.923 -14.639  0.00  0.00    -0.271 NA
ATOM     25  N   UNL     1      38.222 -26.922 -14.171  0.00  0.00    -0.310 NA
ATOM     26  N   UNL     1      35.884 -26.955 -14.513  0.00  0.00    -0.329 N 
ATOM     27  N   UNL     1      40.540 -26.851 -13.846  0.00  0.00    -0.283 N 
ATOM     28  C   UNL     1      36.069 -23.064 -15.758  0.00  0.00    +0.133 C 
ATOM     29  C   UNL     1      37.258 -22.407 -15.793  0.00  0.00    +0.193 C 
ATOM     30  C   UNL     1      37.104 -24.943 -14.987  0.00  0.00    +0.248 C 
ATOM     31  C   UNL     1      38.340 -24.294 -15.013  0.00  0.00    +0.131 C 
ATOM     32  C   UNL     1      37.119 -26.256 -14.556  0.00  0.00    +0.231 C 
ATOM     33  C   UNL     1      39.348 -26.203 -14.237  0.00  0.00    +0.207 C 
ATOM     34  H   UNL     1      35.859 -27.891 -14.210  0.00  0.00    +0.145 HD
ATOM     35  H   UNL     1      35.053 -26.504 -14.786  0.00  0.00    +0.145 HD
ATOM     36  H   UNL     1      41.396 -26.365 -13.876  0.00  0.00    +0.156 HD
ATOM     37  H   UNL     1      40.514 -27.786 -13.543  0.00  0.00    +0.156 HD
ENDBRANCH  21  28
ENDBRANCH   1  21
TORSDOF 6
ENDMDL
