MODEL 1
REMARK VINA RESULT:     -11.6      0.000      0.000
REMARK  Name = 9911830
REMARK  5 active torsions:
REMARK  status: ('A' for Active; 'I' for Inactive)
REMARK    1  A    between atoms: C_2  and  O_20
REMARK    2  A    between atoms: C_3  and  N_10
REMARK    3  A    between atoms: O_20  and  C_24
REMARK    4  A    between atoms: C_26  and  O_31
REMARK    5  A    between atoms: C_28  and  O_33
REMARK                            x       y       z     vdW  Elec       q    Type
REMARK                         _______ _______ _______ _____ _____    ______ ____
ROOT
ATOM      1 CL   UNL     1      37.555 -19.297 -20.868  0.00  0.00    -0.081 Cl
ATOM      2  C   UNL     1      35.160 -21.923 -19.086  0.00  0.00    +0.146 C 
ATOM      3  C   UNL     1      34.868 -19.771 -20.802  0.00  0.00    +0.062 C 
ATOM      4  C   UNL     1      36.284 -21.231 -19.498  0.00  0.00    +0.050 C 
ATOM      5  C   UNL     1      33.892 -21.564 -19.511  0.00  0.00    +0.039 C 
ATOM      6  C   UNL     1      36.138 -20.147 -20.364  0.00  0.00    +0.074 C 
ATOM      7  C   UNL     1      33.746 -20.480 -20.376  0.00  0.00    +0.019 C 
ENDROOT
BRANCH   3  10
ATOM      8  O   UNL     1      34.447 -13.082 -22.207  0.00  0.00    -0.357 OA
ATOM      9  O   UNL     1      34.886 -16.835 -20.254  0.00  0.00    -0.252 OA
ATOM     10  N   UNL     1      34.687 -18.690 -21.671  0.00  0.00    -0.267 N 
ATOM     11  N   UNL     1      34.479 -16.564 -22.541  0.00  0.00    -0.251 N 
ATOM     12  N   UNL     1      34.577 -14.349 -21.653  0.00  0.00    -0.062 NA
ATOM     13  C   UNL     1      34.704 -17.308 -21.372  0.00  0.00    +0.309 C 
ATOM     14  C   UNL     1      34.418 -15.157 -22.682  0.00  0.00    +0.177 C 
ATOM     15  C   UNL     1      34.189 -14.520 -23.890  0.00  0.00    +0.073 C 
ATOM     16  C   UNL     1      34.216 -13.197 -23.540  0.00  0.00    +0.156 C 
ATOM     17  C   UNL     1      34.052 -11.944 -24.287  0.00  0.00    +0.075 C 
ATOM     18  H   UNL     1      34.529 -18.922 -22.614  0.00  0.00    +0.156 HD
ATOM     19  H   UNL     1      34.349 -17.086 -23.367  0.00  0.00    +0.158 HD
ENDBRANCH   3  10
BRANCH   2  20
ATOM     20  O   UNL     1      35.303 -22.997 -18.226  0.00  0.00    -0.453 OA
BRANCH  20  24
ATOM     21  N   UNL     1      32.454 -23.397 -15.240  0.00  0.00    -0.244 NA
ATOM     22  C   UNL     1      34.772 -23.318 -15.892  0.00  0.00    +0.055 C 
ATOM     23  C   UNL     1      33.761 -23.448 -14.919  0.00  0.00    +0.087 C 
ATOM     24  C   UNL     1      34.384 -23.131 -17.226  0.00  0.00    +0.148 C 
ATOM     25  C   UNL     1      36.127 -23.377 -15.522  0.00  0.00    +0.045 C 
ATOM     26  C   UNL     1      36.484 -23.564 -14.190  0.00  0.00    +0.173 C 
ATOM     27  C   UNL     1      34.147 -23.635 -13.594  0.00  0.00    +0.059 C 
ATOM     28  C   UNL     1      35.493 -23.692 -13.225  0.00  0.00    +0.174 C 
ATOM     29  C   UNL     1      33.038 -23.078 -17.560  0.00  0.00    +0.058 C 
ATOM     30  C   UNL     1      32.121 -23.215 -16.538  0.00  0.00    +0.102 C 
BRANCH  26  31
ATOM     31  O   UNL     1      37.802 -23.618 -13.847  0.00  0.00    -0.468 OA
ATOM     32  C   UNL     1      38.491 -24.839 -14.109  0.00  0.00    +0.253 C 
ENDBRANCH  26  31
BRANCH  28  33
ATOM     33  O   UNL     1      35.821 -23.875 -11.915  0.00  0.00    -0.468 OA
ATOM     34  C   UNL     1      35.888 -25.220 -11.445  0.00  0.00    +0.253 C 
ENDBRANCH  28  33
ENDBRANCH  20  24
ENDBRANCH   2  20
TORSDOF 5
ENDMDL
MODEL 2
REMARK VINA RESULT:     -11.6      2.545      4.500
REMARK  Name = 9911830
REMARK  5 active torsions:
REMARK  status: ('A' for Active; 'I' for Inactive)
REMARK    1  A    between atoms: C_2  and  O_20
REMARK    2  A    between atoms: C_3  and  N_10
REMARK    3  A    between atoms: O_20  and  C_24
REMARK    4  A    between atoms: C_26  and  O_31
REMARK    5  A    between atoms: C_28  and  O_33
REMARK                            x       y       z     vdW  Elec       q    Type
REMARK                         _______ _______ _______ _____ _____    ______ ____
ROOT
ATOM      1 CL   UNL     1      34.721 -16.380 -24.965  0.00  0.00    -0.081 Cl
ATOM      2  C   UNL     1      35.335 -18.203 -21.485  0.00  0.00    +0.146 C 
ATOM      3  C   UNL     1      34.762 -15.633 -22.340  0.00  0.00    +0.062 C 
ATOM      4  C   UNL     1      35.190 -17.958 -22.839  0.00  0.00    +0.050 C 
ATOM      5  C   UNL     1      35.201 -17.193 -20.548  0.00  0.00    +0.039 C 
ATOM      6  C   UNL     1      34.900 -16.664 -23.270  0.00  0.00    +0.074 C 
ATOM      7  C   UNL     1      34.911 -15.898 -20.979  0.00  0.00    +0.019 C 
ENDROOT
BRANCH   3  10
ATOM      8  O   UNL     1      30.951  -9.944 -22.265  0.00  0.00    -0.357 OA
ATOM      9  O   UNL     1      32.502 -13.842 -21.564  0.00  0.00    -0.252 OA
ATOM     10  N   UNL     1      34.470 -14.325 -22.739  0.00  0.00    -0.267 N 
ATOM     11  N   UNL     1      33.473 -12.260 -22.985  0.00  0.00    -0.251 N 
ATOM     12  N   UNL     1      31.529 -11.196 -22.095  0.00  0.00    -0.062 NA
ATOM     13  C   UNL     1      33.385 -13.506 -22.346  0.00  0.00    +0.309 C 
ATOM     14  C   UNL     1      32.593 -11.157 -22.870  0.00  0.00    +0.177 C 
ATOM     15  C   UNL     1      32.772  -9.964 -23.551  0.00  0.00    +0.073 C 
ATOM     16  C   UNL     1      31.701  -9.219 -23.134  0.00  0.00    +0.156 C 
ATOM     17  C   UNL     1      31.231  -7.860 -23.430  0.00  0.00    +0.075 C 
ATOM     18  H   UNL     1      35.103 -13.921 -23.375  0.00  0.00    +0.156 HD
ATOM     19  H   UNL     1      34.242 -12.137 -23.589  0.00  0.00    +0.158 HD
ENDBRANCH   3  10
BRANCH   2  20
ATOM     20  O   UNL     1      35.624 -19.485 -21.057  0.00  0.00    -0.453 OA
BRANCH  20  24
ATOM     21  N   UNL     1      32.441 -21.734 -19.640  0.00  0.00    -0.244 NA
ATOM     22  C   UNL     1      34.769 -21.129 -19.508  0.00  0.00    +0.055 C 
ATOM     23  C   UNL     1      33.652 -21.868 -19.068  0.00  0.00    +0.087 C 
ATOM     24  C   UNL     1      34.592 -20.236 -20.574  0.00  0.00    +0.148 C 
ATOM     25  C   UNL     1      36.019 -21.294 -18.886  0.00  0.00    +0.045 C 
ATOM     26  C   UNL     1      36.168 -22.188 -17.830  0.00  0.00    +0.173 C 
ATOM     27  C   UNL     1      33.829 -22.755 -18.009  0.00  0.00    +0.059 C 
ATOM     28  C   UNL     1      35.071 -22.919 -17.391  0.00  0.00    +0.174 C 
ATOM     29  C   UNL     1      33.345 -20.096 -21.166  0.00  0.00    +0.058 C 
ATOM     30  C   UNL     1      32.311 -20.862 -20.666  0.00  0.00    +0.102 C 
BRANCH  26  31
ATOM     31  O   UNL     1      37.386 -22.336 -17.238  0.00  0.00    -0.468 OA
ATOM     32  C   UNL     1      37.568 -21.720 -15.964  0.00  0.00    +0.253 C 
ENDBRANCH  26  31
BRANCH  28  33
ATOM     33  O   UNL     1      35.193 -23.799 -16.358  0.00  0.00    -0.468 OA
ATOM     34  C   UNL     1      34.311 -23.627 -15.251  0.00  0.00    +0.253 C 
ENDBRANCH  28  33
ENDBRANCH  20  24
ENDBRANCH   2  20
TORSDOF 5
ENDMDL
MODEL 3
REMARK VINA RESULT:     -11.6      1.469      1.609
REMARK  Name = 9911830
REMARK  5 active torsions:
REMARK  status: ('A' for Active; 'I' for Inactive)
REMARK    1  A    between atoms: C_2  and  O_20
REMARK    2  A    between atoms: C_3  and  N_10
REMARK    3  A    between atoms: O_20  and  C_24
REMARK    4  A    between atoms: C_26  and  O_31
REMARK    5  A    between atoms: C_28  and  O_33
REMARK                            x       y       z     vdW  Elec       q    Type
REMARK                         _______ _______ _______ _____ _____    ______ ____
ROOT
ATOM      1 CL   UNL     1      37.525 -19.735 -20.248  0.00  0.00    -0.081 Cl
ATOM      2  C   UNL     1      34.719 -22.245 -18.969  0.00  0.00    +0.146 C 
ATOM      3  C   UNL     1      34.801 -19.860 -20.370  0.00  0.00    +0.062 C 
ATOM      4  C   UNL     1      35.944 -21.656 -19.227  0.00  0.00    +0.050 C 
ATOM      5  C   UNL     1      33.534 -21.670 -19.394  0.00  0.00    +0.039 C 
ATOM      6  C   UNL     1      35.986 -20.454 -19.934  0.00  0.00    +0.074 C 
ATOM      7  C   UNL     1      33.576 -20.469 -20.101  0.00  0.00    +0.019 C 
ENDROOT
BRANCH   3  10
ATOM      8  O   UNL     1      33.429 -16.028 -25.877  0.00  0.00    -0.357 OA
ATOM      9  O   UNL     1      33.786 -19.237 -23.109  0.00  0.00    -0.252 OA
ATOM     10  N   UNL     1      34.808 -18.656 -21.082  0.00  0.00    -0.267 N 
ATOM     11  N   UNL     1      34.523 -17.053 -22.715  0.00  0.00    -0.251 N 
ATOM     12  N   UNL     1      33.586 -17.015 -24.912  0.00  0.00    -0.062 NA
ATOM     13  C   UNL     1      34.315 -18.401 -22.383  0.00  0.00    +0.309 C 
ATOM     14  C   UNL     1      34.178 -16.388 -23.916  0.00  0.00    +0.177 C 
ATOM     15  C   UNL     1      34.431 -15.045 -24.144  0.00  0.00    +0.073 C 
ATOM     16  C   UNL     1      33.936 -14.858 -25.408  0.00  0.00    +0.156 C 
ATOM     17  C   UNL     1      33.851 -13.700 -26.306  0.00  0.00    +0.075 C 
ATOM     18  H   UNL     1      35.208 -17.887 -20.617  0.00  0.00    +0.156 HD
ATOM     19  H   UNL     1      34.962 -16.501 -22.028  0.00  0.00    +0.158 HD
ENDBRANCH   3  10
BRANCH   2  20
ATOM     20  O   UNL     1      34.676 -23.436 -18.267  0.00  0.00    -0.453 OA
BRANCH  20  24
ATOM     21  N   UNL     1      32.469 -23.484 -14.756  0.00  0.00    -0.244 NA
ATOM     22  C   UNL     1      34.613 -23.533 -15.854  0.00  0.00    +0.055 C 
ATOM     23  C   UNL     1      33.812 -23.546 -14.694  0.00  0.00    +0.087 C 
ATOM     24  C   UNL     1      33.971 -23.454 -17.098  0.00  0.00    +0.148 C 
ATOM     25  C   UNL     1      36.013 -23.600 -15.752  0.00  0.00    +0.045 C 
ATOM     26  C   UNL     1      36.625 -23.678 -14.504  0.00  0.00    +0.173 C 
ATOM     27  C   UNL     1      34.450 -23.626 -13.459  0.00  0.00    +0.059 C 
ATOM     28  C   UNL     1      35.842 -23.691 -13.357  0.00  0.00    +0.174 C 
ATOM     29  C   UNL     1      32.587 -23.389 -17.166  0.00  0.00    +0.058 C 
ATOM     30  C   UNL     1      31.888 -23.408 -15.976  0.00  0.00    +0.102 C 
BRANCH  26  31
ATOM     31  O   UNL     1      37.983 -23.742 -14.422  0.00  0.00    -0.468 OA
ATOM     32  C   UNL     1      38.576 -25.038 -14.465  0.00  0.00    +0.253 C 
ENDBRANCH  26  31
BRANCH  28  33
ATOM     33  O   UNL     1      36.420 -23.767 -12.125  0.00  0.00    -0.468 OA
ATOM     34  C   UNL     1      36.162 -24.942 -11.359  0.00  0.00    +0.253 C 
ENDBRANCH  28  33
ENDBRANCH  20  24
ENDBRANCH   2  20
TORSDOF 5
ENDMDL
MODEL 4
REMARK VINA RESULT:     -11.5      3.564     10.615
REMARK  Name = 9911830
REMARK  5 active torsions:
REMARK  status: ('A' for Active; 'I' for Inactive)
REMARK    1  A    between atoms: C_2  and  O_20
REMARK    2  A    between atoms: C_3  and  N_10
REMARK    3  A    between atoms: O_20  and  C_24
REMARK    4  A    between atoms: C_26  and  O_31
REMARK    5  A    between atoms: C_28  and  O_33
REMARK                            x       y       z     vdW  Elec       q    Type
REMARK                         _______ _______ _______ _____ _____    ______ ____
ROOT
ATOM      1 CL   UNL     1      36.768 -22.345 -17.634  0.00  0.00    -0.081 Cl
ATOM      2  C   UNL     1      35.439 -20.049 -20.596  0.00  0.00    +0.146 C 
ATOM      3  C   UNL     1      34.342 -21.815 -18.768  0.00  0.00    +0.062 C 
ATOM      4  C   UNL     1      36.268 -20.680 -19.685  0.00  0.00    +0.050 C 
ATOM      5  C   UNL     1      34.074 -20.281 -20.614  0.00  0.00    +0.039 C 
ATOM      6  C   UNL     1      35.716 -21.569 -18.763  0.00  0.00    +0.074 C 
ATOM      7  C   UNL     1      33.522 -21.169 -19.692  0.00  0.00    +0.019 C 
ENDROOT
BRANCH   3  10
ATOM      8  O   UNL     1      29.047 -24.230 -15.160  0.00  0.00    -0.357 OA
ATOM      9  O   UNL     1      31.529 -21.979 -17.779  0.00  0.00    -0.252 OA
ATOM     10  N   UNL     1      33.757 -22.699 -17.856  0.00  0.00    -0.267 N 
ATOM     11  N   UNL     1      32.252 -23.793 -16.493  0.00  0.00    -0.251 N 
ATOM     12  N   UNL     1      29.930 -23.552 -15.991  0.00  0.00    -0.062 NA
ATOM     13  C   UNL     1      32.415 -22.745 -17.412  0.00  0.00    +0.309 C 
ATOM     14  C   UNL     1      31.073 -24.182 -15.814  0.00  0.00    +0.177 C 
ATOM     15  C   UNL     1      31.020 -25.239 -14.920  0.00  0.00    +0.073 C 
ATOM     16  C   UNL     1      29.708 -25.233 -14.527  0.00  0.00    +0.156 C 
ATOM     17  C   UNL     1      28.920 -26.058 -13.603  0.00  0.00    +0.075 C 
ATOM     18  H   UNL     1      34.357 -23.379 -17.474  0.00  0.00    +0.156 HD
ATOM     19  H   UNL     1      33.058 -24.324 -16.296  0.00  0.00    +0.158 HD
ENDBRANCH   3  10
BRANCH   2  20
ATOM     20  O   UNL     1      35.985 -19.168 -21.511  0.00  0.00    -0.453 OA
BRANCH  20  24
ATOM     21  N   UNL     1      33.924 -18.637 -25.070  0.00  0.00    -0.244 NA
ATOM     22  C   UNL     1      34.870 -17.694 -23.065  0.00  0.00    +0.055 C 
ATOM     23  C   UNL     1      34.174 -17.572 -24.285  0.00  0.00    +0.087 C 
ATOM     24  C   UNL     1      35.305 -18.969 -22.678  0.00  0.00    +0.148 C 
ATOM     25  C   UNL     1      35.113 -16.560 -22.270  0.00  0.00    +0.045 C 
ATOM     26  C   UNL     1      34.671 -15.306 -22.679  0.00  0.00    +0.173 C 
ATOM     27  C   UNL     1      33.742 -16.305 -24.669  0.00  0.00    +0.059 C 
ATOM     28  C   UNL     1      33.984 -15.179 -23.880  0.00  0.00    +0.174 C 
ATOM     29  C   UNL     1      35.048 -20.068 -23.484  0.00  0.00    +0.058 C 
ATOM     30  C   UNL     1      34.360 -19.850 -24.660  0.00  0.00    +0.102 C 
BRANCH  26  31
ATOM     31  O   UNL     1      34.915 -14.217 -21.897  0.00  0.00    -0.468 OA
ATOM     32  C   UNL     1      34.149 -14.092 -20.701  0.00  0.00    +0.253 C 
ENDBRANCH  26  31
BRANCH  28  33
ATOM     33  O   UNL     1      33.542 -13.960 -24.299  0.00  0.00    -0.468 OA
ATOM     34  C   UNL     1      33.367 -13.782 -25.703  0.00  0.00    +0.253 C 
ENDBRANCH  28  33
ENDBRANCH  20  24
ENDBRANCH   2  20
TORSDOF 5
ENDMDL
MODEL 5
REMARK VINA RESULT:     -11.4      1.507      1.808
REMARK  Name = 9911830
REMARK  5 active torsions:
REMARK  status: ('A' for Active; 'I' for Inactive)
REMARK    1  A    between atoms: C_2  and  O_20
REMARK    2  A    between atoms: C_3  and  N_10
REMARK    3  A    between atoms: O_20  and  C_24
REMARK    4  A    between atoms: C_26  and  O_31
REMARK    5  A    between atoms: C_28  and  O_33
REMARK                            x       y       z     vdW  Elec       q    Type
REMARK                         _______ _______ _______ _____ _____    ______ ____
ROOT
ATOM      1 CL   UNL     1      32.553 -20.924 -20.244  0.00  0.00    -0.081 Cl
ATOM      2  C   UNL     1      35.883 -21.995 -18.354  0.00  0.00    +0.146 C 
ATOM      3  C   UNL     1      35.221 -20.426 -20.535  0.00  0.00    +0.062 C 
ATOM      4  C   UNL     1      34.554 -21.866 -18.714  0.00  0.00    +0.050 C 
ATOM      5  C   UNL     1      36.890 -21.358 -19.059  0.00  0.00    +0.039 C 
ATOM      6  C   UNL     1      34.219 -21.074 -19.812  0.00  0.00    +0.074 C 
ATOM      7  C   UNL     1      36.556 -20.567 -20.157  0.00  0.00    +0.019 C 
ENDROOT
BRANCH   3  10
ATOM      8  O   UNL     1      34.268 -14.375 -23.596  0.00  0.00    -0.357 OA
ATOM      9  O   UNL     1      35.068 -17.452 -20.772  0.00  0.00    -0.252 OA
ATOM     10  N   UNL     1      34.919 -19.623 -21.640  0.00  0.00    -0.267 N 
ATOM     11  N   UNL     1      34.520 -17.816 -23.016  0.00  0.00    -0.251 N 
ATOM     12  N   UNL     1      34.515 -15.443 -22.743  0.00  0.00    -0.062 NA
ATOM     13  C   UNL     1      34.858 -18.212 -21.713  0.00  0.00    +0.309 C 
ATOM     14  C   UNL     1      34.355 -16.501 -23.513  0.00  0.00    +0.177 C 
ATOM     15  C   UNL     1      34.018 -16.218 -24.826  0.00  0.00    +0.073 C 
ATOM     16  C   UNL     1      33.973 -14.849 -24.835  0.00  0.00    +0.156 C 
ATOM     17  C   UNL     1      33.683 -13.847 -25.868  0.00  0.00    +0.075 C 
ATOM     18  H   UNL     1      34.726 -20.103 -22.477  0.00  0.00    +0.156 HD
ATOM     19  H   UNL     1      34.381 -18.543 -23.666  0.00  0.00    +0.158 HD
ENDBRANCH   3  10
BRANCH   2  20
ATOM     20  O   UNL     1      36.216 -22.781 -17.266  0.00  0.00    -0.453 OA
BRANCH  20  24
ATOM     21  N   UNL     1      33.079 -24.038 -14.862  0.00  0.00    -0.244 NA
ATOM     22  C   UNL     1      35.445 -23.695 -15.168  0.00  0.00    +0.055 C 
ATOM     23  C   UNL     1      34.340 -24.108 -14.395  0.00  0.00    +0.087 C 
ATOM     24  C   UNL     1      35.200 -23.201 -16.456  0.00  0.00    +0.148 C 
ATOM     25  C   UNL     1      36.748 -23.783 -14.648  0.00  0.00    +0.045 C 
ATOM     26  C   UNL     1      36.962 -24.278 -13.365  0.00  0.00    +0.173 C 
ATOM     27  C   UNL     1      34.584 -24.600 -13.114  0.00  0.00    +0.059 C 
ATOM     28  C   UNL     1      35.879 -24.686 -12.598  0.00  0.00    +0.174 C 
ATOM     29  C   UNL     1      33.902 -23.127 -16.940  0.00  0.00    +0.058 C 
ATOM     30  C   UNL     1      32.886 -23.554 -16.110  0.00  0.00    +0.102 C 
BRANCH  26  31
ATOM     31  O   UNL     1      38.231 -24.356 -12.876  0.00  0.00    -0.468 OA
ATOM     32  C   UNL     1      38.977 -25.531 -13.190  0.00  0.00    +0.253 C 
ENDBRANCH  26  31
BRANCH  28  33
ATOM     33  O   UNL     1      36.065 -25.174 -11.339  0.00  0.00    -0.468 OA
ATOM     34  C   UNL     1      35.951 -24.247 -10.261  0.00  0.00    +0.253 C 
ENDBRANCH  28  33
ENDBRANCH  20  24
ENDBRANCH   2  20
TORSDOF 5
ENDMDL
MODEL 6
REMARK VINA RESULT:     -11.3      2.280      3.430
REMARK  Name = 9911830
REMARK  5 active torsions:
REMARK  status: ('A' for Active; 'I' for Inactive)
REMARK    1  A    between atoms: C_2  and  O_20
REMARK    2  A    between atoms: C_3  and  N_10
REMARK    3  A    between atoms: O_20  and  C_24
REMARK    4  A    between atoms: C_26  and  O_31
REMARK    5  A    between atoms: C_28  and  O_33
REMARK                            x       y       z     vdW  Elec       q    Type
REMARK                         _______ _______ _______ _____ _____    ______ ____
ROOT
ATOM      1 CL   UNL     1      37.577 -19.347 -20.675  0.00  0.00    -0.081 Cl
ATOM      2  C   UNL     1      34.932 -21.939 -19.229  0.00  0.00    +0.146 C 
ATOM      3  C   UNL     1      34.855 -19.536 -20.600  0.00  0.00    +0.062 C 
ATOM      4  C   UNL     1      36.120 -21.317 -19.568  0.00  0.00    +0.050 C 
ATOM      5  C   UNL     1      33.705 -21.388 -19.559  0.00  0.00    +0.039 C 
ATOM      6  C   UNL     1      36.082 -20.107 -20.260  0.00  0.00    +0.074 C 
ATOM      7  C   UNL     1      33.667 -20.178 -20.251  0.00  0.00    +0.019 C 
ENDROOT
BRANCH   3  10
ATOM      8  O   UNL     1      33.473 -15.763 -26.145  0.00  0.00    -0.357 OA
ATOM      9  O   UNL     1      33.979 -18.971 -23.399  0.00  0.00    -0.252 OA
ATOM     10  N   UNL     1      34.782 -18.325 -21.295  0.00  0.00    -0.267 N 
ATOM     11  N   UNL     1      34.441 -16.729 -22.925  0.00  0.00    -0.251 N 
ATOM     12  N   UNL     1      33.668 -16.748 -25.184  0.00  0.00    -0.062 NA
ATOM     13  C   UNL     1      34.358 -18.098 -22.625  0.00  0.00    +0.309 C 
ATOM     14  C   UNL     1      34.114 -16.080 -24.139  0.00  0.00    +0.177 C 
ATOM     15  C   UNL     1      34.233 -14.714 -24.331  0.00  0.00    +0.073 C 
ATOM     16  C   UNL     1      33.814 -14.556 -25.625  0.00  0.00    +0.156 C 
ATOM     17  C   UNL     1      33.668 -13.395 -26.513  0.00  0.00    +0.075 C 
ATOM     18  H   UNL     1      35.060 -17.526 -20.792  0.00  0.00    +0.156 HD
ATOM     19  H   UNL     1      34.766 -16.146 -22.199  0.00  0.00    +0.158 HD
ENDBRANCH   3  10
BRANCH   2  20
ATOM     20  O   UNL     1      34.968 -23.139 -18.541  0.00  0.00    -0.453 OA
BRANCH  20  24
ATOM     21  N   UNL     1      35.618 -22.964 -14.449  0.00  0.00    -0.244 NA
ATOM     22  C   UNL     1      34.102 -23.295 -16.292  0.00  0.00    +0.055 C 
ATOM     23  C   UNL     1      34.381 -23.224 -14.912  0.00  0.00    +0.087 C 
ATOM     24  C   UNL     1      35.158 -23.086 -17.190  0.00  0.00    +0.148 C 
ATOM     25  C   UNL     1      32.798 -23.569 -16.740  0.00  0.00    +0.045 C 
ATOM     26  C   UNL     1      31.768 -23.773 -15.827  0.00  0.00    +0.173 C 
ATOM     27  C   UNL     1      33.331 -23.432 -14.020  0.00  0.00    +0.059 C 
ATOM     28  C   UNL     1      32.036 -23.705 -14.466  0.00  0.00    +0.174 C 
ATOM     29  C   UNL     1      36.433 -22.817 -16.717  0.00  0.00    +0.058 C 
ATOM     30  C   UNL     1      36.609 -22.768 -15.349  0.00  0.00    +0.102 C 
BRANCH  26  31
ATOM     31  O   UNL     1      30.510 -24.038 -16.278  0.00  0.00    -0.468 OA
ATOM     32  C   UNL     1      29.547 -22.992 -16.165  0.00  0.00    +0.253 C 
ENDBRANCH  26  31
BRANCH  28  33
ATOM     33  O   UNL     1      31.042 -23.902 -13.553  0.00  0.00    -0.468 OA
ATOM     34  C   UNL     1      30.900 -25.218 -13.024  0.00  0.00    +0.253 C 
ENDBRANCH  28  33
ENDBRANCH  20  24
ENDBRANCH   2  20
TORSDOF 5
ENDMDL
MODEL 7
REMARK VINA RESULT:     -11.1      2.580     11.086
REMARK  Name = 9911830
REMARK  5 active torsions:
REMARK  status: ('A' for Active; 'I' for Inactive)
REMARK    1  A    between atoms: C_2  and  O_20
REMARK    2  A    between atoms: C_3  and  N_10
REMARK    3  A    between atoms: O_20  and  C_24
REMARK    4  A    between atoms: C_26  and  O_31
REMARK    5  A    between atoms: C_28  and  O_33
REMARK                            x       y       z     vdW  Elec       q    Type
REMARK                         _______ _______ _______ _____ _____    ______ ____
ROOT
ATOM      1 CL   UNL     1      33.303 -21.697 -19.288  0.00  0.00    -0.081 Cl
ATOM      2  C   UNL     1      36.126 -19.363 -20.834  0.00  0.00    +0.146 C 
ATOM      3  C   UNL     1      35.987 -21.359 -18.922  0.00  0.00    +0.062 C 
ATOM      4  C   UNL     1      34.906 -19.959 -20.568  0.00  0.00    +0.050 C 
ATOM      5  C   UNL     1      37.278 -19.742 -20.167  0.00  0.00    +0.039 C 
ATOM      6  C   UNL     1      34.835 -20.965 -19.605  0.00  0.00    +0.074 C 
ATOM      7  C   UNL     1      37.208 -20.748 -19.205  0.00  0.00    +0.019 C 
ENDROOT
BRANCH   3  10
ATOM      8  O   UNL     1      37.756 -24.083 -12.894  0.00  0.00    -0.357 OA
ATOM      9  O   UNL     1      37.348 -21.529 -16.270  0.00  0.00    -0.252 OA
ATOM     10  N   UNL     1      35.951 -22.366 -17.953  0.00  0.00    -0.267 N 
ATOM     11  N   UNL     1      36.300 -23.606 -16.039  0.00  0.00    -0.251 N 
ATOM     12  N   UNL     1      37.565 -23.313 -14.034  0.00  0.00    -0.062 NA
ATOM     13  C   UNL     1      36.612 -22.409 -16.703  0.00  0.00    +0.309 C 
ATOM     14  C   UNL     1      36.750 -24.042 -14.770  0.00  0.00    +0.177 C 
ATOM     15  C   UNL     1      36.380 -25.250 -14.203  0.00  0.00    +0.073 C 
ATOM     16  C   UNL     1      37.045 -25.235 -13.006  0.00  0.00    +0.156 C 
ATOM     17  C   UNL     1      37.134 -26.172 -11.880  0.00  0.00    +0.075 C 
ATOM     18  H   UNL     1      35.391 -23.147 -18.167  0.00  0.00    +0.156 HD
ATOM     19  H   UNL     1      35.693 -24.219 -16.515  0.00  0.00    +0.158 HD
ENDBRANCH   3  10
BRANCH   2  20
ATOM     20  O   UNL     1      36.197 -18.364 -21.788  0.00  0.00    -0.453 OA
BRANCH  20  24
ATOM     21  N   UNL     1      33.614 -18.682 -25.016  0.00  0.00    -0.244 NA
ATOM     22  C   UNL     1      34.733 -17.302 -23.389  0.00  0.00    +0.055 C 
ATOM     23  C   UNL     1      33.864 -17.470 -24.486  0.00  0.00    +0.087 C 
ATOM     24  C   UNL     1      35.343 -18.444 -22.850  0.00  0.00    +0.148 C 
ATOM     25  C   UNL     1      34.971 -16.022 -22.861  0.00  0.00    +0.045 C 
ATOM     26  C   UNL     1      34.353 -14.905 -23.416  0.00  0.00    +0.173 C 
ATOM     27  C   UNL     1      33.258 -16.336 -25.022  0.00  0.00    +0.059 C 
ATOM     28  C   UNL     1      33.496 -15.063 -24.497  0.00  0.00    +0.174 C 
ATOM     29  C   UNL     1      35.087 -19.694 -23.393  0.00  0.00    +0.058 C 
ATOM     30  C   UNL     1      34.222 -19.758 -24.467  0.00  0.00    +0.102 C 
BRANCH  26  31
ATOM     31  O   UNL     1      34.595 -13.671 -22.893  0.00  0.00    -0.468 OA
ATOM     32  C   UNL     1      33.659 -13.176 -21.937  0.00  0.00    +0.253 C 
ENDBRANCH  26  31
BRANCH  28  33
ATOM     33  O   UNL     1      32.879 -13.984 -25.057  0.00  0.00    -0.468 OA
ATOM     34  C   UNL     1      33.307 -13.596 -26.360  0.00  0.00    +0.253 C 
ENDBRANCH  28  33
ENDBRANCH  20  24
ENDBRANCH   2  20
TORSDOF 5
ENDMDL
MODEL 8
REMARK VINA RESULT:     -11.0      3.380      6.593
REMARK  Name = 9911830
REMARK  5 active torsions:
REMARK  status: ('A' for Active; 'I' for Inactive)
REMARK    1  A    between atoms: C_2  and  O_20
REMARK    2  A    between atoms: C_3  and  N_10
REMARK    3  A    between atoms: O_20  and  C_24
REMARK    4  A    between atoms: C_26  and  O_31
REMARK    5  A    between atoms: C_28  and  O_33
REMARK                            x       y       z     vdW  Elec       q    Type
REMARK                         _______ _______ _______ _____ _____    ______ ____
ROOT
ATOM      1 CL   UNL     1      33.466 -14.540 -25.798  0.00  0.00    -0.081 Cl
ATOM      2  C   UNL     1      34.449 -17.021 -22.851  0.00  0.00    +0.146 C 
ATOM      3  C   UNL     1      34.249 -14.282 -23.197  0.00  0.00    +0.062 C 
ATOM      4  C   UNL     1      34.058 -16.522 -24.081  0.00  0.00    +0.050 C 
ATOM      5  C   UNL     1      34.742 -16.182 -21.789  0.00  0.00    +0.039 C 
ATOM      6  C   UNL     1      33.957 -15.143 -24.255  0.00  0.00    +0.074 C 
ATOM      7  C   UNL     1      34.641 -14.802 -21.964  0.00  0.00    +0.019 C 
ENDROOT
BRANCH   3  10
ATOM      8  O   UNL     1      31.004  -8.291 -22.516  0.00  0.00    -0.357 OA
ATOM      9  O   UNL     1      32.044 -12.414 -22.445  0.00  0.00    -0.252 OA
ATOM     10  N   UNL     1      34.156 -12.894 -23.338  0.00  0.00    -0.267 N 
ATOM     11  N   UNL     1      33.409 -10.712 -23.287  0.00  0.00    -0.251 N 
ATOM     12  N   UNL     1      31.427  -9.614 -22.533  0.00  0.00    -0.062 NA
ATOM     13  C   UNL     1      33.090 -12.041 -22.967  0.00  0.00    +0.309 C 
ATOM     14  C   UNL     1      32.622  -9.554 -23.083  0.00  0.00    +0.177 C 
ATOM     15  C   UNL     1      33.034  -8.280 -23.438  0.00  0.00    +0.073 C 
ATOM     16  C   UNL     1      31.970  -7.505 -23.058  0.00  0.00    +0.156 C 
ATOM     17  C   UNL     1      31.687  -6.066 -23.120  0.00  0.00    +0.075 C 
ATOM     18  H   UNL     1      34.934 -12.453 -23.748  0.00  0.00    +0.156 HD
ATOM     19  H   UNL     1      34.289 -10.568 -23.705  0.00  0.00    +0.158 HD
ENDBRANCH   3  10
BRANCH   2  20
ATOM     20  O   UNL     1      34.552 -18.389 -22.677  0.00  0.00    -0.453 OA
BRANCH  20  24
ATOM     21  N   UNL     1      37.725 -19.746 -20.378  0.00  0.00    -0.244 NA
ATOM     22  C   UNL     1      35.384 -19.846 -20.939  0.00  0.00    +0.055 C 
ATOM     23  C   UNL     1      36.499 -20.269 -20.187  0.00  0.00    +0.087 C 
ATOM     24  C   UNL     1      35.581 -18.851 -21.908  0.00  0.00    +0.148 C 
ATOM     25  C   UNL     1      34.118 -20.413 -20.714  0.00  0.00    +0.045 C 
ATOM     26  C   UNL     1      33.951 -21.399 -19.746  0.00  0.00    +0.173 C 
ATOM     27  C   UNL     1      36.303 -21.256 -19.225  0.00  0.00    +0.059 C 
ATOM     28  C   UNL     1      35.045 -21.821 -19.001  0.00  0.00    +0.174 C 
ATOM     29  C   UNL     1      36.843 -18.311 -22.107  0.00  0.00    +0.058 C 
ATOM     30  C   UNL     1      37.872 -18.789 -21.322  0.00  0.00    +0.102 C 
BRANCH  26  31
ATOM     31  O   UNL     1      32.718 -21.939 -19.540  0.00  0.00    -0.468 OA
ATOM     32  C   UNL     1      32.258 -22.012 -18.191  0.00  0.00    +0.253 C 
ENDBRANCH  26  31
BRANCH  28  33
ATOM     33  O   UNL     1      34.905 -22.785 -18.048  0.00  0.00    -0.468 OA
ATOM     34  C   UNL     1      35.656 -22.625 -16.847  0.00  0.00    +0.253 C 
ENDBRANCH  28  33
ENDBRANCH  20  24
ENDBRANCH   2  20
TORSDOF 5
ENDMDL
MODEL 9
REMARK VINA RESULT:     -10.9      1.819      2.900
REMARK  Name = 9911830
REMARK  5 active torsions:
REMARK  status: ('A' for Active; 'I' for Inactive)
REMARK    1  A    between atoms: C_2  and  O_20
REMARK    2  A    between atoms: C_3  and  N_10
REMARK    3  A    between atoms: O_20  and  C_24
REMARK    4  A    between atoms: C_26  and  O_31
REMARK    5  A    between atoms: C_28  and  O_33
REMARK                            x       y       z     vdW  Elec       q    Type
REMARK                         _______ _______ _______ _____ _____    ______ ____
ROOT
ATOM      1 CL   UNL     1      37.481 -19.125 -21.054  0.00  0.00    -0.081 Cl
ATOM      2  C   UNL     1      35.079 -21.850 -19.437  0.00  0.00    +0.146 C 
ATOM      3  C   UNL     1      34.789 -19.571 -20.980  0.00  0.00    +0.062 C 
ATOM      4  C   UNL     1      36.206 -21.142 -19.814  0.00  0.00    +0.050 C 
ATOM      5  C   UNL     1      33.809 -21.445 -19.814  0.00  0.00    +0.039 C 
ATOM      6  C   UNL     1      36.061 -19.994 -20.592  0.00  0.00    +0.074 C 
ATOM      7  C   UNL     1      33.664 -20.297 -20.592  0.00  0.00    +0.019 C 
ENDROOT
BRANCH   3  10
ATOM      8  O   UNL     1      34.431 -12.790 -21.867  0.00  0.00    -0.357 OA
ATOM      9  O   UNL     1      34.851 -16.685 -20.212  0.00  0.00    -0.252 OA
ATOM     10  N   UNL     1      34.609 -18.425 -21.762  0.00  0.00    -0.267 N 
ATOM     11  N   UNL     1      34.415 -16.237 -22.465  0.00  0.00    -0.251 N 
ATOM     12  N   UNL     1      34.554 -14.097 -21.413  0.00  0.00    -0.062 NA
ATOM     13  C   UNL     1      34.647 -17.070 -21.359  0.00  0.00    +0.309 C 
ATOM     14  C   UNL     1      34.369 -14.823 -22.497  0.00  0.00    +0.177 C 
ATOM     15  C   UNL     1      34.130 -14.093 -23.650  0.00  0.00    +0.073 C 
ATOM     16  C   UNL     1      34.179 -12.800 -23.201  0.00  0.00    +0.156 C 
ATOM     17  C   UNL     1      34.019 -11.492 -23.848  0.00  0.00    +0.075 C 
ATOM     18  H   UNL     1      34.434 -18.583 -22.717  0.00  0.00    +0.156 HD
ATOM     19  H   UNL     1      34.265 -16.693 -23.326  0.00  0.00    +0.158 HD
ENDBRANCH   3  10
BRANCH   2  20
ATOM     20  O   UNL     1      35.222 -22.988 -18.664  0.00  0.00    -0.453 OA
BRANCH  20  24
ATOM     21  N   UNL     1      36.114 -22.452 -14.650  0.00  0.00    -0.244 NA
ATOM     22  C   UNL     1      34.531 -23.088 -16.352  0.00  0.00    +0.055 C 
ATOM     23  C   UNL     1      34.890 -22.888 -15.004  0.00  0.00    +0.087 C 
ATOM     24  C   UNL     1      35.492 -22.819 -17.337  0.00  0.00    +0.148 C 
ATOM     25  C   UNL     1      33.244 -23.543 -16.685  0.00  0.00    +0.045 C 
ATOM     26  C   UNL     1      32.309 -23.802 -15.687  0.00  0.00    +0.173 C 
ATOM     27  C   UNL     1      33.935 -23.154 -14.025  0.00  0.00    +0.059 C 
ATOM     28  C   UNL     1      32.656 -23.608 -14.356  0.00  0.00    +0.174 C 
ATOM     29  C   UNL     1      36.754 -22.370 -16.977  0.00  0.00    +0.058 C 
ATOM     30  C   UNL     1      37.012 -22.204 -15.631  0.00  0.00    +0.102 C 
BRANCH  26  31
ATOM     31  O   UNL     1      31.066 -24.244 -16.026  0.00  0.00    -0.468 OA
ATOM     32  C   UNL     1      30.019 -23.276 -16.053  0.00  0.00    +0.253 C 
ENDBRANCH  26  31
BRANCH  28  33
ATOM     33  O   UNL     1      31.757 -23.856 -13.362  0.00  0.00    -0.468 OA
ATOM     34  C   UNL     1      31.494 -25.222 -13.052  0.00  0.00    +0.253 C 
ENDBRANCH  28  33
ENDBRANCH  20  24
ENDBRANCH   2  20
TORSDOF 5
ENDMDL
