MODEL 1
REMARK VINA RESULT:     -11.8      0.000      0.000
REMARK  Name = 24941254
REMARK  6 active torsions:
REMARK  status: ('A' for Active; 'I' for Inactive)
REMARK    1  A    between atoms: C_1  and  S_21
REMARK    2  A    between atoms: C_4  and  C_9
REMARK    3  A    between atoms: N_8  and  C_11
REMARK    4  A    between atoms: C_12  and  C_18
REMARK    5  A    between atoms: C_18  and  O_19
REMARK    6  A    between atoms: S_21  and  N_24
REMARK                            x       y       z     vdW  Elec       q    Type
REMARK                         _______ _______ _______ _____ _____    ______ ____
ROOT
ATOM      1  C   UNL     1      35.061 -19.922 -20.727  0.00  0.00    +0.122 C 
ATOM      2  C   UNL     1      35.216 -20.964 -19.813  0.00  0.00    +0.024 C 
ATOM      3  C   UNL     1      33.786 -19.578 -21.180  0.00  0.00    +0.020 C 
ATOM      4  C   UNL     1      34.100 -21.662 -19.353  0.00  0.00    +0.055 C 
ATOM      5  C   UNL     1      32.670 -20.276 -20.720  0.00  0.00    +0.002 C 
ATOM      6  C   UNL     1      32.827 -21.318 -19.806  0.00  0.00    +0.005 C 
ENDROOT
BRANCH   4   9
ATOM      7  O   UNL     1      34.059 -23.914 -18.772  0.00  0.00    -0.270 OA
ATOM      8  N   UNL     1      34.671 -22.375 -17.110  0.00  0.00    -0.280 N 
ATOM      9  C   UNL     1      34.262 -22.748 -18.399  0.00  0.00    +0.250 C 
ATOM     10  H   UNL     1      34.792 -21.410 -16.963  0.00  0.00    +0.155 HD
BRANCH   8  11
ATOM     11  C   UNL     1      34.932 -23.206 -15.993  0.00  0.00    +0.057 C 
ATOM     12  C   UNL     1      36.219 -23.315 -15.465  0.00  0.00    +0.089 C 
ATOM     13  C   UNL     1      33.880 -23.921 -15.422  0.00  0.00    +0.015 C 
ATOM     14  C   UNL     1      36.452 -24.139 -14.363  0.00  0.00    +0.008 C 
ATOM     15  C   UNL     1      34.114 -24.746 -14.321  0.00  0.00    +0.001 C 
ATOM     16  C   UNL     1      35.400 -24.855 -13.793  0.00  0.00    +0.000 C 
BRANCH  12  18
ATOM     17  O   UNL     1      37.267 -21.472 -16.571  0.00  0.00    -0.245 OA
ATOM     18  C   UNL     1      37.340 -22.581 -16.037  0.00  0.00    +0.339 C 
BRANCH  18  19
ATOM     19  O   UNL     1      38.514 -23.259 -15.923  0.00  0.00    -0.477 OA
ATOM     20  H   UNL     1      39.040 -23.158 -15.154  0.00  0.00    +0.295 HD
ENDBRANCH  18  19
ENDBRANCH  12  18
ENDBRANCH   8  11
ENDBRANCH   4   9
BRANCH   1  21
ATOM     21  S   UNL     1      36.473 -19.040 -21.311  0.00  0.00    +0.064 S 
ATOM     22  O   UNL     1      37.382 -18.871 -20.197  0.00  0.00    -0.153 OA
ATOM     23  O   UNL     1      36.912 -19.666 -22.541  0.00  0.00    -0.153 OA
BRANCH  21  24
ATOM     24  N   UNL     1      35.753 -17.531 -21.681  0.00  0.00    -0.151 NA
ATOM     25  C   UNL     1      34.901 -16.940 -20.614  0.00  0.00    +0.101 C 
ATOM     26  C   UNL     1      35.107 -17.441 -23.025  0.00  0.00    +0.122 C 
ATOM     27  C   UNL     1      34.748 -15.446 -20.882  0.00  0.00    +0.045 C 
ATOM     28  C   UNL     1      34.471 -16.102 -23.311  0.00  0.00    -0.008 C 
ATOM     29  C   UNL     1      34.269 -15.164 -22.283  0.00  0.00    -0.023 C 
ATOM     30  C   UNL     1      34.039 -15.806 -24.610  0.00  0.00    -0.003 C 
ATOM     31  C   UNL     1      33.670 -13.932 -22.580  0.00  0.00    -0.004 C 
ATOM     32  C   UNL     1      33.433 -14.582 -24.893  0.00  0.00    -0.000 C 
ATOM     33  C   UNL     1      33.251 -13.645 -23.878  0.00  0.00    -0.000 C 
ENDBRANCH  21  24
ENDBRANCH   1  21
TORSDOF 6
ENDMDL
MODEL 2
REMARK VINA RESULT:     -11.7      5.586      9.174
REMARK  Name = 24941254
REMARK  6 active torsions:
REMARK  status: ('A' for Active; 'I' for Inactive)
REMARK    1  A    between atoms: C_1  and  S_21
REMARK    2  A    between atoms: C_4  and  C_9
REMARK    3  A    between atoms: N_8  and  C_11
REMARK    4  A    between atoms: C_12  and  C_18
REMARK    5  A    between atoms: C_18  and  O_19
REMARK    6  A    between atoms: S_21  and  N_24
REMARK                            x       y       z     vdW  Elec       q    Type
REMARK                         _______ _______ _______ _____ _____    ______ ____
ROOT
ATOM      1  C   UNL     1      32.517 -11.900 -21.601  0.00  0.00    +0.122 C 
ATOM      2  C   UNL     1      32.979 -13.140 -21.160  0.00  0.00    +0.024 C 
ATOM      3  C   UNL     1      32.900 -11.419 -22.854  0.00  0.00    +0.020 C 
ATOM      4  C   UNL     1      33.825 -13.898 -21.970  0.00  0.00    +0.055 C 
ATOM      5  C   UNL     1      33.746 -12.177 -23.664  0.00  0.00    +0.002 C 
ATOM      6  C   UNL     1      34.208 -13.417 -23.221  0.00  0.00    +0.005 C 
ENDROOT
BRANCH   4   9
ATOM      7  O   UNL     1      34.460 -15.379 -20.293  0.00  0.00    -0.270 OA
ATOM      8  N   UNL     1      34.540 -16.148 -22.508  0.00  0.00    -0.280 N 
ATOM      9  C   UNL     1      34.307 -15.191 -21.510  0.00  0.00    +0.250 C 
ATOM     10  H   UNL     1      34.373 -15.852 -23.432  0.00  0.00    +0.155 HD
BRANCH   8  11
ATOM     11  C   UNL     1      34.981 -17.485 -22.361  0.00  0.00    +0.057 C 
ATOM     12  C   UNL     1      34.696 -18.447 -23.331  0.00  0.00    +0.089 C 
ATOM     13  C   UNL     1      35.711 -17.836 -21.225  0.00  0.00    +0.015 C 
ATOM     14  C   UNL     1      35.143 -19.758 -23.164  0.00  0.00    +0.008 C 
ATOM     15  C   UNL     1      36.156 -19.147 -21.058  0.00  0.00    +0.001 C 
ATOM     16  C   UNL     1      35.871 -20.108 -22.028  0.00  0.00    +0.000 C 
BRANCH  12  18
ATOM     17  O   UNL     1      32.944 -18.723 -24.935  0.00  0.00    -0.245 OA
ATOM     18  C   UNL     1      33.937 -18.115 -24.530  0.00  0.00    +0.339 C 
BRANCH  18  19
ATOM     19  O   UNL     1      34.445 -17.034 -25.181  0.00  0.00    -0.477 OA
ATOM     20  H   UNL     1      33.984 -16.665 -25.908  0.00  0.00    +0.295 HD
ENDBRANCH  18  19
ENDBRANCH  12  18
ENDBRANCH   8  11
ENDBRANCH   4   9
BRANCH   1  21
ATOM     21  S   UNL     1      31.448 -10.939 -20.577  0.00  0.00    +0.064 S 
ATOM     22  O   UNL     1      30.086 -11.189 -21.000  0.00  0.00    -0.153 OA
ATOM     23  O   UNL     1      31.849 -11.143 -19.200  0.00  0.00    -0.153 OA
BRANCH  21  24
ATOM     24  N   UNL     1      31.905  -9.362 -21.062  0.00  0.00    -0.151 NA
ATOM     25  C   UNL     1      31.970  -8.344 -19.979  0.00  0.00    +0.101 C 
ATOM     26  C   UNL     1      31.215  -8.840 -22.280  0.00  0.00    +0.122 C 
ATOM     27  C   UNL     1      32.831  -7.177 -20.455  0.00  0.00    +0.045 C 
ATOM     28  C   UNL     1      31.633  -7.442 -22.669  0.00  0.00    -0.008 C 
ATOM     29  C   UNL     1      32.375  -6.638 -21.787  0.00  0.00    -0.023 C 
ATOM     30  C   UNL     1      31.241  -6.926 -23.912  0.00  0.00    -0.003 C 
ATOM     31  C   UNL     1      32.741  -5.342 -22.177  0.00  0.00    -0.004 C 
ATOM     32  C   UNL     1      31.601  -5.631 -24.285  0.00  0.00    -0.000 C 
ATOM     33  C   UNL     1      32.353  -4.841 -23.418  0.00  0.00    -0.000 C 
ENDBRANCH  21  24
ENDBRANCH   1  21
TORSDOF 6
ENDMDL
MODEL 3
REMARK VINA RESULT:     -11.6      3.832      9.377
REMARK  Name = 24941254
REMARK  6 active torsions:
REMARK  status: ('A' for Active; 'I' for Inactive)
REMARK    1  A    between atoms: C_1  and  S_21
REMARK    2  A    between atoms: C_4  and  C_9
REMARK    3  A    between atoms: N_8  and  C_11
REMARK    4  A    between atoms: C_12  and  C_18
REMARK    5  A    between atoms: C_18  and  O_19
REMARK    6  A    between atoms: S_21  and  N_24
REMARK                            x       y       z     vdW  Elec       q    Type
REMARK                         _______ _______ _______ _____ _____    ______ ____
ROOT
ATOM      1  C   UNL     1      36.616 -24.123 -14.011  0.00  0.00    +0.122 C 
ATOM      2  C   UNL     1      36.339 -23.119 -14.940  0.00  0.00    +0.024 C 
ATOM      3  C   UNL     1      37.844 -24.784 -14.046  0.00  0.00    +0.020 C 
ATOM      4  C   UNL     1      37.289 -22.778 -15.902  0.00  0.00    +0.055 C 
ATOM      5  C   UNL     1      38.794 -24.443 -15.008  0.00  0.00    +0.002 C 
ATOM      6  C   UNL     1      38.516 -23.440 -15.936  0.00  0.00    +0.005 C 
ENDROOT
BRANCH   4   9
ATOM      7  O   UNL     1      37.441 -20.588 -16.671  0.00  0.00    -0.270 OA
ATOM      8  N   UNL     1      36.250 -22.121 -17.988  0.00  0.00    -0.280 N 
ATOM      9  C   UNL     1      37.001 -21.731 -16.870  0.00  0.00    +0.250 C 
ATOM     10  H   UNL     1      35.971 -23.065 -18.007  0.00  0.00    +0.155 HD
BRANCH   8  11
ATOM     11  C   UNL     1      35.843 -21.336 -19.094  0.00  0.00    +0.057 C 
ATOM     12  C   UNL     1      34.542 -21.415 -19.591  0.00  0.00    +0.089 C 
ATOM     13  C   UNL     1      36.765 -20.474 -19.688  0.00  0.00    +0.015 C 
ATOM     14  C   UNL     1      34.164 -20.632 -20.682  0.00  0.00    +0.008 C 
ATOM     15  C   UNL     1      36.387 -19.692 -20.779  0.00  0.00    +0.001 C 
ATOM     16  C   UNL     1      35.087 -19.771 -21.276  0.00  0.00    +0.000 C 
BRANCH  12  18
ATOM     17  O   UNL     1      33.713 -23.510 -18.787  0.00  0.00    -0.245 OA
ATOM     18  C   UNL     1      33.553 -22.305 -18.995  0.00  0.00    +0.339 C 
BRANCH  18  19
ATOM     19  O   UNL     1      32.400 -21.657 -18.678  0.00  0.00    -0.477 OA
ATOM     20  H   UNL     1      32.172 -20.863 -19.120  0.00  0.00    +0.295 HD
ENDBRANCH  18  19
ENDBRANCH  12  18
ENDBRANCH   8  11
ENDBRANCH   4   9
BRANCH   1  21
ATOM     21  S   UNL     1      35.413 -24.557 -12.794  0.00  0.00    +0.064 S 
ATOM     22  O   UNL     1      35.624 -25.945 -12.439  0.00  0.00    -0.153 OA
ATOM     23  O   UNL     1      35.411 -23.522 -11.781  0.00  0.00    -0.153 OA
BRANCH  21  24
ATOM     24  N   UNL     1      33.983 -24.427 -13.725  0.00  0.00    -0.151 NA
ATOM     25  C   UNL     1      33.707 -23.086 -14.307  0.00  0.00    +0.101 C 
ATOM     26  C   UNL     1      32.762 -25.032 -13.113  0.00  0.00    +0.122 C 
ATOM     27  C   UNL     1      32.721 -23.246 -15.461  0.00  0.00    +0.045 C 
ATOM     28  C   UNL     1      31.517 -24.887 -13.956  0.00  0.00    -0.008 C 
ATOM     29  C   UNL     1      31.487 -24.010 -15.055  0.00  0.00    -0.023 C 
ATOM     30  C   UNL     1      30.364 -25.604 -13.613  0.00  0.00    -0.003 C 
ATOM     31  C   UNL     1      30.314 -23.894 -15.813  0.00  0.00    -0.004 C 
ATOM     32  C   UNL     1      29.198 -25.472 -14.367  0.00  0.00    -0.000 C 
ATOM     33  C   UNL     1      29.174 -24.618 -15.468  0.00  0.00    -0.000 C 
ENDBRANCH  21  24
ENDBRANCH   1  21
TORSDOF 6
ENDMDL
MODEL 4
REMARK VINA RESULT:     -11.5      2.133      9.669
REMARK  Name = 24941254
REMARK  6 active torsions:
REMARK  status: ('A' for Active; 'I' for Inactive)
REMARK    1  A    between atoms: C_1  and  S_21
REMARK    2  A    between atoms: C_4  and  C_9
REMARK    3  A    between atoms: N_8  and  C_11
REMARK    4  A    between atoms: C_12  and  C_18
REMARK    5  A    between atoms: C_18  and  O_19
REMARK    6  A    between atoms: S_21  and  N_24
REMARK                            x       y       z     vdW  Elec       q    Type
REMARK                         _______ _______ _______ _____ _____    ______ ____
ROOT
ATOM      1  C   UNL     1      34.950 -21.389 -19.581  0.00  0.00    +0.122 C 
ATOM      2  C   UNL     1      34.441 -20.560 -20.581  0.00  0.00    +0.024 C 
ATOM      3  C   UNL     1      36.278 -21.254 -19.173  0.00  0.00    +0.020 C 
ATOM      4  C   UNL     1      35.258 -19.598 -21.173  0.00  0.00    +0.055 C 
ATOM      5  C   UNL     1      37.095 -20.292 -19.766  0.00  0.00    +0.002 C 
ATOM      6  C   UNL     1      36.585 -19.464 -20.766  0.00  0.00    +0.005 C 
ENDROOT
BRANCH   4   9
ATOM      7  O   UNL     1      34.091 -19.240 -23.153  0.00  0.00    -0.270 OA
ATOM      8  N   UNL     1      34.965 -17.362 -22.053  0.00  0.00    -0.280 N 
ATOM      9  C   UNL     1      34.727 -18.734 -22.216  0.00  0.00    +0.250 C 
ATOM     10  H   UNL     1      35.486 -17.109 -21.257  0.00  0.00    +0.155 HD
BRANCH   8  11
ATOM     11  C   UNL     1      34.553 -16.291 -22.883  0.00  0.00    +0.057 C 
ATOM     12  C   UNL     1      34.156 -15.070 -22.337  0.00  0.00    +0.089 C 
ATOM     13  C   UNL     1      34.546 -16.471 -24.266  0.00  0.00    +0.015 C 
ATOM     14  C   UNL     1      33.754 -14.029 -23.175  0.00  0.00    +0.008 C 
ATOM     15  C   UNL     1      34.143 -15.431 -25.104  0.00  0.00    +0.001 C 
ATOM     16  C   UNL     1      33.747 -14.210 -24.558  0.00  0.00    +0.000 C 
BRANCH  12  18
ATOM     17  O   UNL     1      34.758 -15.531 -20.068  0.00  0.00    -0.245 OA
ATOM     18  C   UNL     1      34.151 -14.847 -20.896  0.00  0.00    +0.339 C 
BRANCH  18  19
ATOM     19  O   UNL     1      33.388 -13.779 -20.541  0.00  0.00    -0.477 OA
ATOM     20  H   UNL     1      32.894 -13.319 -21.191  0.00  0.00    +0.295 HD
ENDBRANCH  18  19
ENDBRANCH  12  18
ENDBRANCH   8  11
ENDBRANCH   4   9
BRANCH   1  21
ATOM     21  S   UNL     1      33.917 -22.608 -18.832  0.00  0.00    +0.064 S 
ATOM     22  O   UNL     1      32.587 -22.049 -18.713  0.00  0.00    -0.153 OA
ATOM     23  O   UNL     1      34.138 -23.863 -19.520  0.00  0.00    -0.153 OA
BRANCH  21  24
ATOM     24  N   UNL     1      34.630 -22.693 -17.278  0.00  0.00    -0.151 NA
ATOM     25  C   UNL     1      36.111 -22.829 -17.250  0.00  0.00    +0.101 C 
ATOM     26  C   UNL     1      33.966 -23.624 -16.316  0.00  0.00    +0.122 C 
ATOM     27  C   UNL     1      36.617 -22.407 -15.874  0.00  0.00    +0.045 C 
ATOM     28  C   UNL     1      34.630 -23.682 -14.961  0.00  0.00    -0.008 C 
ATOM     29  C   UNL     1      35.907 -23.132 -14.759  0.00  0.00    -0.023 C 
ATOM     30  C   UNL     1      33.981 -24.330 -13.902  0.00  0.00    -0.003 C 
ATOM     31  C   UNL     1      36.499 -23.209 -13.490  0.00  0.00    -0.004 C 
ATOM     32  C   UNL     1      34.583 -24.412 -12.647  0.00  0.00    -0.000 C 
ATOM     33  C   UNL     1      35.841 -23.849 -12.441  0.00  0.00    -0.000 C 
ENDBRANCH  21  24
ENDBRANCH   1  21
TORSDOF 6
ENDMDL
MODEL 5
REMARK VINA RESULT:     -11.4      1.419      2.380
REMARK  Name = 24941254
REMARK  6 active torsions:
REMARK  status: ('A' for Active; 'I' for Inactive)
REMARK    1  A    between atoms: C_1  and  S_21
REMARK    2  A    between atoms: C_4  and  C_9
REMARK    3  A    between atoms: N_8  and  C_11
REMARK    4  A    between atoms: C_12  and  C_18
REMARK    5  A    between atoms: C_18  and  O_19
REMARK    6  A    between atoms: S_21  and  N_24
REMARK                            x       y       z     vdW  Elec       q    Type
REMARK                         _______ _______ _______ _____ _____    ______ ____
ROOT
ATOM      1  C   UNL     1      35.266 -19.875 -20.946  0.00  0.00    +0.122 C 
ATOM      2  C   UNL     1      35.636 -20.668 -19.860  0.00  0.00    +0.024 C 
ATOM      3  C   UNL     1      33.929 -19.811 -21.339  0.00  0.00    +0.020 C 
ATOM      4  C   UNL     1      34.669 -21.398 -19.168  0.00  0.00    +0.055 C 
ATOM      5  C   UNL     1      32.962 -20.540 -20.647  0.00  0.00    +0.002 C 
ATOM      6  C   UNL     1      33.333 -21.334 -19.561  0.00  0.00    +0.005 C 
ENDROOT
BRANCH   4   9
ATOM      7  O   UNL     1      36.259 -22.447 -17.832  0.00  0.00    -0.270 OA
ATOM      8  N   UNL     1      34.004 -22.694 -17.234  0.00  0.00    -0.280 N 
ATOM      9  C   UNL     1      35.055 -22.225 -18.035  0.00  0.00    +0.250 C 
ATOM     10  H   UNL     1      33.098 -22.435 -17.522  0.00  0.00    +0.155 HD
BRANCH   8  11
ATOM     11  C   UNL     1      34.074 -23.489 -16.064  0.00  0.00    +0.057 C 
ATOM     12  C   UNL     1      32.939 -23.727 -15.288  0.00  0.00    +0.089 C 
ATOM     13  C   UNL     1      35.301 -24.037 -15.692  0.00  0.00    +0.015 C 
ATOM     14  C   UNL     1      33.033 -24.514 -14.140  0.00  0.00    +0.008 C 
ATOM     15  C   UNL     1      35.395 -24.822 -14.543  0.00  0.00    +0.001 C 
ATOM     16  C   UNL     1      34.261 -25.060 -13.767  0.00  0.00    +0.000 C 
BRANCH  12  18
ATOM     17  O   UNL     1      31.254 -22.953 -16.799  0.00  0.00    -0.245 OA
ATOM     18  C   UNL     1      31.641 -23.170 -15.649  0.00  0.00    +0.339 C 
BRANCH  18  19
ATOM     19  O   UNL     1      30.872 -22.904 -14.559  0.00  0.00    -0.477 OA
ATOM     20  H   UNL     1      31.003 -23.384 -13.765  0.00  0.00    +0.295 HD
ENDBRANCH  18  19
ENDBRANCH  12  18
ENDBRANCH   8  11
ENDBRANCH   4   9
BRANCH   1  21
ATOM     21  S   UNL     1      36.489 -18.953 -21.824  0.00  0.00    +0.064 S 
ATOM     22  O   UNL     1      37.667 -18.870 -20.987  0.00  0.00    -0.153 OA
ATOM     23  O   UNL     1      36.567 -19.485 -23.169  0.00  0.00    -0.153 OA
BRANCH  21  24
ATOM     24  N   UNL     1      35.729 -17.420 -21.876  0.00  0.00    -0.151 NA
ATOM     25  C   UNL     1      34.910 -17.061 -20.687  0.00  0.00    +0.101 C 
ATOM     26  C   UNL     1      35.029 -17.093 -23.156  0.00  0.00    +0.122 C 
ATOM     27  C   UNL     1      34.720 -15.547 -20.662  0.00  0.00    +0.045 C 
ATOM     28  C   UNL     1      34.359 -15.740 -23.160  0.00  0.00    -0.008 C 
ATOM     29  C   UNL     1      34.182 -15.018 -21.967  0.00  0.00    -0.023 C 
ATOM     30  C   UNL     1      33.871 -15.216 -24.364  0.00  0.00    -0.003 C 
ATOM     31  C   UNL     1      33.551 -13.767 -22.004  0.00  0.00    -0.004 C 
ATOM     32  C   UNL     1      33.234 -13.975 -24.388  0.00  0.00    -0.000 C 
ATOM     33  C   UNL     1      33.076 -13.251 -23.209  0.00  0.00    -0.000 C 
ENDBRANCH  21  24
ENDBRANCH   1  21
TORSDOF 6
ENDMDL
MODEL 6
REMARK VINA RESULT:     -11.4      2.271      9.407
REMARK  Name = 24941254
REMARK  6 active torsions:
REMARK  status: ('A' for Active; 'I' for Inactive)
REMARK    1  A    between atoms: C_1  and  S_21
REMARK    2  A    between atoms: C_4  and  C_9
REMARK    3  A    between atoms: N_8  and  C_11
REMARK    4  A    between atoms: C_12  and  C_18
REMARK    5  A    between atoms: C_18  and  O_19
REMARK    6  A    between atoms: S_21  and  N_24
REMARK                            x       y       z     vdW  Elec       q    Type
REMARK                         _______ _______ _______ _____ _____    ______ ____
ROOT
ATOM      1  C   UNL     1      35.043 -21.884 -19.129  0.00  0.00    +0.122 C 
ATOM      2  C   UNL     1      35.111 -20.890 -20.106  0.00  0.00    +0.024 C 
ATOM      3  C   UNL     1      36.068 -22.010 -18.191  0.00  0.00    +0.020 C 
ATOM      4  C   UNL     1      36.203 -20.024 -20.145  0.00  0.00    +0.055 C 
ATOM      5  C   UNL     1      37.161 -21.144 -18.231  0.00  0.00    +0.002 C 
ATOM      6  C   UNL     1      37.228 -20.151 -19.209  0.00  0.00    +0.005 C 
ENDROOT
BRANCH   4   9
ATOM      7  O   UNL     1      37.377 -18.695 -21.651  0.00  0.00    -0.270 OA
ATOM      8  N   UNL     1      35.051 -18.410 -21.534  0.00  0.00    -0.280 N 
ATOM      9  C   UNL     1      36.273 -18.988 -21.164  0.00  0.00    +0.250 C 
ATOM     10  H   UNL     1      34.257 -18.746 -21.059  0.00  0.00    +0.155 HD
BRANCH   8  11
ATOM     11  C   UNL     1      34.808 -17.408 -22.505  0.00  0.00    +0.057 C 
ATOM     12  C   UNL     1      34.343 -17.739 -23.779  0.00  0.00    +0.089 C 
ATOM     13  C   UNL     1      35.039 -16.073 -22.172  0.00  0.00    +0.015 C 
ATOM     14  C   UNL     1      34.110 -16.733 -24.718  0.00  0.00    +0.008 C 
ATOM     15  C   UNL     1      34.808 -15.069 -23.113  0.00  0.00    +0.001 C 
ATOM     16  C   UNL     1      34.343 -15.400 -24.385  0.00  0.00    +0.000 C 
BRANCH  12  18
ATOM     17  O   UNL     1      34.858 -20.067 -23.962  0.00  0.00    -0.245 OA
ATOM     18  C   UNL     1      34.090 -19.123 -24.159  0.00  0.00    +0.339 C 
BRANCH  18  19
ATOM     19  O   UNL     1      32.886 -19.278 -24.773  0.00  0.00    -0.477 OA
ATOM     20  H   UNL     1      32.692 -18.795 -25.553  0.00  0.00    +0.295 HD
ENDBRANCH  18  19
ENDBRANCH  12  18
ENDBRANCH   8  11
ENDBRANCH   4   9
BRANCH   1  21
ATOM     21  S   UNL     1      33.662 -22.982 -19.079  0.00  0.00    +0.064 S 
ATOM     22  O   UNL     1      32.533 -22.301 -19.677  0.00  0.00    -0.153 OA
ATOM     23  O   UNL     1      34.100 -24.271 -19.573  0.00  0.00    -0.153 OA
BRANCH  21  24
ATOM     24  N   UNL     1      33.422 -23.086 -17.387  0.00  0.00    -0.151 NA
ATOM     25  C   UNL     1      34.362 -23.974 -16.652  0.00  0.00    +0.101 C 
ATOM     26  C   UNL     1      32.007 -23.287 -16.951  0.00  0.00    +0.122 C 
ATOM     27  C   UNL     1      34.343 -23.591 -15.175  0.00  0.00    +0.045 C 
ATOM     28  C   UNL     1      31.835 -23.388 -15.454  0.00  0.00    -0.008 C 
ATOM     29  C   UNL     1      32.945 -23.566 -14.610  0.00  0.00    -0.023 C 
ATOM     30  C   UNL     1      30.548 -23.344 -14.903  0.00  0.00    -0.003 C 
ATOM     31  C   UNL     1      32.751 -23.663 -13.226  0.00  0.00    -0.004 C 
ATOM     32  C   UNL     1      30.365 -23.453 -13.524  0.00  0.00    -0.000 C 
ATOM     33  C   UNL     1      31.467 -23.610 -12.687  0.00  0.00    -0.000 C 
ENDBRANCH  21  24
ENDBRANCH   1  21
TORSDOF 6
ENDMDL
MODEL 7
REMARK VINA RESULT:     -11.3      6.960     11.015
REMARK  Name = 24941254
REMARK  6 active torsions:
REMARK  status: ('A' for Active; 'I' for Inactive)
REMARK    1  A    between atoms: C_1  and  S_21
REMARK    2  A    between atoms: C_4  and  C_9
REMARK    3  A    between atoms: N_8  and  C_11
REMARK    4  A    between atoms: C_12  and  C_18
REMARK    5  A    between atoms: C_18  and  O_19
REMARK    6  A    between atoms: S_21  and  N_24
REMARK                            x       y       z     vdW  Elec       q    Type
REMARK                         _______ _______ _______ _____ _____    ______ ____
ROOT
ATOM      1  C   UNL     1      31.976  -8.901 -20.900  0.00  0.00    +0.122 C 
ATOM      2  C   UNL     1      32.449  -9.784 -21.871  0.00  0.00    +0.024 C 
ATOM      3  C   UNL     1      31.356  -9.395 -19.752  0.00  0.00    +0.020 C 
ATOM      4  C   UNL     1      32.301 -11.160 -21.694  0.00  0.00    +0.055 C 
ATOM      5  C   UNL     1      31.208 -10.770 -19.575  0.00  0.00    +0.002 C 
ATOM      6  C   UNL     1      31.681 -11.653 -20.547  0.00  0.00    +0.005 C 
ENDROOT
BRANCH   4   9
ATOM      7  O   UNL     1      32.972 -11.667 -23.863  0.00  0.00    -0.270 OA
ATOM      8  N   UNL     1      33.055 -13.387 -22.269  0.00  0.00    -0.280 N 
ATOM      9  C   UNL     1      32.794 -12.081 -22.706  0.00  0.00    +0.250 C 
ATOM     10  H   UNL     1      32.864 -13.567 -21.321  0.00  0.00    +0.155 HD
BRANCH   8  11
ATOM     11  C   UNL     1      33.561 -14.481 -23.013  0.00  0.00    +0.057 C 
ATOM     12  C   UNL     1      34.349 -15.460 -22.407  0.00  0.00    +0.089 C 
ATOM     13  C   UNL     1      33.259 -14.571 -24.372  0.00  0.00    +0.015 C 
ATOM     14  C   UNL     1      34.835 -16.529 -23.161  0.00  0.00    +0.008 C 
ATOM     15  C   UNL     1      33.747 -15.639 -25.126  0.00  0.00    +0.001 C 
ATOM     16  C   UNL     1      34.534 -16.617 -24.520  0.00  0.00    +0.000 C 
BRANCH  12  18
ATOM     17  O   UNL     1      34.655 -14.377 -20.297  0.00  0.00    -0.245 OA
ATOM     18  C   UNL     1      34.682 -15.397 -20.990  0.00  0.00    +0.339 C 
BRANCH  18  19
ATOM     19  O   UNL     1      35.038 -16.610 -20.488  0.00  0.00    -0.477 OA
ATOM     20  H   UNL     1      35.213 -16.705 -19.573  0.00  0.00    +0.295 HD
ENDBRANCH  18  19
ENDBRANCH  12  18
ENDBRANCH   8  11
ENDBRANCH   4   9
BRANCH   1  21
ATOM     21  S   UNL     1      32.161  -7.160 -21.124  0.00  0.00    +0.064 S 
ATOM     22  O   UNL     1      30.843  -6.598 -21.335  0.00  0.00    -0.153 OA
ATOM     23  O   UNL     1      33.022  -6.664 -20.070  0.00  0.00    -0.153 OA
BRANCH  21  24
ATOM     24  N   UNL     1      33.024  -7.137 -22.603  0.00  0.00    -0.151 NA
ATOM     25  C   UNL     1      34.497  -7.316 -22.498  0.00  0.00    +0.101 C 
ATOM     26  C   UNL     1      32.661  -6.031 -23.540  0.00  0.00    +0.122 C 
ATOM     27  C   UNL     1      35.035  -7.754 -23.857  0.00  0.00    +0.045 C 
ATOM     28  C   UNL     1      33.450  -6.035 -24.827  0.00  0.00    -0.008 C 
ATOM     29  C   UNL     1      34.601  -6.830 -24.966  0.00  0.00    -0.023 C 
ATOM     30  C   UNL     1      33.054  -5.202 -25.882  0.00  0.00    -0.003 C 
ATOM     31  C   UNL     1      35.315  -6.806 -26.172  0.00  0.00    -0.004 C 
ATOM     32  C   UNL     1      33.779  -5.176 -27.073  0.00  0.00    -0.000 C 
ATOM     33  C   UNL     1      34.908  -5.980 -27.218  0.00  0.00    -0.000 C 
ENDBRANCH  21  24
ENDBRANCH   1  21
TORSDOF 6
ENDMDL
MODEL 8
REMARK VINA RESULT:     -10.9      7.354     11.253
REMARK  Name = 24941254
REMARK  6 active torsions:
REMARK  status: ('A' for Active; 'I' for Inactive)
REMARK    1  A    between atoms: C_1  and  S_21
REMARK    2  A    between atoms: C_4  and  C_9
REMARK    3  A    between atoms: N_8  and  C_11
REMARK    4  A    between atoms: C_12  and  C_18
REMARK    5  A    between atoms: C_18  and  O_19
REMARK    6  A    between atoms: S_21  and  N_24
REMARK                            x       y       z     vdW  Elec       q    Type
REMARK                         _______ _______ _______ _____ _____    ______ ____
ROOT
ATOM      1  C   UNL     1      32.296  -9.644 -22.219  0.00  0.00    +0.122 C 
ATOM      2  C   UNL     1      32.561 -11.011 -22.297  0.00  0.00    +0.024 C 
ATOM      3  C   UNL     1      31.758  -9.104 -21.050  0.00  0.00    +0.020 C 
ATOM      4  C   UNL     1      32.288 -11.838 -21.208  0.00  0.00    +0.055 C 
ATOM      5  C   UNL     1      31.486  -9.931 -19.960  0.00  0.00    +0.002 C 
ATOM      6  C   UNL     1      31.751 -11.298 -20.040  0.00  0.00    +0.005 C 
ENDROOT
BRANCH   4   9
ATOM      7  O   UNL     1      31.805 -14.060 -20.715  0.00  0.00    -0.270 OA
ATOM      8  N   UNL     1      33.685 -13.627 -22.051  0.00  0.00    -0.280 N 
ATOM      9  C   UNL     1      32.565 -13.264 -21.289  0.00  0.00    +0.250 C 
ATOM     10  H   UNL     1      34.192 -12.883 -22.447  0.00  0.00    +0.155 HD
BRANCH   8  11
ATOM     11  C   UNL     1      34.179 -14.925 -22.327  0.00  0.00    +0.057 C 
ATOM     12  C   UNL     1      34.145 -15.447 -23.621  0.00  0.00    +0.089 C 
ATOM     13  C   UNL     1      34.707 -15.684 -21.283  0.00  0.00    +0.015 C 
ATOM     14  C   UNL     1      34.639 -16.728 -23.868  0.00  0.00    +0.008 C 
ATOM     15  C   UNL     1      35.199 -16.965 -21.531  0.00  0.00    +0.001 C 
ATOM     16  C   UNL     1      35.165 -17.487 -22.823  0.00  0.00    +0.000 C 
BRANCH  12  18
ATOM     17  O   UNL     1      33.523 -13.451 -24.783  0.00  0.00    -0.245 OA
ATOM     18  C   UNL     1      33.601 -14.681 -24.735  0.00  0.00    +0.339 C 
BRANCH  18  19
ATOM     19  O   UNL     1      33.173 -15.478 -25.750  0.00  0.00    -0.477 OA
ATOM     20  H   UNL     1      32.784 -16.309 -25.561  0.00  0.00    +0.295 HD
ENDBRANCH  18  19
ENDBRANCH  12  18
ENDBRANCH   8  11
ENDBRANCH   4   9
BRANCH   1  21
ATOM     21  S   UNL     1      32.639  -8.596 -23.598  0.00  0.00    +0.064 S 
ATOM     22  O   UNL     1      34.067  -8.628 -23.833  0.00  0.00    -0.153 OA
ATOM     23  O   UNL     1      31.703  -8.928 -24.652  0.00  0.00    -0.153 OA
BRANCH  21  24
ATOM     24  N   UNL     1      32.213  -7.077 -22.934  0.00  0.00    -0.151 NA
ATOM     25  C   UNL     1      30.881  -7.007 -22.275  0.00  0.00    +0.101 C 
ATOM     26  C   UNL     1      32.462  -5.898 -23.818  0.00  0.00    +0.122 C 
ATOM     27  C   UNL     1      30.859  -5.799 -21.342  0.00  0.00    +0.045 C 
ATOM     28  C   UNL     1      32.062  -4.577 -23.205  0.00  0.00    -0.008 C 
ATOM     29  C   UNL     1      31.270  -4.529 -22.044  0.00  0.00    -0.023 C 
ATOM     30  C   UNL     1      32.451  -3.383 -23.825  0.00  0.00    -0.003 C 
ATOM     31  C   UNL     1      30.911  -3.287 -21.504  0.00  0.00    -0.004 C 
ATOM     32  C   UNL     1      32.079  -2.151 -23.285  0.00  0.00    -0.000 C 
ATOM     33  C   UNL     1      31.311  -2.104 -22.124  0.00  0.00    -0.000 C 
ENDBRANCH  21  24
ENDBRANCH   1  21
TORSDOF 6
ENDMDL
MODEL 9
REMARK VINA RESULT:     -10.8      6.433     12.748
REMARK  Name = 24941254
REMARK  6 active torsions:
REMARK  status: ('A' for Active; 'I' for Inactive)
REMARK    1  A    between atoms: C_1  and  S_21
REMARK    2  A    between atoms: C_4  and  C_9
REMARK    3  A    between atoms: N_8  and  C_11
REMARK    4  A    between atoms: C_12  and  C_18
REMARK    5  A    between atoms: C_18  and  O_19
REMARK    6  A    between atoms: S_21  and  N_24
REMARK                            x       y       z     vdW  Elec       q    Type
REMARK                         _______ _______ _______ _____ _____    ______ ____
ROOT
ATOM      1  C   UNL     1      32.693 -12.499 -22.801  0.00  0.00    +0.122 C 
ATOM      2  C   UNL     1      32.660 -11.109 -22.916  0.00  0.00    +0.024 C 
ATOM      3  C   UNL     1      32.108 -13.121 -21.697  0.00  0.00    +0.020 C 
ATOM      4  C   UNL     1      32.043 -10.342 -21.928  0.00  0.00    +0.055 C 
ATOM      5  C   UNL     1      31.491 -12.354 -20.709  0.00  0.00    +0.002 C 
ATOM      6  C   UNL     1      31.459 -10.964 -20.825  0.00  0.00    +0.005 C 
ENDROOT
BRANCH   4   9
ATOM      7  O   UNL     1      31.719  -8.212 -21.051  0.00  0.00    -0.270 OA
ATOM      8  N   UNL     1      32.338  -8.375 -23.308  0.00  0.00    -0.280 N 
ATOM      9  C   UNL     1      32.009  -8.893 -22.047  0.00  0.00    +0.250 C 
ATOM     10  H   UNL     1      32.546  -9.040 -24.003  0.00  0.00    +0.155 HD
BRANCH   8  11
ATOM     11  C   UNL     1      32.414  -7.020 -23.712  0.00  0.00    +0.057 C 
ATOM     12  C   UNL     1      33.622  -6.460 -24.128  0.00  0.00    +0.089 C 
ATOM     13  C   UNL     1      31.256  -6.242 -23.690  0.00  0.00    +0.015 C 
ATOM     14  C   UNL     1      33.672  -5.122 -24.522  0.00  0.00    +0.008 C 
ATOM     15  C   UNL     1      31.306  -4.904 -24.083  0.00  0.00    +0.001 C 
ATOM     16  C   UNL     1      32.514  -4.345 -24.499  0.00  0.00    +0.000 C 
BRANCH  12  18
ATOM     17  O   UNL     1      35.365  -7.715 -25.179  0.00  0.00    -0.245 OA
ATOM     18  C   UNL     1      34.851  -7.244 -24.163  0.00  0.00    +0.339 C 
BRANCH  18  19
ATOM     19  O   UNL     1      35.393  -7.411 -22.927  0.00  0.00    -0.477 OA
ATOM     20  H   UNL     1      34.933  -7.905 -22.277  0.00  0.00    +0.295 HD
ENDBRANCH  18  19
ENDBRANCH  12  18
ENDBRANCH   8  11
ENDBRANCH   4   9
BRANCH   1  21
ATOM     21  S   UNL     1      33.475 -13.471 -24.050  0.00  0.00    +0.064 S 
ATOM     22  O   UNL     1      32.462 -13.853 -25.012  0.00  0.00    -0.153 OA
ATOM     23  O   UNL     1      34.674 -12.777 -24.468  0.00  0.00    -0.153 OA
BRANCH  21  24
ATOM     24  N   UNL     1      33.918 -14.843 -23.128  0.00  0.00    -0.151 NA
ATOM     25  C   UNL     1      34.867 -14.595 -22.010  0.00  0.00    +0.101 C 
ATOM     26  C   UNL     1      34.294 -16.054 -23.920  0.00  0.00    +0.122 C 
ATOM     27  C   UNL     1      34.778 -15.757 -21.025  0.00  0.00    +0.045 C 
ATOM     28  C   UNL     1      34.692 -17.240 -23.074  0.00  0.00    -0.008 C 
ATOM     29  C   UNL     1      34.956 -17.092 -21.701  0.00  0.00    -0.023 C 
ATOM     30  C   UNL     1      34.841 -18.497 -23.675  0.00  0.00    -0.003 C 
ATOM     31  C   UNL     1      35.330 -18.212 -20.946  0.00  0.00    -0.004 C 
ATOM     32  C   UNL     1      35.226 -19.602 -22.917  0.00  0.00    -0.000 C 
ATOM     33  C   UNL     1      35.468 -19.460 -21.552  0.00  0.00    -0.000 C 
ENDBRANCH  21  24
ENDBRANCH   1  21
TORSDOF 6
ENDMDL
