MODEL 1
REMARK VINA RESULT:     -12.1      0.000      0.000
REMARK  Name = 24878044
REMARK  6 active torsions:
REMARK  status: ('A' for Active; 'I' for Inactive)
REMARK    1  A    between atoms: N_2  and  C_6
REMARK    2  A    between atoms: C_3  and  C_18
REMARK    3  A    between atoms: C_7  and  S_12
REMARK    4  A    between atoms: S_12  and  N_15
REMARK    5  A    between atoms: C_18  and  S_19
REMARK    6  A    between atoms: S_19  and  C_31
REMARK                            x       y       z     vdW  Elec       q    Type
REMARK                         _______ _______ _______ _____ _____    ______ ____
ROOT
ATOM      1  O   UNL     1      34.544 -19.667 -24.037  0.00  0.00    -0.274 OA
ATOM      2  N   UNL     1      34.666 -18.607 -21.943  0.00  0.00    -0.283 N 
ATOM      3  C   UNL     1      34.667 -18.669 -23.332  0.00  0.00    +0.238 C 
ATOM      4  H   UNL     1      34.792 -17.714 -21.548  0.00  0.00    +0.155 HD
ENDROOT
BRANCH   2   6
ATOM      5 CL   UNL     1      37.208 -19.702 -20.669  0.00  0.00    -0.081 Cl
ATOM      6  C   UNL     1      34.504 -19.679 -21.034  0.00  0.00    +0.061 C 
ATOM      7  C   UNL     1      34.115 -21.789 -19.251  0.00  0.00    +0.123 C 
ATOM      8  C   UNL     1      35.597 -20.259 -20.391  0.00  0.00    +0.072 C 
ATOM      9  C   UNL     1      33.216 -20.154 -20.786  0.00  0.00    +0.017 C 
ATOM     10  C   UNL     1      35.402 -21.314 -19.499  0.00  0.00    +0.033 C 
ATOM     11  C   UNL     1      33.021 -21.209 -19.894  0.00  0.00    +0.021 C 
BRANCH   7  12
ATOM     12  S   UNL     1      33.870 -23.109 -18.136  0.00  0.00    +0.057 S 
ATOM     13  O   UNL     1      33.807 -24.349 -18.897  0.00  0.00    -0.153 OA
ATOM     14  O   UNL     1      34.827 -22.977 -17.046  0.00  0.00    -0.153 OA
BRANCH  12  15
ATOM     15  N   UNL     1      32.309 -22.748 -17.542  0.00  0.00    -0.203 NA
ATOM     16  H   UNL     1      31.701 -22.491 -18.319  0.00  0.00    +0.144 HD
ATOM     17  H   UNL     1      32.366 -21.972 -16.883  0.00  0.00    +0.144 HD
ENDBRANCH  12  15
ENDBRANCH   7  12
ENDBRANCH   2   6
BRANCH   3  18
ATOM     18  C   UNL     1      34.869 -17.306 -23.960  0.00  0.00    +0.152 C 
BRANCH  18  19
ATOM     19  S   UNL     1      35.071 -16.082 -22.647  0.00  0.00    -0.047 S 
BRANCH  19  31
ATOM     20  O   UNL     1      33.435 -14.852 -24.258  0.00  0.00    -0.262 OA
ATOM     21  N   UNL     1      33.370 -14.061 -22.046  0.00  0.00    -0.250 N 
ATOM     22  C   UNL     1      32.073 -14.062 -19.921  0.00  0.00    +0.027 C 
ATOM     23  C   UNL     1      32.015 -12.549 -19.900  0.00  0.00    +0.029 C 
ATOM     24  C   UNL     1      33.334 -14.513 -20.638  0.00  0.00    +0.099 C 
ATOM     25  C   UNL     1      32.251 -11.978 -21.273  0.00  0.00    -0.009 C 
ATOM     26  C   UNL     1      32.908 -12.707 -22.291  0.00  0.00    +0.051 C 
ATOM     27  C   UNL     1      31.828 -10.655 -21.505  0.00  0.00    -0.007 C 
ATOM     28  C   UNL     1      33.130 -12.054 -23.518  0.00  0.00    +0.014 C 
ATOM     29  C   UNL     1      32.039 -10.044 -22.735  0.00  0.00    -0.022 C 
ATOM     30  C   UNL     1      32.695 -10.743 -23.739  0.00  0.00    -0.003 C 
ATOM     31  C   UNL     1      33.821 -14.896 -23.094  0.00  0.00    +0.280 C 
ATOM     32  C   UNL     1      31.553  -8.657 -22.978  0.00  0.00    +0.031 C 
ENDBRANCH  19  31
ENDBRANCH  18  19
ENDBRANCH   3  18
TORSDOF 6
ENDMDL
MODEL 2
REMARK VINA RESULT:     -11.2      1.206      2.325
REMARK  Name = 24878044
REMARK  6 active torsions:
REMARK  status: ('A' for Active; 'I' for Inactive)
REMARK    1  A    between atoms: N_2  and  C_6
REMARK    2  A    between atoms: C_3  and  C_18
REMARK    3  A    between atoms: C_7  and  S_12
REMARK    4  A    between atoms: S_12  and  N_15
REMARK    5  A    between atoms: C_18  and  S_19
REMARK    6  A    between atoms: S_19  and  C_31
REMARK                            x       y       z     vdW  Elec       q    Type
REMARK                         _______ _______ _______ _____ _____    ______ ____
ROOT
ATOM      1  O   UNL     1      34.437 -19.215 -23.955  0.00  0.00    -0.274 OA
ATOM      2  N   UNL     1      35.008 -18.426 -21.816  0.00  0.00    -0.283 N 
ATOM      3  C   UNL     1      34.848 -18.342 -23.195  0.00  0.00    +0.238 C 
ATOM      4  H   UNL     1      35.365 -17.624 -21.370  0.00  0.00    +0.155 HD
ENDROOT
BRANCH   2   6
ATOM      5 CL   UNL     1      37.379 -19.751 -20.437  0.00  0.00    -0.081 Cl
ATOM      6  C   UNL     1      34.715 -19.531 -20.981  0.00  0.00    +0.061 C 
ATOM      7  C   UNL     1      34.069 -21.699 -19.349  0.00  0.00    +0.123 C 
ATOM      8  C   UNL     1      35.721 -20.214 -20.299  0.00  0.00    +0.072 C 
ATOM      9  C   UNL     1      33.385 -19.932 -20.847  0.00  0.00    +0.017 C 
ATOM     10  C   UNL     1      35.398 -21.298 -19.483  0.00  0.00    +0.033 C 
ATOM     11  C   UNL     1      33.061 -21.016 -20.031  0.00  0.00    +0.021 C 
BRANCH   7  12
ATOM     12  S   UNL     1      33.664 -23.056 -18.328  0.00  0.00    +0.057 S 
ATOM     13  O   UNL     1      32.377 -22.791 -17.700  0.00  0.00    -0.153 OA
ATOM     14  O   UNL     1      33.859 -24.282 -19.089  0.00  0.00    -0.153 OA
BRANCH  12  15
ATOM     15  N   UNL     1      34.888 -22.947 -17.141  0.00  0.00    -0.203 NA
ATOM     16  H   UNL     1      35.583 -23.677 -17.301  0.00  0.00    +0.144 HD
ATOM     17  H   UNL     1      34.477 -23.065 -16.216  0.00  0.00    +0.144 HD
ENDBRANCH  12  15
ENDBRANCH   7  12
ENDBRANCH   2   6
BRANCH   3  18
ATOM     18  C   UNL     1      35.271 -16.992 -23.733  0.00  0.00    +0.152 C 
BRANCH  18  19
ATOM     19  S   UNL     1      33.796 -15.988 -24.017  0.00  0.00    -0.047 S 
BRANCH  19  31
ATOM     20  O   UNL     1      34.408 -15.200 -21.611  0.00  0.00    -0.262 OA
ATOM     21  N   UNL     1      33.395 -13.539 -22.930  0.00  0.00    -0.250 N 
ATOM     22  C   UNL     1      33.789 -11.466 -24.250  0.00  0.00    +0.027 C 
ATOM     23  C   UNL     1      32.764 -10.700 -23.442  0.00  0.00    +0.029 C 
ATOM     24  C   UNL     1      33.415 -12.938 -24.280  0.00  0.00    +0.099 C 
ATOM     25  C   UNL     1      32.516 -11.360 -22.112  0.00  0.00    -0.009 C 
ATOM     26  C   UNL     1      32.815 -12.723 -21.879  0.00  0.00    +0.051 C 
ATOM     27  C   UNL     1      31.928 -10.577 -21.100  0.00  0.00    -0.007 C 
ATOM     28  C   UNL     1      32.486 -13.253 -20.617  0.00  0.00    +0.014 C 
ATOM     29  C   UNL     1      31.638 -11.122 -19.855  0.00  0.00    -0.022 C 
ATOM     30  C   UNL     1      31.912 -12.461 -19.617  0.00  0.00    -0.003 C 
ATOM     31  C   UNL     1      33.913 -14.830 -22.670  0.00  0.00    +0.280 C 
ATOM     32  C   UNL     1      31.050 -10.272 -18.782  0.00  0.00    +0.031 C 
ENDBRANCH  19  31
ENDBRANCH  18  19
ENDBRANCH   3  18
TORSDOF 6
ENDMDL
MODEL 3
REMARK VINA RESULT:     -10.8      5.709     11.725
REMARK  Name = 24878044
REMARK  6 active torsions:
REMARK  status: ('A' for Active; 'I' for Inactive)
REMARK    1  A    between atoms: N_2  and  C_6
REMARK    2  A    between atoms: C_3  and  C_18
REMARK    3  A    between atoms: C_7  and  S_12
REMARK    4  A    between atoms: S_12  and  N_15
REMARK    5  A    between atoms: C_18  and  S_19
REMARK    6  A    between atoms: S_19  and  C_31
REMARK                            x       y       z     vdW  Elec       q    Type
REMARK                         _______ _______ _______ _____ _____    ______ ____
ROOT
ATOM      1  O   UNL     1      31.786 -22.326 -17.573  0.00  0.00    -0.274 OA
ATOM      2  N   UNL     1      34.049 -22.792 -18.002  0.00  0.00    -0.283 N 
ATOM      3  C   UNL     1      32.810 -22.982 -17.401  0.00  0.00    +0.238 C 
ATOM      4  H   UNL     1      34.764 -23.412 -17.730  0.00  0.00    +0.155 HD
ENDROOT
BRANCH   2   6
ATOM      5 CL   UNL     1      37.000 -22.049 -18.165  0.00  0.00    -0.081 Cl
ATOM      6  C   UNL     1      34.401 -21.810 -18.959  0.00  0.00    +0.061 C 
ATOM      7  C   UNL     1      35.025 -19.871 -20.865  0.00  0.00    +0.123 C 
ATOM      8  C   UNL     1      35.721 -21.392 -19.122  0.00  0.00    +0.072 C 
ATOM      9  C   UNL     1      33.391 -21.258 -19.749  0.00  0.00    +0.017 C 
ATOM     10  C   UNL     1      36.033 -20.423 -20.075  0.00  0.00    +0.033 C 
ATOM     11  C   UNL     1      33.703 -20.289 -20.702  0.00  0.00    +0.021 C 
BRANCH   7  12
ATOM     12  S   UNL     1      35.415 -18.658 -22.058  0.00  0.00    +0.057 S 
ATOM     13  O   UNL     1      34.877 -19.086 -23.342  0.00  0.00    -0.153 OA
ATOM     14  O   UNL     1      35.058 -17.351 -21.523  0.00  0.00    -0.153 OA
BRANCH  12  15
ATOM     15  N   UNL     1      37.118 -18.784 -22.106  0.00  0.00    -0.203 NA
ATOM     16  H   UNL     1      37.431 -18.796 -23.077  0.00  0.00    +0.144 HD
ATOM     17  H   UNL     1      37.409 -19.646 -21.644  0.00  0.00    +0.144 HD
ENDBRANCH  12  15
ENDBRANCH   7  12
ENDBRANCH   2   6
BRANCH   3  18
ATOM     18  C   UNL     1      32.825 -24.140 -16.426  0.00  0.00    +0.152 C 
BRANCH  18  19
ATOM     19  S   UNL     1      32.923 -23.485 -14.745  0.00  0.00    -0.047 S 
BRANCH  19  31
ATOM     20  O   UNL     1      35.301 -22.563 -15.273  0.00  0.00    -0.262 OA
ATOM     21  N   UNL     1      35.257 -24.151 -13.541  0.00  0.00    -0.250 N 
ATOM     22  C   UNL     1      35.384 -24.480 -11.077  0.00  0.00    +0.027 C 
ATOM     23  C   UNL     1      36.537 -25.451 -11.218  0.00  0.00    +0.029 C 
ATOM     24  C   UNL     1      34.516 -24.538 -12.322  0.00  0.00    +0.099 C 
ATOM     25  C   UNL     1      37.239 -25.273 -12.538  0.00  0.00    -0.009 C 
ATOM     26  C   UNL     1      36.614 -24.656 -13.647  0.00  0.00    +0.051 C 
ATOM     27  C   UNL     1      38.545 -25.787 -12.652  0.00  0.00    -0.007 C 
ATOM     28  C   UNL     1      37.340 -24.597 -14.852  0.00  0.00    +0.014 C 
ATOM     29  C   UNL     1      39.246 -25.692 -13.848  0.00  0.00    -0.022 C 
ATOM     30  C   UNL     1      38.641 -25.101 -14.948  0.00  0.00    -0.003 C 
ATOM     31  C   UNL     1      34.685 -23.334 -14.544  0.00  0.00    +0.280 C 
ATOM     32  C   UNL     1      40.642 -26.206 -13.942  0.00  0.00    +0.031 C 
ENDBRANCH  19  31
ENDBRANCH  18  19
ENDBRANCH   3  18
TORSDOF 6
ENDMDL
MODEL 4
REMARK VINA RESULT:     -10.5      3.523     10.277
REMARK  Name = 24878044
REMARK  6 active torsions:
REMARK  status: ('A' for Active; 'I' for Inactive)
REMARK    1  A    between atoms: N_2  and  C_6
REMARK    2  A    between atoms: C_3  and  C_18
REMARK    3  A    between atoms: C_7  and  S_12
REMARK    4  A    between atoms: S_12  and  N_15
REMARK    5  A    between atoms: C_18  and  S_19
REMARK    6  A    between atoms: S_19  and  C_31
REMARK                            x       y       z     vdW  Elec       q    Type
REMARK                         _______ _______ _______ _____ _____    ______ ____
ROOT
ATOM      1  O   UNL     1      33.937 -20.122 -20.448  0.00  0.00    -0.274 OA
ATOM      2  N   UNL     1      35.727 -19.239 -21.688  0.00  0.00    -0.283 N 
ATOM      3  C   UNL     1      35.087 -20.168 -20.876  0.00  0.00    +0.238 C 
ATOM      4  H   UNL     1      36.663 -19.437 -21.922  0.00  0.00    +0.155 HD
ENDROOT
BRANCH   2   6
ATOM      5 CL   UNL     1      34.413 -19.439 -24.430  0.00  0.00    -0.081 Cl
ATOM      6  C   UNL     1      35.188 -18.042 -22.218  0.00  0.00    +0.061 C 
ATOM      7  C   UNL     1      34.146 -15.649 -23.202  0.00  0.00    +0.123 C 
ATOM      8  C   UNL     1      34.563 -18.015 -23.464  0.00  0.00    +0.072 C 
ATOM      9  C   UNL     1      35.293 -16.872 -21.463  0.00  0.00    +0.017 C 
ATOM     10  C   UNL     1      34.041 -16.818 -23.956  0.00  0.00    +0.033 C 
ATOM     11  C   UNL     1      34.771 -15.676 -21.956  0.00  0.00    +0.021 C 
BRANCH   7  12
ATOM     12  S   UNL     1      33.493 -14.151 -23.818  0.00  0.00    +0.057 S 
ATOM     13  O   UNL     1      32.366 -13.763 -22.983  0.00  0.00    -0.153 OA
ATOM     14  O   UNL     1      34.593 -13.220 -24.029  0.00  0.00    -0.153 OA
BRANCH  12  15
ATOM     15  N   UNL     1      32.903 -14.656 -25.341  0.00  0.00    -0.203 NA
ATOM     16  H   UNL     1      31.984 -14.243 -25.503  0.00  0.00    +0.144 HD
ATOM     17  H   UNL     1      32.827 -15.673 -25.357  0.00  0.00    +0.144 HD
ENDBRANCH  12  15
ENDBRANCH   7  12
ENDBRANCH   2   6
BRANCH   3  18
ATOM     18  C   UNL     1      35.995 -21.323 -20.512  0.00  0.00    +0.152 C 
BRANCH  18  19
ATOM     19  S   UNL     1      36.279 -21.303 -18.728  0.00  0.00    -0.047 S 
BRANCH  19  31
ATOM     20  O   UNL     1      34.407 -23.091 -19.021  0.00  0.00    -0.262 OA
ATOM     21  N   UNL     1      35.131 -22.824 -16.801  0.00  0.00    -0.250 N 
ATOM     22  C   UNL     1      36.492 -23.821 -14.970  0.00  0.00    +0.027 C 
ATOM     23  C   UNL     1      35.310 -23.814 -14.024  0.00  0.00    +0.029 C 
ATOM     24  C   UNL     1      36.347 -22.688 -15.972  0.00  0.00    +0.099 C 
ATOM     25  C   UNL     1      34.009 -23.742 -14.779  0.00  0.00    -0.009 C 
ATOM     26  C   UNL     1      33.933 -23.260 -16.106  0.00  0.00    +0.051 C 
ATOM     27  C   UNL     1      32.843 -24.139 -14.098  0.00  0.00    -0.007 C 
ATOM     28  C   UNL     1      32.657 -23.179 -16.696  0.00  0.00    +0.014 C 
ATOM     29  C   UNL     1      31.599 -24.071 -14.715  0.00  0.00    -0.022 C 
ATOM     30  C   UNL     1      31.507 -23.587 -16.012  0.00  0.00    -0.003 C 
ATOM     31  C   UNL     1      35.131 -22.553 -18.189  0.00  0.00    +0.280 C 
ATOM     32  C   UNL     1      30.377 -24.529 -13.995  0.00  0.00    +0.031 C 
ENDBRANCH  19  31
ENDBRANCH  18  19
ENDBRANCH   3  18
TORSDOF 6
ENDMDL
MODEL 5
REMARK VINA RESULT:     -10.5      4.027     10.947
REMARK  Name = 24878044
REMARK  6 active torsions:
REMARK  status: ('A' for Active; 'I' for Inactive)
REMARK    1  A    between atoms: N_2  and  C_6
REMARK    2  A    between atoms: C_3  and  C_18
REMARK    3  A    between atoms: C_7  and  S_12
REMARK    4  A    between atoms: S_12  and  N_15
REMARK    5  A    between atoms: C_18  and  S_19
REMARK    6  A    between atoms: S_19  and  C_31
REMARK                            x       y       z     vdW  Elec       q    Type
REMARK                         _______ _______ _______ _____ _____    ______ ____
ROOT
ATOM      1  O   UNL     1      33.878 -20.331 -20.633  0.00  0.00    -0.274 OA
ATOM      2  N   UNL     1      35.769 -18.984 -20.996  0.00  0.00    -0.283 N 
ATOM      3  C   UNL     1      35.081 -20.102 -20.537  0.00  0.00    +0.238 C 
ATOM      4  H   UNL     1      36.737 -18.965 -20.817  0.00  0.00    +0.155 HD
ENDROOT
BRANCH   2   6
ATOM      5 CL   UNL     1      35.010 -19.441 -23.911  0.00  0.00    -0.081 Cl
ATOM      6  C   UNL     1      35.238 -17.871 -21.691  0.00  0.00    +0.061 C 
ATOM      7  C   UNL     1      34.198 -15.640 -23.002  0.00  0.00    +0.123 C 
ATOM      8  C   UNL     1      34.856 -17.964 -23.029  0.00  0.00    +0.072 C 
ATOM      9  C   UNL     1      35.101 -16.662 -21.009  0.00  0.00    +0.017 C 
ATOM     10  C   UNL     1      34.336 -16.848 -23.684  0.00  0.00    +0.033 C 
ATOM     11  C   UNL     1      34.580 -15.546 -21.664  0.00  0.00    +0.021 C 
BRANCH   7  12
ATOM     12  S   UNL     1      33.547 -14.242 -23.823  0.00  0.00    +0.057 S 
ATOM     13  O   UNL     1      32.339 -13.823 -23.128  0.00  0.00    -0.153 OA
ATOM     14  O   UNL     1      34.626 -13.289 -24.039  0.00  0.00    -0.153 OA
BRANCH  12  15
ATOM     15  N   UNL     1      33.108 -14.924 -25.327  0.00  0.00    -0.203 NA
ATOM     16  H   UNL     1      32.790 -14.185 -25.955  0.00  0.00    +0.144 HD
ATOM     17  H   UNL     1      32.358 -15.600 -25.189  0.00  0.00    +0.144 HD
ENDBRANCH  12  15
ENDBRANCH   7  12
ENDBRANCH   2   6
BRANCH   3  18
ATOM     18  C   UNL     1      35.996 -21.083 -19.837  0.00  0.00    +0.152 C 
BRANCH  18  19
ATOM     19  S   UNL     1      34.988 -22.333 -19.010  0.00  0.00    -0.047 S 
BRANCH  19  31
ATOM     20  O   UNL     1      36.690 -21.625 -17.170  0.00  0.00    -0.262 OA
ATOM     21  N   UNL     1      35.031 -23.109 -16.414  0.00  0.00    -0.250 N 
ATOM     22  C   UNL     1      32.928 -23.313 -15.098  0.00  0.00    +0.027 C 
ATOM     23  C   UNL     1      33.533 -24.375 -14.205  0.00  0.00    +0.029 C 
ATOM     24  C   UNL     1      33.577 -23.372 -16.470  0.00  0.00    +0.099 C 
ATOM     25  C   UNL     1      35.037 -24.323 -14.242  0.00  0.00    -0.009 C 
ATOM     26  C   UNL     1      35.746 -23.721 -15.309  0.00  0.00    +0.051 C 
ATOM     27  C   UNL     1      35.733 -24.940 -13.185  0.00  0.00    -0.007 C 
ATOM     28  C   UNL     1      37.152 -23.784 -15.272  0.00  0.00    +0.014 C 
ATOM     29  C   UNL     1      37.122 -24.964 -13.163  0.00  0.00    -0.022 C 
ATOM     30  C   UNL     1      37.830 -24.390 -14.210  0.00  0.00    -0.003 C 
ATOM     31  C   UNL     1      35.690 -22.306 -17.374  0.00  0.00    +0.280 C 
ATOM     32  C   UNL     1      37.844 -25.588 -12.019  0.00  0.00    +0.031 C 
ENDBRANCH  19  31
ENDBRANCH  18  19
ENDBRANCH   3  18
TORSDOF 6
ENDMDL
MODEL 6
REMARK VINA RESULT:     -10.4      3.891      6.831
REMARK  Name = 24878044
REMARK  6 active torsions:
REMARK  status: ('A' for Active; 'I' for Inactive)
REMARK    1  A    between atoms: N_2  and  C_6
REMARK    2  A    between atoms: C_3  and  C_18
REMARK    3  A    between atoms: C_7  and  S_12
REMARK    4  A    between atoms: S_12  and  N_15
REMARK    5  A    between atoms: C_18  and  S_19
REMARK    6  A    between atoms: S_19  and  C_31
REMARK                            x       y       z     vdW  Elec       q    Type
REMARK                         _______ _______ _______ _____ _____    ______ ____
ROOT
ATOM      1  O   UNL     1      31.857 -12.870 -21.945  0.00  0.00    -0.274 OA
ATOM      2  N   UNL     1      33.879 -13.098 -23.121  0.00  0.00    -0.283 N 
ATOM      3  C   UNL     1      32.763 -12.421 -22.643  0.00  0.00    +0.238 C 
ATOM      4  H   UNL     1      34.498 -12.575 -23.681  0.00  0.00    +0.155 HD
ENDROOT
BRANCH   2   6
ATOM      5 CL   UNL     1      33.690 -14.971 -25.516  0.00  0.00    -0.081 Cl
ATOM      6  C   UNL     1      34.229 -14.450 -22.893  0.00  0.00    +0.061 C 
ATOM      7  C   UNL     1      34.933 -17.099 -22.376  0.00  0.00    +0.123 C 
ATOM      8  C   UNL     1      34.181 -15.396 -23.916  0.00  0.00    +0.072 C 
ATOM      9  C   UNL     1      34.630 -14.829 -21.610  0.00  0.00    +0.017 C 
ATOM     10  C   UNL     1      34.533 -16.721 -23.657  0.00  0.00    +0.033 C 
ATOM     11  C   UNL     1      34.982 -16.153 -21.352  0.00  0.00    +0.021 C 
BRANCH   7  12
ATOM     12  S   UNL     1      35.374 -18.757 -22.052  0.00  0.00    +0.057 S 
ATOM     13  O   UNL     1      34.953 -19.089 -20.698  0.00  0.00    -0.153 OA
ATOM     14  O   UNL     1      34.932 -19.580 -23.169  0.00  0.00    -0.153 OA
BRANCH  12  15
ATOM     15  N   UNL     1      37.079 -18.654 -22.089  0.00  0.00    -0.203 NA
ATOM     16  H   UNL     1      37.464 -19.085 -21.248  0.00  0.00    +0.144 HD
ATOM     17  H   UNL     1      37.360 -17.674 -22.128  0.00  0.00    +0.144 HD
ENDBRANCH  12  15
ENDBRANCH   7  12
ENDBRANCH   2   6
BRANCH   3  18
ATOM     18  C   UNL     1      32.735 -10.978 -23.102  0.00  0.00    +0.152 C 
BRANCH  18  19
ATOM     19  S   UNL     1      31.381 -10.125 -22.263  0.00  0.00    -0.047 S 
BRANCH  19  31
ATOM     20  O   UNL     1      32.615  -8.331 -20.834  0.00  0.00    -0.262 OA
ATOM     21  N   UNL     1      32.085  -7.617 -23.010  0.00  0.00    -0.250 N 
ATOM     22  C   UNL     1      32.995  -7.160 -25.281  0.00  0.00    +0.027 C 
ATOM     23  C   UNL     1      32.466  -5.742 -25.260  0.00  0.00    +0.029 C 
ATOM     24  C   UNL     1      32.108  -8.047 -24.424  0.00  0.00    +0.099 C 
ATOM     25  C   UNL     1      32.209  -5.279 -23.850  0.00  0.00    -0.009 C 
ATOM     26  C   UNL     1      32.020  -6.185 -22.781  0.00  0.00    +0.051 C 
ATOM     27  C   UNL     1      32.119  -3.891 -23.631  0.00  0.00    -0.007 C 
ATOM     28  C   UNL     1      31.726  -5.644 -21.515  0.00  0.00    +0.014 C 
ATOM     29  C   UNL     1      31.852  -3.385 -22.365  0.00  0.00    -0.022 C 
ATOM     30  C   UNL     1      31.651  -4.263 -21.309  0.00  0.00    -0.003 C 
ATOM     31  C   UNL     1      32.128  -8.542 -21.940  0.00  0.00    +0.280 C 
ATOM     32  C   UNL     1      31.796  -1.913 -22.140  0.00  0.00    +0.031 C 
ENDBRANCH  19  31
ENDBRANCH  18  19
ENDBRANCH   3  18
TORSDOF 6
ENDMDL
MODEL 7
REMARK VINA RESULT:     -10.4      2.327      3.320
REMARK  Name = 24878044
REMARK  6 active torsions:
REMARK  status: ('A' for Active; 'I' for Inactive)
REMARK    1  A    between atoms: N_2  and  C_6
REMARK    2  A    between atoms: C_3  and  C_18
REMARK    3  A    between atoms: C_7  and  S_12
REMARK    4  A    between atoms: S_12  and  N_15
REMARK    5  A    between atoms: C_18  and  S_19
REMARK    6  A    between atoms: S_19  and  C_31
REMARK                            x       y       z     vdW  Elec       q    Type
REMARK                         _______ _______ _______ _____ _____    ______ ____
ROOT
ATOM      1  O   UNL     1      37.226 -19.035 -19.895  0.00  0.00    -0.274 OA
ATOM      2  N   UNL     1      35.474 -20.355 -20.738  0.00  0.00    -0.283 N 
ATOM      3  C   UNL     1      36.476 -19.393 -20.799  0.00  0.00    +0.238 C 
ATOM      4  H   UNL     1      34.960 -20.501 -21.565  0.00  0.00    +0.155 HD
ENDROOT
BRANCH   2   6
ATOM      5 CL   UNL     1      32.493 -20.857 -20.349  0.00  0.00    -0.081 Cl
ATOM      6  C   UNL     1      35.108 -21.147 -19.624  0.00  0.00    +0.061 C 
ATOM      7  C   UNL     1      34.455 -22.716 -17.412  0.00  0.00    +0.123 C 
ATOM      8  C   UNL     1      33.773 -21.442 -19.348  0.00  0.00    +0.072 C 
ATOM      9  C   UNL     1      36.117 -21.636 -18.793  0.00  0.00    +0.017 C 
ATOM     10  C   UNL     1      33.447 -22.227 -18.242  0.00  0.00    +0.033 C 
ATOM     11  C   UNL     1      35.791 -22.421 -17.687  0.00  0.00    +0.021 C 
BRANCH   7  12
ATOM     12  S   UNL     1      34.047 -23.699 -16.027  0.00  0.00    +0.057 S 
ATOM     13  O   UNL     1      32.602 -23.871 -15.995  0.00  0.00    -0.153 OA
ATOM     14  O   UNL     1      34.917 -24.867 -16.016  0.00  0.00    -0.153 OA
BRANCH  12  15
ATOM     15  N   UNL     1      34.506 -22.662 -14.747  0.00  0.00    -0.203 NA
ATOM     16  H   UNL     1      35.404 -22.231 -14.965  0.00  0.00    +0.144 HD
ATOM     17  H   UNL     1      34.586 -23.201 -13.885  0.00  0.00    +0.144 HD
ENDBRANCH  12  15
ENDBRANCH   7  12
ENDBRANCH   2   6
BRANCH   3  18
ATOM     18  C   UNL     1      36.567 -18.755 -22.169  0.00  0.00    +0.152 C 
BRANCH  18  19
ATOM     19  S   UNL     1      34.913 -18.244 -22.685  0.00  0.00    -0.047 S 
BRANCH  19  31
ATOM     20  O   UNL     1      35.362 -16.381 -20.920  0.00  0.00    -0.262 OA
ATOM     21  N   UNL     1      34.159 -15.644 -22.799  0.00  0.00    -0.250 N 
ATOM     22  C   UNL     1      34.294 -14.359 -24.927  0.00  0.00    +0.027 C 
ATOM     23  C   UNL     1      33.157 -13.451 -24.506  0.00  0.00    +0.029 C 
ATOM     24  C   UNL     1      34.125 -15.720 -24.275  0.00  0.00    +0.099 C 
ATOM     25  C   UNL     1      32.975 -13.466 -23.012  0.00  0.00    -0.009 C 
ATOM     26  C   UNL     1      33.452 -14.524 -22.204  0.00  0.00    +0.051 C 
ATOM     27  C   UNL     1      32.265 -12.395 -22.436  0.00  0.00    -0.007 C 
ATOM     28  C   UNL     1      33.172 -14.466 -20.825  0.00  0.00    +0.014 C 
ATOM     29  C   UNL     1      32.026 -12.352 -21.068  0.00  0.00    -0.022 C 
ATOM     30  C   UNL     1      32.476 -13.390 -20.264  0.00  0.00    -0.003 C 
ATOM     31  C   UNL     1      34.843 -16.598 -22.010  0.00  0.00    +0.280 C 
ATOM     32  C   UNL     1      31.306 -11.194 -20.467  0.00  0.00    +0.031 C 
ENDBRANCH  19  31
ENDBRANCH  18  19
ENDBRANCH   3  18
TORSDOF 6
ENDMDL
MODEL 8
REMARK VINA RESULT:     -10.3      4.206      6.511
REMARK  Name = 24878044
REMARK  6 active torsions:
REMARK  status: ('A' for Active; 'I' for Inactive)
REMARK    1  A    between atoms: N_2  and  C_6
REMARK    2  A    between atoms: C_3  and  C_18
REMARK    3  A    between atoms: C_7  and  S_12
REMARK    4  A    between atoms: S_12  and  N_15
REMARK    5  A    between atoms: C_18  and  S_19
REMARK    6  A    between atoms: S_19  and  C_31
REMARK                            x       y       z     vdW  Elec       q    Type
REMARK                         _______ _______ _______ _____ _____    ______ ____
ROOT
ATOM      1  O   UNL     1      37.187 -20.542 -17.326  0.00  0.00    -0.274 OA
ATOM      2  N   UNL     1      36.414 -22.761 -17.329  0.00  0.00    -0.283 N 
ATOM      3  C   UNL     1      36.821 -21.562 -17.904  0.00  0.00    +0.238 C 
ATOM      4  H   UNL     1      36.141 -23.472 -17.953  0.00  0.00    +0.155 HD
ENDROOT
BRANCH   2   6
ATOM      5 CL   UNL     1      33.635 -23.262 -16.183  0.00  0.00    -0.081 Cl
ATOM      6  C   UNL     1      36.348 -23.077 -15.951  0.00  0.00    +0.061 C 
ATOM      7  C   UNL     1      36.289 -23.695 -13.232  0.00  0.00    +0.123 C 
ATOM      8  C   UNL     1      35.130 -23.326 -15.319  0.00  0.00    +0.072 C 
ATOM      9  C   UNL     1      37.537 -23.136 -15.223  0.00  0.00    +0.017 C 
ATOM     10  C   UNL     1      35.101 -23.636 -13.959  0.00  0.00    +0.033 C 
ATOM     11  C   UNL     1      37.507 -23.446 -13.863  0.00  0.00    +0.021 C 
BRANCH   7  12
ATOM     12  S   UNL     1      36.252 -24.082 -11.529  0.00  0.00    +0.057 S 
ATOM     13  O   UNL     1      34.878 -23.970 -11.062  0.00  0.00    -0.153 OA
ATOM     14  O   UNL     1      36.990 -25.320 -11.320  0.00  0.00    -0.153 OA
BRANCH  12  15
ATOM     15  N   UNL     1      37.161 -22.787 -10.882  0.00  0.00    -0.203 NA
ATOM     16  H   UNL     1      38.155 -23.012 -10.929  0.00  0.00    +0.144 HD
ATOM     17  H   UNL     1      36.892 -22.634  -9.911  0.00  0.00    +0.144 HD
ENDBRANCH  12  15
ENDBRANCH   7  12
ENDBRANCH   2   6
BRANCH   3  18
ATOM     18  C   UNL     1      36.755 -21.607 -19.416  0.00  0.00    +0.152 C 
BRANCH  18  19
ATOM     19  S   UNL     1      35.179 -20.906 -19.952  0.00  0.00    -0.047 S 
BRANCH  19  31
ATOM     20  O   UNL     1      36.614 -18.740 -20.138  0.00  0.00    -0.262 OA
ATOM     21  N   UNL     1      35.049 -18.999 -21.872  0.00  0.00    -0.250 N 
ATOM     22  C   UNL     1      34.746 -19.606 -24.267  0.00  0.00    +0.027 C 
ATOM     23  C   UNL     1      34.060 -18.290 -24.564  0.00  0.00    +0.029 C 
ATOM     24  C   UNL     1      34.500 -19.993 -22.819  0.00  0.00    +0.099 C 
ATOM     25  C   UNL     1      34.396 -17.256 -23.522  0.00  0.00    -0.009 C 
ATOM     26  C   UNL     1      34.862 -17.606 -22.234  0.00  0.00    +0.051 C 
ATOM     27  C   UNL     1      34.190 -15.905 -23.861  0.00  0.00    -0.007 C 
ATOM     28  C   UNL     1      35.087 -16.561 -21.318  0.00  0.00    +0.014 C 
ATOM     29  C   UNL     1      34.445 -14.893 -22.944  0.00  0.00    -0.022 C 
ATOM     30  C   UNL     1      34.889 -15.222 -21.672  0.00  0.00    -0.003 C 
ATOM     31  C   UNL     1      35.721 -19.378 -20.687  0.00  0.00    +0.280 C 
ATOM     32  C   UNL     1      34.257 -13.465 -23.330  0.00  0.00    +0.031 C 
ENDBRANCH  19  31
ENDBRANCH  18  19
ENDBRANCH   3  18
TORSDOF 6
ENDMDL
MODEL 9
REMARK VINA RESULT:     -10.1      3.702      6.245
REMARK  Name = 24878044
REMARK  6 active torsions:
REMARK  status: ('A' for Active; 'I' for Inactive)
REMARK    1  A    between atoms: N_2  and  C_6
REMARK    2  A    between atoms: C_3  and  C_18
REMARK    3  A    between atoms: C_7  and  S_12
REMARK    4  A    between atoms: S_12  and  N_15
REMARK    5  A    between atoms: C_18  and  S_19
REMARK    6  A    between atoms: S_19  and  C_31
REMARK                            x       y       z     vdW  Elec       q    Type
REMARK                         _______ _______ _______ _____ _____    ______ ____
ROOT
ATOM      1  O   UNL     1      31.621 -13.628 -20.464  0.00  0.00    -0.274 OA
ATOM      2  N   UNL     1      33.160 -13.574 -22.239  0.00  0.00    -0.283 N 
ATOM      3  C   UNL     1      32.130 -13.088 -21.442  0.00  0.00    +0.238 C 
ATOM      4  H   UNL     1      33.432 -13.005 -22.995  0.00  0.00    +0.155 HD
ENDROOT
BRANCH   2   6
ATOM      5 CL   UNL     1      33.707 -15.153 -24.787  0.00  0.00    -0.081 Cl
ATOM      6  C   UNL     1      33.864 -14.793 -22.087  0.00  0.00    +0.061 C 
ATOM      7  C   UNL     1      35.255 -17.182 -21.718  0.00  0.00    +0.123 C 
ATOM      8  C   UNL     1      34.170 -15.598 -23.184  0.00  0.00    +0.072 C 
ATOM      9  C   UNL     1      34.253 -15.183 -20.805  0.00  0.00    +0.017 C 
ATOM     10  C   UNL     1      34.866 -16.792 -22.999  0.00  0.00    +0.033 C 
ATOM     11  C   UNL     1      34.949 -16.378 -20.620  0.00  0.00    +0.021 C 
BRANCH   7  12
ATOM     12  S   UNL     1      36.125 -18.678 -21.486  0.00  0.00    +0.057 S 
ATOM     13  O   UNL     1      36.804 -19.012 -22.730  0.00  0.00    -0.153 OA
ATOM     14  O   UNL     1      36.886 -18.584 -20.248  0.00  0.00    -0.153 OA
BRANCH  12  15
ATOM     15  N   UNL     1      34.834 -19.773 -21.253  0.00  0.00    -0.203 NA
ATOM     16  H   UNL     1      34.631 -20.251 -22.131  0.00  0.00    +0.144 HD
ATOM     17  H   UNL     1      34.007 -19.263 -20.944  0.00  0.00    +0.144 HD
ENDBRANCH  12  15
ENDBRANCH   7  12
ENDBRANCH   2   6
BRANCH   3  18
ATOM     18  C   UNL     1      31.628 -11.743 -21.923  0.00  0.00    +0.152 C 
BRANCH  18  19
ATOM     19  S   UNL     1      32.922 -10.957 -22.910  0.00  0.00    -0.047 S 
BRANCH  19  31
ATOM     20  O   UNL     1      31.605  -8.938 -21.921  0.00  0.00    -0.262 OA
ATOM     21  N   UNL     1      33.398  -8.319 -23.308  0.00  0.00    -0.250 N 
ATOM     22  C   UNL     1      35.721  -7.426 -23.355  0.00  0.00    +0.027 C 
ATOM     23  C   UNL     1      35.316  -6.290 -24.270  0.00  0.00    +0.029 C 
ATOM     24  C   UNL     1      34.816  -8.621 -23.599  0.00  0.00    +0.099 C 
ATOM     25  C   UNL     1      33.833  -6.038 -24.201  0.00  0.00    -0.009 C 
ATOM     26  C   UNL     1      32.922  -7.019 -23.746  0.00  0.00    +0.051 C 
ATOM     27  C   UNL     1      33.367  -4.788 -24.651  0.00  0.00    -0.007 C 
ATOM     28  C   UNL     1      31.552  -6.699 -23.781  0.00  0.00    +0.014 C 
ATOM     29  C   UNL     1      32.009  -4.492 -24.650  0.00  0.00    -0.022 C 
ATOM     30  C   UNL     1      31.103  -5.450 -24.219  0.00  0.00    -0.003 C 
ATOM     31  C   UNL     1      32.554  -9.236 -22.640  0.00  0.00    +0.280 C 
ATOM     32  C   UNL     1      31.533  -3.151 -25.094  0.00  0.00    +0.031 C 
ENDBRANCH  19  31
ENDBRANCH  18  19
ENDBRANCH   3  18
TORSDOF 6
ENDMDL
