MODEL 1
REMARK VINA RESULT:     -13.1      0.000      0.000
REMARK  Name = 24780387
REMARK  3 active torsions:
REMARK  status: ('A' for Active; 'I' for Inactive)
REMARK    1  A    between atoms: N_3  and  C_25
REMARK    2  A    between atoms: C_18  and  O_23
REMARK    3  A    between atoms: C_25  and  N_26
REMARK                            x       y       z     vdW  Elec       q    Type
REMARK                         _______ _______ _______ _____ _____    ______ ____
ROOT
ATOM      1  O   UNL     1      32.408 -25.205 -12.560  0.00  0.00    -0.270 OA
ATOM      2  O   UNL     1      35.952 -23.725 -15.129  0.00  0.00    -0.270 OA
ATOM      3  N   UNL     1      34.445 -24.604 -13.568  0.00  0.00    -0.244 N 
ATOM      4  N   UNL     1      32.032 -22.179 -18.263  0.00  0.00    -0.353 N 
ATOM      5  C   UNL     1      31.233 -23.950 -15.062  0.00  0.00    -0.020 A 
ATOM      6  C   UNL     1      30.972 -23.301 -16.278  0.00  0.00    -0.010 A 
ATOM      7  C   UNL     1      32.531 -24.108 -14.660  0.00  0.00    +0.054 A 
ATOM      8  C   UNL     1      29.961 -24.331 -14.376  0.00  0.00    +0.027 C 
ATOM      9  C   UNL     1      29.491 -23.186 -16.506  0.00  0.00    +0.028 C 
ATOM     10  C   UNL     1      32.039 -22.838 -17.061  0.00  0.00    +0.052 A 
ATOM     11  C   UNL     1      33.591 -23.652 -15.444  0.00  0.00    +0.059 A 
ATOM     12  C   UNL     1      28.958 -24.249 -15.536  0.00  0.00    +0.009 C 
ATOM     13  C   UNL     1      33.383 -23.000 -16.675  0.00  0.00    +0.024 A 
ATOM     14  C   UNL     1      33.080 -24.718 -13.450  0.00  0.00    +0.253 C 
ATOM     15  C   UNL     1      34.829 -23.976 -14.735  0.00  0.00    +0.253 C 
ATOM     16  C   UNL     1      34.186 -22.415 -17.712  0.00  0.00    +0.051 A 
ATOM     17  C   UNL     1      33.313 -21.914 -18.683  0.00  0.00    +0.060 A 
ATOM     18  C   UNL     1      35.571 -22.252 -17.935  0.00  0.00    +0.140 C 
ATOM     19  C   UNL     1      33.749 -21.269 -19.847  0.00  0.00    +0.017 C 
ATOM     20  C   UNL     1      36.024 -21.610 -19.094  0.00  0.00    +0.037 C 
ATOM     21  C   UNL     1      35.124 -21.126 -20.037  0.00  0.00    +0.005 C 
ATOM     22  H   UNL     1      31.219 -21.930 -18.760  0.00  0.00    +0.166 HD
ENDROOT
BRANCH  18  23
ATOM     23  O   UNL     1      36.559 -22.688 -17.097  0.00  0.00    -0.471 OA
ATOM     24  C   UNL     1      37.375 -21.691 -16.490  0.00  0.00    +0.252 C 
ENDBRANCH  18  23
BRANCH   3  25
ATOM     25  C   UNL     1      35.392 -25.084 -12.579  0.00  0.00    +0.028 C 
BRANCH  25  26
ATOM     26  N   UNL     1      36.700 -25.246 -13.210  0.00  0.00    +0.396 N 
ATOM     27  N   UNL     1      39.359 -26.370 -13.375  0.00  0.00    +0.383 N 
ATOM     28  C   UNL     1      37.772 -24.806 -12.307  0.00  0.00    -0.098 C 
ATOM     29  C   UNL     1      36.915 -26.641 -13.617  0.00  0.00    -0.098 C 
ATOM     30  C   UNL     1      39.145 -24.977 -12.966  0.00  0.00    -0.101 C 
ATOM     31  C   UNL     1      38.288 -26.811 -14.277  0.00  0.00    -0.101 C 
ATOM     32  C   UNL     1      40.668 -26.530 -14.006  0.00  0.00    -0.101 C 
ATOM     33  H   UNL     1      36.723 -24.660 -14.044  0.00  0.00    -0.077 HD
ATOM     34  H   UNL     1      39.338 -26.956 -12.541  0.00  0.00    -0.080 HD
ENDBRANCH  25  26
ENDBRANCH   3  25
TORSDOF 3
ENDMDL
MODEL 2
REMARK VINA RESULT:     -11.9      2.238      6.585
REMARK  Name = 24780387
REMARK  3 active torsions:
REMARK  status: ('A' for Active; 'I' for Inactive)
REMARK    1  A    between atoms: N_3  and  C_25
REMARK    2  A    between atoms: C_18  and  O_23
REMARK    3  A    between atoms: C_25  and  N_26
REMARK                            x       y       z     vdW  Elec       q    Type
REMARK                         _______ _______ _______ _____ _____    ______ ____
ROOT
ATOM      1  O   UNL     1      32.535 -22.569 -18.815  0.00  0.00    -0.270 OA
ATOM      2  O   UNL     1      36.634 -22.986 -16.723  0.00  0.00    -0.270 OA
ATOM      3  N   UNL     1      34.777 -22.692 -18.118  0.00  0.00    -0.244 N 
ATOM      4  N   UNL     1      33.555 -24.010 -12.594  0.00  0.00    -0.353 N 
ATOM      5  C   UNL     1      31.987 -23.225 -15.902  0.00  0.00    -0.020 A 
ATOM      6  C   UNL     1      32.029 -23.553 -14.539  0.00  0.00    -0.010 A 
ATOM      7  C   UNL     1      33.164 -23.059 -16.581  0.00  0.00    +0.054 A 
ATOM      8  C   UNL     1      30.577 -23.158 -16.393  0.00  0.00    +0.027 C 
ATOM      9  C   UNL     1      30.638 -23.742 -14.000  0.00  0.00    +0.028 C 
ATOM     10  C   UNL     1      33.267 -23.693 -13.896  0.00  0.00    +0.052 A 
ATOM     11  C   UNL     1      34.394 -23.192 -15.936  0.00  0.00    +0.059 A 
ATOM     12  C   UNL     1      29.805 -23.025 -15.071  0.00  0.00    +0.009 C 
ATOM     13  C   UNL     1      34.490 -23.514 -14.569  0.00  0.00    +0.024 A 
ATOM     14  C   UNL     1      33.410 -22.740 -17.986  0.00  0.00    +0.253 C 
ATOM     15  C   UNL     1      35.437 -22.952 -16.934  0.00  0.00    +0.253 C 
ATOM     16  C   UNL     1      35.531 -23.729 -13.602  0.00  0.00    +0.051 A 
ATOM     17  C   UNL     1      34.913 -24.035 -12.386  0.00  0.00    +0.060 A 
ATOM     18  C   UNL     1      36.942 -23.697 -13.627  0.00  0.00    +0.140 C 
ATOM     19  C   UNL     1      35.626 -24.308 -11.211  0.00  0.00    +0.017 C 
ATOM     20  C   UNL     1      37.670 -23.967 -12.461  0.00  0.00    +0.037 C 
ATOM     21  C   UNL     1      37.019 -24.268 -11.270  0.00  0.00    +0.005 C 
ATOM     22  H   UNL     1      32.881 -24.194 -11.900  0.00  0.00    +0.166 HD
ENDROOT
BRANCH  18  23
ATOM     23  O   UNL     1      37.703 -23.408 -14.725  0.00  0.00    -0.471 OA
ATOM     24  C   UNL     1      38.782 -24.293 -15.013  0.00  0.00    +0.252 C 
ENDBRANCH  18  23
BRANCH   3  25
ATOM     25  C   UNL     1      35.467 -22.402 -19.361  0.00  0.00    +0.028 C 
BRANCH  25  26
ATOM     26  N   UNL     1      35.342 -20.977 -19.657  0.00  0.00    +0.396 N 
ATOM     27  N   UNL     1      35.493 -18.688 -21.416  0.00  0.00    +0.383 N 
ATOM     28  C   UNL     1      36.635 -20.414 -20.067  0.00  0.00    -0.098 C 
ATOM     29  C   UNL     1      34.330 -20.746 -20.695  0.00  0.00    -0.098 C 
ATOM     30  C   UNL     1      36.506 -18.919 -20.379  0.00  0.00    -0.101 C 
ATOM     31  C   UNL     1      34.200 -19.250 -21.006  0.00  0.00    -0.101 C 
ATOM     32  C   UNL     1      35.369 -17.261 -21.710  0.00  0.00    -0.101 C 
ATOM     33  H   UNL     1      35.043 -20.504 -18.804  0.00  0.00    -0.077 HD
ATOM     34  H   UNL     1      35.793 -19.159 -22.269  0.00  0.00    -0.080 HD
ENDBRANCH  25  26
ENDBRANCH   3  25
TORSDOF 3
ENDMDL
MODEL 3
REMARK VINA RESULT:     -11.2      2.435      6.604
REMARK  Name = 24780387
REMARK  3 active torsions:
REMARK  status: ('A' for Active; 'I' for Inactive)
REMARK    1  A    between atoms: N_3  and  C_25
REMARK    2  A    between atoms: C_18  and  O_23
REMARK    3  A    between atoms: C_25  and  N_26
REMARK                            x       y       z     vdW  Elec       q    Type
REMARK                         _______ _______ _______ _____ _____    ______ ____
ROOT
ATOM      1  O   UNL     1      32.225 -25.396 -12.673  0.00  0.00    -0.270 OA
ATOM      2  O   UNL     1      31.994 -23.753 -16.986  0.00  0.00    -0.270 OA
ATOM      3  N   UNL     1      31.723 -24.700 -14.862  0.00  0.00    -0.244 N 
ATOM      4  N   UNL     1      36.957 -22.410 -15.915  0.00  0.00    -0.353 N 
ATOM      5  C   UNL     1      34.920 -24.145 -13.296  0.00  0.00    -0.020 A 
ATOM      6  C   UNL     1      36.049 -23.528 -13.854  0.00  0.00    -0.010 A 
ATOM      7  C   UNL     1      33.786 -24.262 -14.053  0.00  0.00    +0.054 A 
ATOM      8  C   UNL     1      35.203 -24.624 -11.909  0.00  0.00    +0.027 C 
ATOM      9  C   UNL     1      37.195 -23.549 -12.881  0.00  0.00    +0.028 C 
ATOM     10  C   UNL     1      35.994 -23.035 -15.165  0.00  0.00    +0.052 A 
ATOM     11  C   UNL     1      33.733 -23.765 -15.355  0.00  0.00    +0.059 A 
ATOM     12  C   UNL     1      36.458 -23.810 -11.561  0.00  0.00    +0.009 C 
ATOM     13  C   UNL     1      34.836 -23.132 -15.959  0.00  0.00    +0.024 A 
ATOM     14  C   UNL     1      32.493 -24.867 -13.736  0.00  0.00    +0.253 C 
ATOM     15  C   UNL     1      32.395 -24.048 -15.876  0.00  0.00    +0.253 C 
ATOM     16  C   UNL     1      35.147 -22.523 -17.223  0.00  0.00    +0.051 A 
ATOM     17  C   UNL     1      36.474 -22.086 -17.159  0.00  0.00    +0.060 A 
ATOM     18  C   UNL     1      34.442 -22.294 -18.424  0.00  0.00    +0.140 C 
ATOM     19  C   UNL     1      37.120 -21.441 -18.222  0.00  0.00    +0.017 C 
ATOM     20  C   UNL     1      35.073 -21.650 -19.496  0.00  0.00    +0.037 C 
ATOM     21  C   UNL     1      36.395 -21.230 -19.394  0.00  0.00    +0.005 C 
ATOM     22  H   UNL     1      37.872 -22.218 -15.604  0.00  0.00    +0.166 HD
ENDROOT
BRANCH  18  23
ATOM     23  O   UNL     1      33.141 -22.647 -18.652  0.00  0.00    -0.471 OA
ATOM     24  C   UNL     1      32.311 -21.675 -19.281  0.00  0.00    +0.252 C 
ENDBRANCH  18  23
BRANCH   3  25
ATOM     25  C   UNL     1      30.351 -25.155 -14.987  0.00  0.00    +0.028 C 
BRANCH  25  26
ATOM     26  N   UNL     1      29.563 -24.122 -15.654  0.00  0.00    +0.396 N 
ATOM     27  N   UNL     1      27.092 -22.732 -16.224  0.00  0.00    +0.383 N 
ATOM     28  C   UNL     1      28.528 -24.723 -16.505  0.00  0.00    -0.098 C 
ATOM     29  C   UNL     1      28.955 -23.214 -14.673  0.00  0.00    -0.098 C 
ATOM     30  C   UNL     1      27.698 -23.640 -17.204  0.00  0.00    -0.101 C 
ATOM     31  C   UNL     1      28.127 -22.130 -15.373  0.00  0.00    -0.101 C 
ATOM     32  C   UNL     1      26.305 -21.698 -16.893  0.00  0.00    -0.101 C 
ATOM     33  H   UNL     1      30.191 -23.581 -16.248  0.00  0.00    -0.077 HD
ATOM     34  H   UNL     1      26.463 -23.272 -15.631  0.00  0.00    -0.080 HD
ENDBRANCH  25  26
ENDBRANCH   3  25
TORSDOF 3
ENDMDL
MODEL 4
REMARK VINA RESULT:     -10.2      2.213      7.296
REMARK  Name = 24780387
REMARK  3 active torsions:
REMARK  status: ('A' for Active; 'I' for Inactive)
REMARK    1  A    between atoms: N_3  and  C_25
REMARK    2  A    between atoms: C_18  and  O_23
REMARK    3  A    between atoms: C_25  and  N_26
REMARK                            x       y       z     vdW  Elec       q    Type
REMARK                         _______ _______ _______ _____ _____    ______ ____
ROOT
ATOM      1  O   UNL     1      31.621 -22.943 -17.250  0.00  0.00    -0.270 OA
ATOM      2  O   UNL     1      33.628 -25.042 -13.655  0.00  0.00    -0.270 OA
ATOM      3  N   UNL     1      32.260 -24.109 -15.311  0.00  0.00    -0.244 N 
ATOM      4  N   UNL     1      37.961 -23.231 -16.006  0.00  0.00    -0.353 N 
ATOM      5  C   UNL     1      34.618 -22.562 -17.554  0.00  0.00    -0.020 A 
ATOM      6  C   UNL     1      36.014 -22.521 -17.430  0.00  0.00    -0.010 A 
ATOM      7  C   UNL     1      33.886 -23.205 -16.593  0.00  0.00    +0.054 A 
ATOM      8  C   UNL     1      34.166 -21.812 -18.764  0.00  0.00    +0.027 C 
ATOM      9  C   UNL     1      36.619 -21.727 -18.554  0.00  0.00    +0.028 C 
ATOM     10  C   UNL     1      36.633 -23.145 -16.338  0.00  0.00    +0.052 A 
ATOM     11  C   UNL     1      34.505 -23.831 -15.511  0.00  0.00    +0.059 A 
ATOM     12  C   UNL     1      35.470 -21.731 -19.571  0.00  0.00    +0.009 C 
ATOM     13  C   UNL     1      35.903 -23.824 -15.345  0.00  0.00    +0.024 A 
ATOM     14  C   UNL     1      32.440 -23.381 -16.463  0.00  0.00    +0.253 C 
ATOM     15  C   UNL     1      33.450 -24.417 -14.684  0.00  0.00    +0.253 C 
ATOM     16  C   UNL     1      36.860 -24.333 -14.401  0.00  0.00    +0.051 A 
ATOM     17  C   UNL     1      38.128 -23.946 -14.845  0.00  0.00    +0.060 A 
ATOM     18  C   UNL     1      36.787 -25.086 -13.209  0.00  0.00    +0.140 C 
ATOM     19  C   UNL     1      39.310 -24.269 -14.164  0.00  0.00    +0.017 C 
ATOM     20  C   UNL     1      37.959 -25.419 -12.517  0.00  0.00    +0.037 C 
ATOM     21  C   UNL     1      39.203 -25.015 -12.990  0.00  0.00    +0.005 C 
ATOM     22  H   UNL     1      38.696 -22.836 -16.529  0.00  0.00    +0.166 HD
ENDROOT
BRANCH  18  23
ATOM     23  O   UNL     1      35.634 -25.553 -12.642  0.00  0.00    -0.471 OA
ATOM     24  C   UNL     1      35.366 -25.149 -11.303  0.00  0.00    +0.252 C 
ENDBRANCH  18  23
BRANCH   3  25
ATOM     25  C   UNL     1      30.966 -24.516 -14.796  0.00  0.00    +0.028 C 
BRANCH  25  26
ATOM     26  N   UNL     1      29.922 -23.738 -15.460  0.00  0.00    +0.396 N 
ATOM     27  N   UNL     1      27.181 -22.899 -15.838  0.00  0.00    +0.383 N 
ATOM     28  C   UNL     1      28.933 -24.623 -16.089  0.00  0.00    -0.098 C 
ATOM     29  C   UNL     1      29.266 -22.829 -14.513  0.00  0.00    -0.098 C 
ATOM     30  C   UNL     1      27.836 -23.809 -16.784  0.00  0.00    -0.101 C 
ATOM     31  C   UNL     1      28.170 -22.014 -15.209  0.00  0.00    -0.101 C 
ATOM     32  C   UNL     1      26.138 -22.121 -16.504  0.00  0.00    -0.101 C 
ATOM     33  H   UNL     1      30.362 -23.179 -16.191  0.00  0.00    -0.077 HD
ATOM     34  H   UNL     1      26.740 -23.457 -15.108  0.00  0.00    -0.080 HD
ENDBRANCH  25  26
ENDBRANCH   3  25
TORSDOF 3
ENDMDL
