MODEL 1
REMARK VINA RESULT:     -12.2      0.000      0.000
REMARK  Name = 66555680
REMARK  4 active torsions:
REMARK  status: ('A' for Active; 'I' for Inactive)
REMARK    1  A    between atoms: N_1  and  C_8
REMARK    2  A    between atoms: C_3  and  C_22
REMARK    3  A    between atoms: C_4  and  N_18
REMARK    4  A    between atoms: C_22  and  C_24
REMARK                            x       y       z     vdW  Elec       q    Type
REMARK                         _______ _______ _______ _____ _____    ______ ____
ROOT
ATOM      1  N   UNL     1      34.555 -14.678 -22.248  0.00  0.00    -0.177 N 
ATOM      2  N   UNL     1      34.653 -15.150 -23.503  0.00  0.00    -0.171 NA
ATOM      3  C   UNL     1      35.660 -16.546 -22.003  0.00  0.00    +0.090 C 
ATOM      4  C   UNL     1      35.143 -15.477 -21.312  0.00  0.00    +0.122 C 
ATOM      5  C   UNL     1      35.328 -16.291 -23.346  0.00  0.00    +0.124 C 
ENDROOT
BRANCH   1   8
ATOM      6  N   UNL     1      33.531  -9.940 -23.124  0.00  0.00    -0.318 N 
ATOM      7  N   UNL     1      32.035  -9.798 -21.486  0.00  0.00    -0.318 N 
ATOM      8  C   UNL     1      33.894 -13.470 -22.019  0.00  0.00    +0.077 C 
ATOM      9  C   UNL     1      33.497 -11.185 -22.549  0.00  0.00    +0.060 C 
ATOM     10  C   UNL     1      34.187 -12.365 -22.826  0.00  0.00    +0.032 C 
ATOM     11  C   UNL     1      32.556 -11.070 -21.531  0.00  0.00    +0.059 C 
ATOM     12  C   UNL     1      32.955 -13.385 -20.988  0.00  0.00    +0.018 C 
ATOM     13  C   UNL     1      32.274 -12.190 -20.729  0.00  0.00    +0.017 C 
ATOM     14  C   UNL     1      32.641  -9.147 -22.454  0.00  0.00    +0.144 C 
ATOM     15  C   UNL     1      32.438  -7.736 -22.831  0.00  0.00    +0.044 C 
ATOM     16  H   UNL     1      34.095  -9.667 -23.883  0.00  0.00    +0.148 HD
ATOM     17  H   UNL     1      31.355  -9.449 -20.864  0.00  0.00    +0.148 HD
ENDBRANCH   1   8
BRANCH   4  18
ATOM     18  N   UNL     1      35.143 -15.163 -19.998  0.00  0.00    -0.344 N 
ATOM     19  H   UNL     1      35.600 -14.349 -19.686  0.00  0.00    +0.144 HD
ATOM     20  H   UNL     1      34.685 -15.748 -19.352  0.00  0.00    +0.144 HD
ENDBRANCH   4  18
BRANCH   3  22
ATOM     21  O   UNL     1      37.626 -17.780 -21.712  0.00  0.00    -0.285 OA
ATOM     22  C   UNL     1      36.410 -17.715 -21.414  0.00  0.00    +0.213 C 
BRANCH  22  24
ATOM     23  N   UNL     1      36.479 -19.421 -19.634  0.00  0.00    -0.310 N 
ATOM     24  C   UNL     1      35.799 -18.695 -20.574  0.00  0.00    +0.088 C 
ATOM     25  C   UNL     1      35.621 -20.283 -18.987  0.00  0.00    +0.048 C 
ATOM     26  C   UNL     1      34.353 -20.092 -19.540  0.00  0.00    +0.015 C 
ATOM     27  C   UNL     1      34.480 -19.087 -20.541  0.00  0.00    +0.019 C 
ATOM     28  C   UNL     1      35.867 -21.206 -17.966  0.00  0.00    +0.015 C 
ATOM     29  C   UNL     1      33.277 -20.858 -19.051  0.00  0.00    +0.001 C 
ATOM     30  C   UNL     1      34.785 -21.955 -17.496  0.00  0.00    +0.001 C 
ATOM     31  C   UNL     1      33.509 -21.786 -18.030  0.00  0.00    +0.000 C 
ATOM     32  H   UNL     1      37.442 -19.340 -19.447  0.00  0.00    +0.152 HD
ENDBRANCH  22  24
ENDBRANCH   3  22
TORSDOF 4
ENDMDL
MODEL 2
REMARK VINA RESULT:     -12.2      2.826      5.534
REMARK  Name = 66555680
REMARK  4 active torsions:
REMARK  status: ('A' for Active; 'I' for Inactive)
REMARK    1  A    between atoms: N_1  and  C_8
REMARK    2  A    between atoms: C_3  and  C_22
REMARK    3  A    between atoms: C_4  and  N_18
REMARK    4  A    between atoms: C_22  and  C_24
REMARK                            x       y       z     vdW  Elec       q    Type
REMARK                         _______ _______ _______ _____ _____    ______ ____
ROOT
ATOM      1  N   UNL     1      35.421 -19.183 -20.047  0.00  0.00    -0.177 N 
ATOM      2  N   UNL     1      36.564 -19.489 -19.410  0.00  0.00    -0.171 NA
ATOM      3  C   UNL     1      34.961 -21.080 -19.067  0.00  0.00    +0.090 C 
ATOM      4  C   UNL     1      34.429 -20.104 -19.874  0.00  0.00    +0.122 C 
ATOM      5  C   UNL     1      36.277 -20.650 -18.813  0.00  0.00    +0.124 C 
ENDROOT
BRANCH   1   8
ATOM      6  N   UNL     1      34.682 -14.353 -20.668  0.00  0.00    -0.318 N 
ATOM      7  N   UNL     1      35.077 -14.413 -22.855  0.00  0.00    -0.318 N 
ATOM      8  C   UNL     1      35.347 -18.007 -20.796  0.00  0.00    +0.077 C 
ATOM      9  C   UNL     1      34.963 -15.664 -20.954  0.00  0.00    +0.060 C 
ATOM     10  C   UNL     1      35.023 -16.807 -20.155  0.00  0.00    +0.032 C 
ATOM     11  C   UNL     1      35.205 -15.676 -22.324  0.00  0.00    +0.059 C 
ATOM     12  C   UNL     1      35.595 -18.050 -22.170  0.00  0.00    +0.018 C 
ATOM     13  C   UNL     1      35.529 -16.891 -22.952  0.00  0.00    +0.017 C 
ATOM     14  C   UNL     1      34.763 -13.645 -21.836  0.00  0.00    +0.144 C 
ATOM     15  C   UNL     1      34.514 -12.192 -21.869  0.00  0.00    +0.044 C 
ATOM     16  H   UNL     1      34.463 -13.986 -19.781  0.00  0.00    +0.148 HD
ATOM     17  H   UNL     1      35.194 -14.143 -23.794  0.00  0.00    +0.148 HD
ENDBRANCH   1   8
BRANCH   4  18
ATOM     18  N   UNL     1      33.212 -19.963 -20.441  0.00  0.00    -0.344 N 
ATOM     19  H   UNL     1      32.403 -20.222 -19.943  0.00  0.00    +0.144 HD
ATOM     20  H   UNL     1      33.132 -19.601 -21.353  0.00  0.00    +0.144 HD
ENDBRANCH   4  18
BRANCH   3  22
ATOM     21  O   UNL     1      34.303 -23.306 -19.361  0.00  0.00    -0.285 OA
ATOM     22  C   UNL     1      34.259 -22.324 -18.583  0.00  0.00    +0.213 C 
BRANCH  22  24
ATOM     23  N   UNL     1      32.228 -22.238 -17.184  0.00  0.00    -0.310 N 
ATOM     24  C   UNL     1      33.580 -22.402 -17.328  0.00  0.00    +0.088 C 
ATOM     25  C   UNL     1      31.873 -22.368 -15.859  0.00  0.00    +0.048 C 
ATOM     26  C   UNL     1      33.045 -22.623 -15.143  0.00  0.00    +0.015 C 
ATOM     27  C   UNL     1      34.114 -22.641 -16.083  0.00  0.00    +0.019 C 
ATOM     28  C   UNL     1      30.619 -22.280 -15.247  0.00  0.00    +0.015 C 
ATOM     29  C   UNL     1      32.962 -22.800 -13.748  0.00  0.00    +0.001 C 
ATOM     30  C   UNL     1      30.560 -22.459 -13.863  0.00  0.00    +0.001 C 
ATOM     31  C   UNL     1      31.713 -22.715 -13.122  0.00  0.00    +0.000 C 
ATOM     32  H   UNL     1      31.601 -22.054 -17.919  0.00  0.00    +0.152 HD
ENDBRANCH  22  24
ENDBRANCH   3  22
TORSDOF 4
ENDMDL
MODEL 3
REMARK VINA RESULT:     -11.9      3.005      5.783
REMARK  Name = 66555680
REMARK  4 active torsions:
REMARK  status: ('A' for Active; 'I' for Inactive)
REMARK    1  A    between atoms: N_1  and  C_8
REMARK    2  A    between atoms: C_3  and  C_22
REMARK    3  A    between atoms: C_4  and  N_18
REMARK    4  A    between atoms: C_22  and  C_24
REMARK                            x       y       z     vdW  Elec       q    Type
REMARK                         _______ _______ _______ _____ _____    ______ ____
ROOT
ATOM      1  N   UNL     1      35.567 -19.261 -20.022  0.00  0.00    -0.177 N 
ATOM      2  N   UNL     1      36.805 -19.512 -19.562  0.00  0.00    -0.171 NA
ATOM      3  C   UNL     1      35.269 -20.943 -18.661  0.00  0.00    +0.090 C 
ATOM      4  C   UNL     1      34.611 -20.091 -19.513  0.00  0.00    +0.122 C 
ATOM      5  C   UNL     1      36.616 -20.541 -18.731  0.00  0.00    +0.124 C 
ENDROOT
BRANCH   1   8
ATOM      6  N   UNL     1      34.935 -14.555 -21.332  0.00  0.00    -0.318 N 
ATOM      7  N   UNL     1      34.791 -15.014 -23.503  0.00  0.00    -0.318 N 
ATOM      8  C   UNL     1      35.372 -18.225 -20.937  0.00  0.00    +0.077 C 
ATOM      9  C   UNL     1      35.075 -15.916 -21.429  0.00  0.00    +0.060 C 
ATOM     10  C   UNL     1      35.270 -16.910 -20.470  0.00  0.00    +0.032 C 
ATOM     11  C   UNL     1      34.982 -16.177 -22.793  0.00  0.00    +0.059 C 
ATOM     12  C   UNL     1      35.282 -18.518 -22.299  0.00  0.00    +0.018 C 
ATOM     13  C   UNL     1      35.087 -17.504 -23.244  0.00  0.00    +0.017 C 
ATOM     14  C   UNL     1      34.768 -14.062 -22.597  0.00  0.00    +0.144 C 
ATOM     15  C   UNL     1      34.588 -12.619 -22.838  0.00  0.00    +0.044 C 
ATOM     16  H   UNL     1      34.952 -14.028 -20.501  0.00  0.00    +0.148 HD
ATOM     17  H   UNL     1      34.693 -14.916 -24.478  0.00  0.00    +0.148 HD
ENDBRANCH   1   8
BRANCH   4  18
ATOM     18  N   UNL     1      33.311 -19.987 -19.863  0.00  0.00    -0.344 N 
ATOM     19  H   UNL     1      32.927 -20.607 -20.525  0.00  0.00    +0.144 HD
ATOM     20  H   UNL     1      32.746 -19.290 -19.457  0.00  0.00    +0.144 HD
ENDBRANCH   4  18
BRANCH   3  22
ATOM     21  O   UNL     1      33.797 -22.748 -18.448  0.00  0.00    -0.285 OA
ATOM     22  C   UNL     1      34.650 -22.053 -17.848  0.00  0.00    +0.213 C 
BRANCH  22  24
ATOM     23  N   UNL     1      34.145 -22.897 -15.585  0.00  0.00    -0.310 N 
ATOM     24  C   UNL     1      34.995 -22.312 -16.486  0.00  0.00    +0.088 C 
ATOM     25  C   UNL     1      34.761 -23.012 -14.359  0.00  0.00    +0.048 C 
ATOM     26  C   UNL     1      36.045 -22.480 -14.491  0.00  0.00    +0.015 C 
ATOM     27  C   UNL     1      36.178 -22.042 -15.839  0.00  0.00    +0.019 C 
ATOM     28  C   UNL     1      34.284 -23.541 -13.155  0.00  0.00    +0.015 C 
ATOM     29  C   UNL     1      36.896 -22.475 -13.370  0.00  0.00    +0.001 C 
ATOM     30  C   UNL     1      35.146 -23.525 -12.055  0.00  0.00    +0.001 C 
ATOM     31  C   UNL     1      36.433 -23.001 -12.158  0.00  0.00    +0.000 C 
ATOM     32  H   UNL     1      33.228 -23.192 -15.785  0.00  0.00    +0.152 HD
ENDBRANCH  22  24
ENDBRANCH   3  22
TORSDOF 4
ENDMDL
MODEL 4
REMARK VINA RESULT:     -11.8      1.051      1.761
REMARK  Name = 66555680
REMARK  4 active torsions:
REMARK  status: ('A' for Active; 'I' for Inactive)
REMARK    1  A    between atoms: N_1  and  C_8
REMARK    2  A    between atoms: C_3  and  C_22
REMARK    3  A    between atoms: C_4  and  N_18
REMARK    4  A    between atoms: C_22  and  C_24
REMARK                            x       y       z     vdW  Elec       q    Type
REMARK                         _______ _______ _______ _____ _____    ______ ____
ROOT
ATOM      1  N   UNL     1      34.584 -14.776 -22.084  0.00  0.00    -0.177 N 
ATOM      2  N   UNL     1      34.687 -15.174 -23.364  0.00  0.00    -0.171 NA
ATOM      3  C   UNL     1      35.706 -16.645 -21.945  0.00  0.00    +0.090 C 
ATOM      4  C   UNL     1      35.178 -15.623 -21.194  0.00  0.00    +0.122 C 
ATOM      5  C   UNL     1      35.373 -16.316 -23.272  0.00  0.00    +0.124 C 
ENDROOT
BRANCH   1   8
ATOM      6  N   UNL     1      31.807 -11.829 -19.279  0.00  0.00    -0.318 N 
ATOM      7  N   UNL     1      31.853 -10.144 -20.728  0.00  0.00    -0.318 N 
ATOM      8  C   UNL     1      33.911 -13.589 -21.786  0.00  0.00    +0.077 C 
ATOM      9  C   UNL     1      32.563 -12.273 -20.333  0.00  0.00    +0.060 C 
ATOM     10  C   UNL     1      33.217 -13.481 -20.576  0.00  0.00    +0.032 C 
ATOM     11  C   UNL     1      32.577 -11.204 -21.223  0.00  0.00    +0.059 C 
ATOM     12  C   UNL     1      33.942 -12.534 -22.699  0.00  0.00    +0.018 C 
ATOM     13  C   UNL     1      33.279 -11.330 -22.434  0.00  0.00    +0.017 C 
ATOM     14  C   UNL     1      31.406 -10.553 -19.561  0.00  0.00    +0.144 C 
ATOM     15  C   UNL     1      30.570  -9.787 -18.618  0.00  0.00    +0.044 C 
ATOM     16  H   UNL     1      31.592 -12.338 -18.464  0.00  0.00    +0.148 HD
ATOM     17  H   UNL     1      31.702  -9.269 -21.153  0.00  0.00    +0.148 HD
ENDBRANCH   1   8
BRANCH   4  18
ATOM     18  N   UNL     1      35.174 -15.385 -19.865  0.00  0.00    -0.344 N 
ATOM     19  H   UNL     1      35.306 -16.126 -19.231  0.00  0.00    +0.144 HD
ATOM     20  H   UNL     1      35.039 -14.469 -19.529  0.00  0.00    +0.144 HD
ENDBRANCH   4  18
BRANCH   3  22
ATOM     21  O   UNL     1      37.655 -17.932 -21.814  0.00  0.00    -0.285 OA
ATOM     22  C   UNL     1      36.467 -17.838 -21.424  0.00  0.00    +0.213 C 
BRANCH  22  24
ATOM     23  N   UNL     1      36.602 -19.466 -19.575  0.00  0.00    -0.310 N 
ATOM     24  C   UNL     1      35.895 -18.810 -20.547  0.00  0.00    +0.088 C 
ATOM     25  C   UNL     1      35.779 -20.338 -18.897  0.00  0.00    +0.048 C 
ATOM     26  C   UNL     1      34.507 -20.226 -19.462  0.00  0.00    +0.015 C 
ATOM     27  C   UNL     1      34.595 -19.258 -20.502  0.00  0.00    +0.019 C 
ATOM     28  C   UNL     1      36.060 -21.208 -17.838  0.00  0.00    +0.015 C 
ATOM     29  C   UNL     1      33.464 -21.019 -18.946  0.00  0.00    +0.001 C 
ATOM     30  C   UNL     1      35.010 -21.984 -17.343  0.00  0.00    +0.001 C 
ATOM     31  C   UNL     1      33.730 -21.894 -17.887  0.00  0.00    +0.000 C 
ATOM     32  H   UNL     1      37.559 -19.335 -19.388  0.00  0.00    +0.152 HD
ENDBRANCH  22  24
ENDBRANCH   3  22
TORSDOF 4
ENDMDL
MODEL 5
REMARK VINA RESULT:     -11.4      2.864     10.283
REMARK  Name = 66555680
REMARK  4 active torsions:
REMARK  status: ('A' for Active; 'I' for Inactive)
REMARK    1  A    between atoms: N_1  and  C_8
REMARK    2  A    between atoms: C_3  and  C_22
REMARK    3  A    between atoms: C_4  and  N_18
REMARK    4  A    between atoms: C_22  and  C_24
REMARK                            x       y       z     vdW  Elec       q    Type
REMARK                         _______ _______ _______ _____ _____    ______ ____
ROOT
ATOM      1  N   UNL     1      33.879 -12.750 -22.332  0.00  0.00    -0.177 N 
ATOM      2  N   UNL     1      34.422 -11.843 -23.163  0.00  0.00    -0.171 NA
ATOM      3  C   UNL     1      32.713 -10.945 -21.940  0.00  0.00    +0.090 C 
ATOM      4  C   UNL     1      32.852 -12.263 -21.578  0.00  0.00    +0.122 C 
ATOM      5  C   UNL     1      33.705 -10.742 -22.918  0.00  0.00    +0.124 C 
ENDROOT
BRANCH   1   8
ATOM      6  N   UNL     1      35.699 -16.774 -20.150  0.00  0.00    -0.318 N 
ATOM      7  N   UNL     1      35.912 -17.902 -22.054  0.00  0.00    -0.318 N 
ATOM      8  C   UNL     1      34.386 -14.051 -22.312  0.00  0.00    +0.077 C 
ATOM      9  C   UNL     1      35.253 -15.925 -21.131  0.00  0.00    +0.060 C 
ATOM     10  C   UNL     1      34.753 -14.624 -21.090  0.00  0.00    +0.032 C 
ATOM     11  C   UNL     1      35.397 -16.652 -22.309  0.00  0.00    +0.059 C 
ATOM     12  C   UNL     1      34.519 -14.755 -23.511  0.00  0.00    +0.018 C 
ATOM     13  C   UNL     1      35.024 -16.061 -23.528  0.00  0.00    +0.017 C 
ATOM     14  C   UNL     1      36.081 -17.941 -20.751  0.00  0.00    +0.144 C 
ATOM     15  C   UNL     1      36.611 -19.069 -19.963  0.00  0.00    +0.044 C 
ATOM     16  H   UNL     1      35.735 -16.578 -19.186  0.00  0.00    +0.148 HD
ATOM     17  H   UNL     1      36.112 -18.613 -22.705  0.00  0.00    +0.148 HD
ENDBRANCH   1   8
BRANCH   4  18
ATOM     18  N   UNL     1      32.188 -13.032 -20.688  0.00  0.00    -0.344 N 
ATOM     19  H   UNL     1      31.648 -12.612 -19.980  0.00  0.00    +0.144 HD
ATOM     20  H   UNL     1      32.244 -14.013 -20.747  0.00  0.00    +0.144 HD
ENDBRANCH   4  18
BRANCH   3  22
ATOM     21  O   UNL     1      30.767 -10.470 -20.734  0.00  0.00    -0.285 OA
ATOM     22  C   UNL     1      31.709  -9.965 -21.388  0.00  0.00    +0.213 C 
BRANCH  22  24
ATOM     23  N   UNL     1      32.008  -7.655 -20.574  0.00  0.00    -0.310 N 
ATOM     24  C   UNL     1      31.801  -8.553 -21.586  0.00  0.00    +0.088 C 
ATOM     25  C   UNL     1      32.049  -6.374 -21.076  0.00  0.00    +0.048 C 
ATOM     26  C   UNL     1      31.862  -6.468 -22.457  0.00  0.00    +0.015 C 
ATOM     27  C   UNL     1      31.706  -7.849 -22.764  0.00  0.00    +0.019 C 
ATOM     28  C   UNL     1      32.236  -5.152 -20.421  0.00  0.00    +0.015 C 
ATOM     29  C   UNL     1      31.861  -5.286 -23.223  0.00  0.00    +0.001 C 
ATOM     30  C   UNL     1      32.232  -3.993 -21.202  0.00  0.00    +0.001 C 
ATOM     31  C   UNL     1      32.047  -4.056 -22.582  0.00  0.00    +0.000 C 
ATOM     32  H   UNL     1      32.112  -7.891 -19.624  0.00  0.00    +0.152 HD
ENDBRANCH  22  24
ENDBRANCH   3  22
TORSDOF 4
ENDMDL
MODEL 6
REMARK VINA RESULT:     -11.2      1.409      2.571
REMARK  Name = 66555680
REMARK  4 active torsions:
REMARK  status: ('A' for Active; 'I' for Inactive)
REMARK    1  A    between atoms: N_1  and  C_8
REMARK    2  A    between atoms: C_3  and  C_22
REMARK    3  A    between atoms: C_4  and  N_18
REMARK    4  A    between atoms: C_22  and  C_24
REMARK                            x       y       z     vdW  Elec       q    Type
REMARK                         _______ _______ _______ _____ _____    ______ ____
ROOT
ATOM      1  N   UNL     1      34.343 -13.201 -22.157  0.00  0.00    -0.177 N 
ATOM      2  N   UNL     1      34.637 -13.407 -20.861  0.00  0.00    -0.171 NA
ATOM      3  C   UNL     1      34.877 -15.318 -22.089  0.00  0.00    +0.090 C 
ATOM      4  C   UNL     1      34.471 -14.315 -22.935  0.00  0.00    +0.122 C 
ATOM      5  C   UNL     1      34.963 -14.702 -20.827  0.00  0.00    +0.124 C 
ENDROOT
BRANCH   1   8
ATOM      6  N   UNL     1      31.933  -8.927 -21.723  0.00  0.00    -0.318 N 
ATOM      7  N   UNL     1      32.673  -8.132 -23.662  0.00  0.00    -0.318 N 
ATOM      8  C   UNL     1      33.950 -11.929 -22.578  0.00  0.00    +0.077 C 
ATOM      9  C   UNL     1      32.734  -9.912 -22.241  0.00  0.00    +0.060 C 
ATOM     10  C   UNL     1      33.094 -11.175 -21.769  0.00  0.00    +0.032 C 
ATOM     11  C   UNL     1      33.184  -9.392 -23.450  0.00  0.00    +0.059 C 
ATOM     12  C   UNL     1      34.418 -11.434 -23.797  0.00  0.00    +0.018 C 
ATOM     13  C   UNL     1      34.044 -10.164 -24.251  0.00  0.00    +0.017 C 
ATOM     14  C   UNL     1      31.928  -7.885 -22.608  0.00  0.00    +0.144 C 
ATOM     15  C   UNL     1      31.154  -6.659 -22.342  0.00  0.00    +0.044 C 
ATOM     16  H   UNL     1      31.448  -8.964 -20.866  0.00  0.00    +0.148 HD
ATOM     17  H   UNL     1      32.831  -7.543 -24.435  0.00  0.00    +0.148 HD
ENDBRANCH   1   8
BRANCH   4  18
ATOM     18  N   UNL     1      34.217 -14.296 -24.261  0.00  0.00    -0.344 N 
ATOM     19  H   UNL     1      33.319 -14.060 -24.588  0.00  0.00    +0.144 HD
ATOM     20  H   UNL     1      34.931 -14.520 -24.902  0.00  0.00    +0.144 HD
ENDBRANCH   4  18
BRANCH   3  22
ATOM     21  O   UNL     1      35.255 -16.973 -23.698  0.00  0.00    -0.285 OA
ATOM     22  C   UNL     1      35.159 -16.750 -22.469  0.00  0.00    +0.213 C 
BRANCH  22  24
ATOM     23  N   UNL     1      34.267 -18.547 -21.032  0.00  0.00    -0.310 N 
ATOM     24  C   UNL     1      35.310 -17.799 -21.510  0.00  0.00    +0.088 C 
ATOM     25  C   UNL     1      34.727 -19.476 -20.124  0.00  0.00    +0.048 C 
ATOM     26  C   UNL     1      36.109 -19.307 -20.027  0.00  0.00    +0.015 C 
ATOM     27  C   UNL     1      36.463 -18.245 -20.907  0.00  0.00    +0.019 C 
ATOM     28  C   UNL     1      34.031 -20.442 -19.389  0.00  0.00    +0.015 C 
ATOM     29  C   UNL     1      36.835 -20.141 -19.156  0.00  0.00    +0.001 C 
ATOM     30  C   UNL     1      34.771 -21.259 -18.532  0.00  0.00    +0.001 C 
ATOM     31  C   UNL     1      36.153 -21.113 -18.414  0.00  0.00    +0.000 C 
ATOM     32  H   UNL     1      33.326 -18.437 -21.298  0.00  0.00    +0.152 HD
ENDBRANCH  22  24
ENDBRANCH   3  22
TORSDOF 4
ENDMDL
MODEL 7
REMARK VINA RESULT:     -11.2      2.528      9.689
REMARK  Name = 66555680
REMARK  4 active torsions:
REMARK  status: ('A' for Active; 'I' for Inactive)
REMARK    1  A    between atoms: N_1  and  C_8
REMARK    2  A    between atoms: C_3  and  C_22
REMARK    3  A    between atoms: C_4  and  N_18
REMARK    4  A    between atoms: C_22  and  C_24
REMARK                            x       y       z     vdW  Elec       q    Type
REMARK                         _______ _______ _______ _____ _____    ______ ____
ROOT
ATOM      1  N   UNL     1      34.694 -20.255 -19.236  0.00  0.00    -0.177 N 
ATOM      2  N   UNL     1      33.590 -20.101 -19.987  0.00  0.00    -0.171 NA
ATOM      3  C   UNL     1      35.311 -18.806 -20.749  0.00  0.00    +0.090 C 
ATOM      4  C   UNL     1      35.753 -19.502 -19.650  0.00  0.00    +0.122 C 
ATOM      5  C   UNL     1      33.974 -19.214 -20.910  0.00  0.00    +0.124 C 
ENDROOT
BRANCH   1   8
ATOM      6  N   UNL     1      36.634 -22.549 -15.332  0.00  0.00    -0.318 N 
ATOM      7  N   UNL     1      34.777 -23.683 -14.877  0.00  0.00    -0.318 N 
ATOM      8  C   UNL     1      34.667 -21.130 -18.148  0.00  0.00    +0.077 C 
ATOM      9  C   UNL     1      35.728 -22.167 -16.288  0.00  0.00    +0.060 C 
ATOM     10  C   UNL     1      35.813 -21.279 -17.360  0.00  0.00    +0.032 C 
ATOM     11  C   UNL     1      34.577 -22.888 -15.982  0.00  0.00    +0.059 C 
ATOM     12  C   UNL     1      33.498 -21.841 -17.866  0.00  0.00    +0.018 C 
ATOM     13  C   UNL     1      33.435 -22.727 -16.784  0.00  0.00    +0.017 C 
ATOM     14  C   UNL     1      36.019 -23.455 -14.513  0.00  0.00    +0.144 C 
ATOM     15  C   UNL     1      36.730 -24.064 -13.374  0.00  0.00    +0.044 C 
ATOM     16  H   UNL     1      37.561 -22.228 -15.250  0.00  0.00    +0.148 HD
ATOM     17  H   UNL     1      34.130 -24.291 -14.451  0.00  0.00    +0.148 HD
ENDBRANCH   1   8
BRANCH   4  18
ATOM     18  N   UNL     1      36.945 -19.529 -19.016  0.00  0.00    -0.344 N 
ATOM     19  H   UNL     1      37.710 -19.029 -19.382  0.00  0.00    +0.144 HD
ATOM     20  H   UNL     1      37.049 -20.049 -18.186  0.00  0.00    +0.144 HD
ENDBRANCH   4  18
BRANCH   3  22
ATOM     21  O   UNL     1      37.349 -18.032 -21.596  0.00  0.00    -0.285 OA
ATOM     22  C   UNL     1      36.112 -17.830 -21.574  0.00  0.00    +0.213 C 
BRANCH  22  24
ATOM     23  N   UNL     1      35.388 -15.480 -21.774  0.00  0.00    -0.310 N 
ATOM     24  C   UNL     1      35.524 -16.741 -22.288  0.00  0.00    +0.088 C 
ATOM     25  C   UNL     1      34.787 -14.653 -22.697  0.00  0.00    +0.048 C 
ATOM     26  C   UNL     1      34.534 -15.423 -23.835  0.00  0.00    +0.015 C 
ATOM     27  C   UNL     1      35.005 -16.738 -23.562  0.00  0.00    +0.019 C 
ATOM     28  C   UNL     1      34.450 -13.298 -22.613  0.00  0.00    +0.015 C 
ATOM     29  C   UNL     1      33.917 -14.812 -24.943  0.00  0.00    +0.001 C 
ATOM     30  C   UNL     1      33.839 -12.713 -23.724  0.00  0.00    +0.001 C 
ATOM     31  C   UNL     1      33.575 -13.457 -24.874  0.00  0.00    +0.000 C 
ATOM     32  H   UNL     1      35.678 -15.203 -20.875  0.00  0.00    +0.152 HD
ENDBRANCH  22  24
ENDBRANCH   3  22
TORSDOF 4
ENDMDL
MODEL 8
REMARK VINA RESULT:     -11.1      3.573     10.100
REMARK  Name = 66555680
REMARK  4 active torsions:
REMARK  status: ('A' for Active; 'I' for Inactive)
REMARK    1  A    between atoms: N_1  and  C_8
REMARK    2  A    between atoms: C_3  and  C_22
REMARK    3  A    between atoms: C_4  and  N_18
REMARK    4  A    between atoms: C_22  and  C_24
REMARK                            x       y       z     vdW  Elec       q    Type
REMARK                         _______ _______ _______ _____ _____    ______ ____
ROOT
ATOM      1  N   UNL     1      33.993 -21.331 -18.054  0.00  0.00    -0.177 N 
ATOM      2  N   UNL     1      32.984 -21.118 -18.917  0.00  0.00    -0.171 NA
ATOM      3  C   UNL     1      34.919 -20.135 -19.631  0.00  0.00    +0.090 C 
ATOM      4  C   UNL     1      35.173 -20.763 -18.435  0.00  0.00    +0.122 C 
ATOM      5  C   UNL     1      33.556 -20.387 -19.878  0.00  0.00    +0.124 C 
ENDROOT
BRANCH   1   8
ATOM      6  N   UNL     1      31.176 -23.246 -14.495  0.00  0.00    -0.318 N 
ATOM      7  N   UNL     1      32.876 -24.250 -13.473  0.00  0.00    -0.318 N 
ATOM      8  C   UNL     1      33.760 -22.077 -16.897  0.00  0.00    +0.077 C 
ATOM      9  C   UNL     1      32.285 -22.939 -15.241  0.00  0.00    +0.060 C 
ATOM     10  C   UNL     1      32.457 -22.181 -16.400  0.00  0.00    +0.032 C 
ATOM     11  C   UNL     1      33.333 -23.577 -14.583  0.00  0.00    +0.059 C 
ATOM     12  C   UNL     1      34.831 -22.706 -16.258  0.00  0.00    +0.018 C 
ATOM     13  C   UNL     1      34.636 -23.462 -15.096  0.00  0.00    +0.017 C 
ATOM     14  C   UNL     1      31.580 -24.031 -13.451  0.00  0.00    +0.144 C 
ATOM     15  C   UNL     1      30.617 -24.535 -12.455  0.00  0.00    +0.044 C 
ATOM     16  H   UNL     1      30.254 -22.955 -14.680  0.00  0.00    +0.148 HD
ATOM     17  H   UNL     1      33.405 -24.780 -12.834  0.00  0.00    +0.148 HD
ENDBRANCH   1   8
BRANCH   4  18
ATOM     18  N   UNL     1      36.296 -20.873 -17.692  0.00  0.00    -0.344 N 
ATOM     19  H   UNL     1      36.556 -21.746 -17.319  0.00  0.00    +0.144 HD
ATOM     20  H   UNL     1      36.854 -20.080 -17.524  0.00  0.00    +0.144 HD
ENDBRANCH   4  18
BRANCH   3  22
ATOM     21  O   UNL     1      37.115 -19.584 -20.215  0.00  0.00    -0.285 OA
ATOM     22  C   UNL     1      35.908 -19.359 -20.463  0.00  0.00    +0.213 C 
BRANCH  22  24
ATOM     23  N   UNL     1      35.610 -17.065 -21.323  0.00  0.00    -0.310 N 
ATOM     24  C   UNL     1      35.519 -18.423 -21.471  0.00  0.00    +0.088 C 
ATOM     25  C   UNL     1      35.161 -16.433 -22.460  0.00  0.00    +0.048 C 
ATOM     26  C   UNL     1      34.771 -17.429 -23.358  0.00  0.00    +0.015 C 
ATOM     27  C   UNL     1      35.003 -18.680 -22.720  0.00  0.00    +0.019 C 
ATOM     28  C   UNL     1      35.069 -15.069 -22.760  0.00  0.00    +0.015 C 
ATOM     29  C   UNL     1      34.267 -17.048 -24.617  0.00  0.00    +0.001 C 
ATOM     30  C   UNL     1      34.566 -14.715 -24.014  0.00  0.00    +0.001 C 
ATOM     31  C   UNL     1      34.170 -15.688 -24.931  0.00  0.00    +0.000 C 
ATOM     32  H   UNL     1      35.948 -16.607 -20.520  0.00  0.00    +0.152 HD
ENDBRANCH  22  24
ENDBRANCH   3  22
TORSDOF 4
ENDMDL
MODEL 9
REMARK VINA RESULT:     -11.0      5.041      8.385
REMARK  Name = 66555680
REMARK  4 active torsions:
REMARK  status: ('A' for Active; 'I' for Inactive)
REMARK    1  A    between atoms: N_1  and  C_8
REMARK    2  A    between atoms: C_3  and  C_22
REMARK    3  A    between atoms: C_4  and  N_18
REMARK    4  A    between atoms: C_22  and  C_24
REMARK                            x       y       z     vdW  Elec       q    Type
REMARK                         _______ _______ _______ _____ _____    ______ ____
ROOT
ATOM      1  N   UNL     1      34.046 -21.358 -17.946  0.00  0.00    -0.177 N 
ATOM      2  N   UNL     1      32.739 -21.646 -18.072  0.00  0.00    -0.171 NA
ATOM      3  C   UNL     1      33.626 -22.579 -16.185  0.00  0.00    +0.090 C 
ATOM      4  C   UNL     1      34.624 -21.893 -16.833  0.00  0.00    +0.122 C 
ATOM      5  C   UNL     1      32.488 -22.392 -16.992  0.00  0.00    +0.124 C 
ENDROOT
BRANCH   1   8
ATOM      6  N   UNL     1      34.140 -18.418 -21.898  0.00  0.00    -0.318 N 
ATOM      7  N   UNL     1      36.353 -18.207 -21.884  0.00  0.00    -0.318 N 
ATOM      8  C   UNL     1      34.672 -20.574 -18.918  0.00  0.00    +0.077 C 
ATOM      9  C   UNL     1      34.573 -19.165 -20.832  0.00  0.00    +0.060 C 
ATOM     10  C   UNL     1      33.893 -19.933 -19.887  0.00  0.00    +0.032 C 
ATOM     11  C   UNL     1      35.956 -19.017 -20.845  0.00  0.00    +0.059 C 
ATOM     12  C   UNL     1      36.062 -20.445 -18.905  0.00  0.00    +0.018 C 
ATOM     13  C   UNL     1      36.724 -19.668 -19.864  0.00  0.00    +0.017 C 
ATOM     14  C   UNL     1      35.240 -17.866 -22.494  0.00  0.00    +0.144 C 
ATOM     15  C   UNL     1      35.114 -16.999 -23.680  0.00  0.00    +0.044 C 
ATOM     16  H   UNL     1      33.205 -18.300 -22.182  0.00  0.00    +0.148 HD
ATOM     17  H   UNL     1      37.271 -17.941 -22.120  0.00  0.00    +0.148 HD
ENDBRANCH   1   8
BRANCH   4  18
ATOM     18  N   UNL     1      35.930 -21.709 -16.543  0.00  0.00    -0.344 N 
ATOM     19  H   UNL     1      36.410 -22.366 -15.990  0.00  0.00    +0.144 HD
ATOM     20  H   UNL     1      36.403 -20.915 -16.885  0.00  0.00    +0.144 HD
ENDBRANCH   4  18
BRANCH   3  22
ATOM     21  O   UNL     1      32.687 -23.781 -14.412  0.00  0.00    -0.285 OA
ATOM     22  C   UNL     1      33.759 -23.349 -14.895  0.00  0.00    +0.213 C 
BRANCH  22  24
ATOM     23  N   UNL     1      35.486 -22.820 -13.214  0.00  0.00    -0.310 N 
ATOM     24  C   UNL     1      35.012 -23.582 -14.248  0.00  0.00    +0.088 C 
ATOM     25  C   UNL     1      36.715 -23.289 -12.804  0.00  0.00    +0.048 C 
ATOM     26  C   UNL     1      37.026 -24.387 -13.610  0.00  0.00    +0.015 C 
ATOM     27  C   UNL     1      35.942 -24.560 -14.516  0.00  0.00    +0.019 C 
ATOM     28  C   UNL     1      37.565 -22.830 -11.793  0.00  0.00    +0.015 C 
ATOM     29  C   UNL     1      38.244 -25.061 -13.397  0.00  0.00    +0.001 C 
ATOM     30  C   UNL     1      38.768 -23.514 -11.600  0.00  0.00    +0.001 C 
ATOM     31  C   UNL     1      39.104 -24.613 -12.388  0.00  0.00    +0.000 C 
ATOM     32  H   UNL     1      35.018 -22.049 -12.821  0.00  0.00    +0.152 HD
ENDBRANCH  22  24
ENDBRANCH   3  22
TORSDOF 4
ENDMDL
