MODEL 1
REMARK VINA RESULT:     -11.3      0.000      0.000
REMARK  Name = 176407
REMARK  5 active torsions:
REMARK  status: ('A' for Active; 'I' for Inactive)
REMARK    1  A    between atoms: N_1  and  C_20
REMARK    2  A    between atoms: C_11  and  C_16
REMARK    3  A    between atoms: C_20  and  C_21
REMARK    4  A    between atoms: C_21  and  C_22
REMARK    5  A    between atoms: C_27  and  O_28
REMARK                            x       y       z     vdW  Elec       q    Type
REMARK                         _______ _______ _______ _____ _____    ______ ____
ROOT
ATOM      1  N   UNL     1      35.741 -23.185 -13.614  0.00  0.00    -0.258 N 
ATOM      2  N   UNL     1      32.543 -22.570 -15.928  0.00  0.00    -0.059 N 
ATOM      3  N   UNL     1      33.455 -22.819 -13.780  0.00  0.00    -0.245 NA
ATOM      4  N   UNL     1      34.790 -22.930 -15.761  0.00  0.00    -0.294 NA
ATOM      5  N   UNL     1      31.386 -22.357 -16.572  0.00  0.00    -0.090 NA
ATOM      6  N   UNL     1      31.101 -22.425 -14.302  0.00  0.00    -0.267 NA
ATOM      7  N   UNL     1      33.817 -22.672 -17.908  0.00  0.00    -0.318 N 
ATOM      8  C   UNL     1      34.617 -22.971 -14.378  0.00  0.00    +0.213 C 
ATOM      9  C   UNL     1      32.377 -22.611 -14.573  0.00  0.00    +0.251 C 
ATOM     10  C   UNL     1      33.769 -22.732 -16.542  0.00  0.00    +0.282 C 
ATOM     11  C   UNL     1      30.541 -22.276 -15.541  0.00  0.00    +0.153 C 
ATOM     12  H   UNL     1      36.609 -23.298 -14.065  0.00  0.00    +0.160 HD
ATOM     13  H   UNL     1      32.991 -22.517 -18.424  0.00  0.00    +0.146 HD
ATOM     14  H   UNL     1      34.675 -22.782 -18.377  0.00  0.00    +0.146 HD
ENDROOT
BRANCH  11  16
ATOM     15  O   UNL     1      28.483 -21.971 -16.937  0.00  0.00    -0.439 OA
ATOM     16  C   UNL     1      29.099 -22.040 -15.728  0.00  0.00    +0.221 C 
ATOM     17  C   UNL     1      28.188 -21.859 -14.712  0.00  0.00    +0.052 C 
ATOM     18  C   UNL     1      26.934 -21.665 -15.338  0.00  0.00    +0.045 C 
ATOM     19  C   UNL     1      27.167 -21.742 -16.691  0.00  0.00    +0.181 C 
ENDBRANCH  11  16
BRANCH   1  20
ATOM     20  C   UNL     1      35.688 -23.246 -12.188  0.00  0.00    +0.103 C 
BRANCH  20  21
ATOM     21  C   UNL     1      36.403 -24.493 -11.669  0.00  0.00    +0.048 C 
BRANCH  21  22
ATOM     22  C   UNL     1      37.655 -24.824 -12.443  0.00  0.00    -0.020 C 
ATOM     23  C   UNL     1      37.648 -25.897 -13.321  0.00  0.00    -0.001 C 
ATOM     24  C   UNL     1      38.790 -24.050 -12.261  0.00  0.00    -0.001 C 
ATOM     25  C   UNL     1      38.806 -26.203 -14.035  0.00  0.00    +0.036 C 
ATOM     26  C   UNL     1      39.948 -24.356 -12.975  0.00  0.00    +0.036 C 
ATOM     27  C   UNL     1      39.956 -25.432 -13.863  0.00  0.00    +0.134 C 
BRANCH  27  28
ATOM     28  O   UNL     1      41.085 -25.732 -14.561  0.00  0.00    -0.506 OA
ATOM     29  H   UNL     1      41.407 -25.136 -15.208  0.00  0.00    +0.292 HD
ENDBRANCH  27  28
ENDBRANCH  21  22
ENDBRANCH  20  21
ENDBRANCH   1  20
TORSDOF 5
ENDMDL
MODEL 2
REMARK VINA RESULT:     -11.3      4.196      8.168
REMARK  Name = 176407
REMARK  5 active torsions:
REMARK  status: ('A' for Active; 'I' for Inactive)
REMARK    1  A    between atoms: N_1  and  C_20
REMARK    2  A    between atoms: C_11  and  C_16
REMARK    3  A    between atoms: C_20  and  C_21
REMARK    4  A    between atoms: C_21  and  C_22
REMARK    5  A    between atoms: C_27  and  O_28
REMARK                            x       y       z     vdW  Elec       q    Type
REMARK                         _______ _______ _______ _____ _____    ______ ____
ROOT
ATOM      1  N   UNL     1      32.713 -21.556 -18.405  0.00  0.00    -0.258 N 
ATOM      2  N   UNL     1      33.805 -22.996 -14.842  0.00  0.00    -0.059 N 
ATOM      3  N   UNL     1      34.407 -22.278 -16.994  0.00  0.00    -0.245 NA
ATOM      4  N   UNL     1      32.140 -22.285 -16.232  0.00  0.00    -0.294 NA
ATOM      5  N   UNL     1      34.318 -23.477 -13.700  0.00  0.00    -0.090 NA
ATOM      6  N   UNL     1      35.938 -23.095 -15.272  0.00  0.00    -0.267 NA
ATOM      7  N   UNL     1      31.586 -23.022 -14.047  0.00  0.00    -0.318 N 
ATOM      8  C   UNL     1      33.127 -22.051 -17.191  0.00  0.00    +0.213 C 
ATOM      9  C   UNL     1      34.768 -22.766 -15.782  0.00  0.00    +0.251 C 
ATOM     10  C   UNL     1      32.463 -22.754 -15.063  0.00  0.00    +0.282 C 
ATOM     11  C   UNL     1      35.615 -23.519 -14.012  0.00  0.00    +0.153 C 
ATOM     12  H   UNL     1      31.753 -21.388 -18.548  0.00  0.00    +0.160 HD
ATOM     13  H   UNL     1      31.918 -23.376 -13.190  0.00  0.00    +0.146 HD
ATOM     14  H   UNL     1      30.623 -22.860 -14.172  0.00  0.00    +0.146 HD
ENDROOT
BRANCH  11  16
ATOM     15  O   UNL     1      36.907 -25.299 -12.812  0.00  0.00    -0.439 OA
ATOM     16  C   UNL     1      36.635 -23.991 -13.059  0.00  0.00    +0.221 C 
ATOM     17  C   UNL     1      37.440 -23.179 -12.294  0.00  0.00    +0.052 C 
ATOM     18  C   UNL     1      38.260 -24.044 -11.530  0.00  0.00    +0.045 C 
ATOM     19  C   UNL     1      37.897 -25.322 -11.881  0.00  0.00    +0.181 C 
ENDBRANCH  11  16
BRANCH   1  20
ATOM     20  C   UNL     1      33.630 -21.276 -19.462  0.00  0.00    +0.103 C 
BRANCH  20  21
ATOM     21  C   UNL     1      33.553 -19.808 -19.880  0.00  0.00    +0.048 C 
BRANCH  21  22
ATOM     22  C   UNL     1      34.871 -19.262 -20.371  0.00  0.00    -0.020 C 
ATOM     23  C   UNL     1      36.035 -19.578 -19.688  0.00  0.00    -0.001 C 
ATOM     24  C   UNL     1      34.893 -18.453 -21.496  0.00  0.00    -0.001 C 
ATOM     25  C   UNL     1      37.252 -19.073 -20.142  0.00  0.00    +0.036 C 
ATOM     26  C   UNL     1      36.111 -17.947 -21.950  0.00  0.00    +0.036 C 
ATOM     27  C   UNL     1      37.291 -18.257 -21.273  0.00  0.00    +0.134 C 
BRANCH  27  28
ATOM     28  O   UNL     1      38.480 -17.765 -21.716  0.00  0.00    -0.506 OA
ATOM     29  H   UNL     1      38.565 -16.853 -21.913  0.00  0.00    +0.292 HD
ENDBRANCH  27  28
ENDBRANCH  21  22
ENDBRANCH  20  21
ENDBRANCH   1  20
TORSDOF 5
ENDMDL
MODEL 3
REMARK VINA RESULT:     -11.2      9.557     11.373
REMARK  Name = 176407
REMARK  5 active torsions:
REMARK  status: ('A' for Active; 'I' for Inactive)
REMARK    1  A    between atoms: N_1  and  C_20
REMARK    2  A    between atoms: C_11  and  C_16
REMARK    3  A    between atoms: C_20  and  C_21
REMARK    4  A    between atoms: C_21  and  C_22
REMARK    5  A    between atoms: C_27  and  O_28
REMARK                            x       y       z     vdW  Elec       q    Type
REMARK                         _______ _______ _______ _____ _____    ______ ____
ROOT
ATOM      1  N   UNL     1      36.004 -17.335 -22.223  0.00  0.00    -0.258 N 
ATOM      2  N   UNL     1      34.119 -14.009 -23.380  0.00  0.00    -0.059 N 
ATOM      3  N   UNL     1      35.136 -15.255 -21.672  0.00  0.00    -0.245 NA
ATOM      4  N   UNL     1      34.974 -16.055 -23.919  0.00  0.00    -0.294 NA
ATOM      5  N   UNL     1      33.499 -12.844 -23.621  0.00  0.00    -0.090 NA
ATOM      6  N   UNL     1      34.129 -13.042 -21.429  0.00  0.00    -0.267 NA
ATOM      7  N   UNL     1      33.934 -14.755 -25.609  0.00  0.00    -0.318 N 
ATOM      8  C   UNL     1      35.358 -16.176 -22.584  0.00  0.00    +0.213 C 
ATOM      9  C   UNL     1      34.496 -14.130 -22.073  0.00  0.00    +0.251 C 
ATOM     10  C   UNL     1      34.358 -14.985 -24.328  0.00  0.00    +0.282 C 
ATOM     11  C   UNL     1      33.530 -12.294 -22.405  0.00  0.00    +0.153 C 
ATOM     12  H   UNL     1      36.168 -18.023 -22.908  0.00  0.00    +0.160 HD
ATOM     13  H   UNL     1      33.475 -13.912 -25.832  0.00  0.00    +0.146 HD
ATOM     14  H   UNL     1      34.090 -15.430 -26.308  0.00  0.00    +0.146 HD
ENDROOT
BRANCH  11  16
ATOM     15  O   UNL     1      33.262  -9.839 -22.831  0.00  0.00    -0.439 OA
ATOM     16  C   UNL     1      32.956 -10.963 -22.133  0.00  0.00    +0.221 C 
ATOM     17  C   UNL     1      32.043 -10.683 -21.143  0.00  0.00    +0.052 C 
ATOM     18  C   UNL     1      31.771  -9.297 -21.240  0.00  0.00    +0.045 C 
ATOM     19  C   UNL     1      32.537  -8.830 -22.281  0.00  0.00    +0.181 C 
ENDBRANCH  11  16
BRANCH   1  20
ATOM     20  C   UNL     1      36.445 -17.572 -20.885  0.00  0.00    +0.103 C 
BRANCH  20  21
ATOM     21  C   UNL     1      36.724 -19.057 -20.657  0.00  0.00    +0.048 C 
BRANCH  21  22
ATOM     22  C   UNL     1      35.608 -19.765 -19.930  0.00  0.00    -0.020 C 
ATOM     23  C   UNL     1      35.917 -20.726 -18.980  0.00  0.00    -0.001 C 
ATOM     24  C   UNL     1      34.293 -19.441 -20.224  0.00  0.00    -0.001 C 
ATOM     25  C   UNL     1      34.886 -21.381 -18.308  0.00  0.00    +0.036 C 
ATOM     26  C   UNL     1      33.261 -20.096 -19.552  0.00  0.00    +0.036 C 
ATOM     27  C   UNL     1      33.557 -21.065 -18.594  0.00  0.00    +0.134 C 
BRANCH  27  28
ATOM     28  O   UNL     1      32.551 -21.704 -17.937  0.00  0.00    -0.506 OA
ATOM     29  H   UNL     1      32.339 -21.464 -17.057  0.00  0.00    +0.292 HD
ENDBRANCH  27  28
ENDBRANCH  21  22
ENDBRANCH  20  21
ENDBRANCH   1  20
TORSDOF 5
ENDMDL
MODEL 4
REMARK VINA RESULT:     -11.2      4.416      6.056
REMARK  Name = 176407
REMARK  5 active torsions:
REMARK  status: ('A' for Active; 'I' for Inactive)
REMARK    1  A    between atoms: N_1  and  C_20
REMARK    2  A    between atoms: C_11  and  C_16
REMARK    3  A    between atoms: C_20  and  C_21
REMARK    4  A    between atoms: C_21  and  C_22
REMARK    5  A    between atoms: C_27  and  O_28
REMARK                            x       y       z     vdW  Elec       q    Type
REMARK                         _______ _______ _______ _____ _____    ______ ____
ROOT
ATOM      1  N   UNL     1      36.603 -22.686 -15.435  0.00  0.00    -0.258 N 
ATOM      2  N   UNL     1      34.754 -20.920 -18.505  0.00  0.00    -0.059 N 
ATOM      3  N   UNL     1      36.719 -21.272 -17.272  0.00  0.00    -0.245 NA
ATOM      4  N   UNL     1      34.643 -22.309 -16.698  0.00  0.00    -0.294 NA
ATOM      5  N   UNL     1      34.271 -20.262 -19.569  0.00  0.00    -0.090 NA
ATOM      6  N   UNL     1      36.500 -19.852 -19.249  0.00  0.00    -0.267 NA
ATOM      7  N   UNL     1      32.684 -21.918 -17.977  0.00  0.00    -0.318 N 
ATOM      8  C   UNL     1      36.001 -22.060 -16.502  0.00  0.00    +0.213 C 
ATOM      9  C   UNL     1      36.084 -20.678 -18.311  0.00  0.00    +0.251 C 
ATOM     10  C   UNL     1      34.011 -21.750 -17.687  0.00  0.00    +0.282 C 
ATOM     11  C   UNL     1      35.369 -19.628 -19.985  0.00  0.00    +0.153 C 
ATOM     12  H   UNL     1      36.062 -23.275 -14.861  0.00  0.00    +0.160 HD
ATOM     13  H   UNL     1      32.286 -21.455 -18.750  0.00  0.00    +0.146 HD
ATOM     14  H   UNL     1      32.127 -22.504 -17.415  0.00  0.00    +0.146 HD
ENDROOT
BRANCH  11  16
ATOM     15  O   UNL     1      34.685 -19.003 -22.313  0.00  0.00    -0.439 OA
ATOM     16  C   UNL     1      35.364 -18.744 -21.165  0.00  0.00    +0.221 C 
ATOM     17  C   UNL     1      36.040 -17.550 -21.263  0.00  0.00    +0.052 C 
ATOM     18  C   UNL     1      35.759 -17.043 -22.554  0.00  0.00    +0.045 C 
ATOM     19  C   UNL     1      34.931 -17.964 -23.153  0.00  0.00    +0.181 C 
ENDBRANCH  11  16
BRANCH   1  20
ATOM     20  C   UNL     1      37.988 -22.508 -15.136  0.00  0.00    +0.103 C 
BRANCH  20  21
ATOM     21  C   UNL     1      38.494 -23.618 -14.215  0.00  0.00    +0.048 C 
BRANCH  21  22
ATOM     22  C   UNL     1      37.782 -23.655 -12.885  0.00  0.00    -0.020 C 
ATOM     23  C   UNL     1      37.156 -24.825 -12.482  0.00  0.00    -0.001 C 
ATOM     24  C   UNL     1      37.767 -22.520 -12.091  0.00  0.00    -0.001 C 
ATOM     25  C   UNL     1      36.497 -24.859 -11.254  0.00  0.00    +0.036 C 
ATOM     26  C   UNL     1      37.108 -22.554 -10.862  0.00  0.00    +0.036 C 
ATOM     27  C   UNL     1      36.473 -23.724 -10.443  0.00  0.00    +0.134 C 
BRANCH  27  28
ATOM     28  O   UNL     1      35.830 -23.759  -9.244  0.00  0.00    -0.506 OA
ATOM     29  H   UNL     1      36.318 -23.890  -8.455  0.00  0.00    +0.292 HD
ENDBRANCH  27  28
ENDBRANCH  21  22
ENDBRANCH  20  21
ENDBRANCH   1  20
TORSDOF 5
ENDMDL
MODEL 5
REMARK VINA RESULT:     -11.2      3.041      4.470
REMARK  Name = 176407
REMARK  5 active torsions:
REMARK  status: ('A' for Active; 'I' for Inactive)
REMARK    1  A    between atoms: N_1  and  C_20
REMARK    2  A    between atoms: C_11  and  C_16
REMARK    3  A    between atoms: C_20  and  C_21
REMARK    4  A    between atoms: C_21  and  C_22
REMARK    5  A    between atoms: C_27  and  O_28
REMARK                            x       y       z     vdW  Elec       q    Type
REMARK                         _______ _______ _______ _____ _____    ______ ____
ROOT
ATOM      1  N   UNL     1      35.009 -23.923 -11.793  0.00  0.00    -0.258 N 
ATOM      2  N   UNL     1      34.125 -22.674 -15.483  0.00  0.00    -0.059 N 
ATOM      3  N   UNL     1      35.701 -22.904 -13.760  0.00  0.00    -0.245 NA
ATOM      4  N   UNL     1      33.448 -23.676 -13.548  0.00  0.00    -0.294 NA
ATOM      5  N   UNL     1      33.976 -22.206 -16.731  0.00  0.00    -0.090 NA
ATOM      6  N   UNL     1      36.101 -21.884 -15.945  0.00  0.00    -0.267 NA
ATOM      7  N   UNL     1      31.894 -23.418 -15.321  0.00  0.00    -0.318 N 
ATOM      8  C   UNL     1      34.742 -23.480 -13.068  0.00  0.00    +0.213 C 
ATOM      9  C   UNL     1      35.392 -22.484 -15.010  0.00  0.00    +0.251 C 
ATOM     10  C   UNL     1      33.127 -23.281 -14.745  0.00  0.00    +0.282 C 
ATOM     11  C   UNL     1      35.204 -21.736 -16.966  0.00  0.00    +0.153 C 
ATOM     12  H   UNL     1      34.289 -24.353 -11.278  0.00  0.00    +0.160 HD
ATOM     13  H   UNL     1      31.739 -23.089 -16.237  0.00  0.00    +0.146 HD
ATOM     14  H   UNL     1      31.162 -23.846 -14.822  0.00  0.00    +0.146 HD
ENDROOT
BRANCH  11  16
ATOM     15  O   UNL     1      36.844 -20.913 -18.672  0.00  0.00    -0.439 OA
ATOM     16  C   UNL     1      35.568 -21.101 -18.245  0.00  0.00    +0.221 C 
ATOM     17  C   UNL     1      34.673 -20.614 -19.170  0.00  0.00    +0.052 C 
ATOM     18  C   UNL     1      35.450 -20.094 -20.233  0.00  0.00    +0.045 C 
ATOM     19  C   UNL     1      36.763 -20.301 -19.882  0.00  0.00    +0.181 C 
ENDBRANCH  11  16
BRANCH   1  20
ATOM     20  C   UNL     1      36.297 -23.778 -11.195  0.00  0.00    +0.103 C 
BRANCH  20  21
ATOM     21  C   UNL     1      37.069 -25.097 -11.234  0.00  0.00    +0.048 C 
BRANCH  21  22
ATOM     22  C   UNL     1      38.053 -25.174 -12.375  0.00  0.00    -0.020 C 
ATOM     23  C   UNL     1      37.821 -26.064 -13.412  0.00  0.00    -0.001 C 
ATOM     24  C   UNL     1      39.169 -24.353 -12.366  0.00  0.00    -0.001 C 
ATOM     25  C   UNL     1      38.731 -26.136 -14.467  0.00  0.00    +0.036 C 
ATOM     26  C   UNL     1      40.079 -24.425 -13.421  0.00  0.00    +0.036 C 
ATOM     27  C   UNL     1      39.860 -25.316 -14.472  0.00  0.00    +0.134 C 
BRANCH  27  28
ATOM     28  O   UNL     1      40.746 -25.387 -15.502  0.00  0.00    -0.506 OA
ATOM     29  H   UNL     1      41.196 -26.189 -15.679  0.00  0.00    +0.292 HD
ENDBRANCH  27  28
ENDBRANCH  21  22
ENDBRANCH  20  21
ENDBRANCH   1  20
TORSDOF 5
ENDMDL
MODEL 6
REMARK VINA RESULT:     -11.1      5.898      9.982
REMARK  Name = 176407
REMARK  5 active torsions:
REMARK  status: ('A' for Active; 'I' for Inactive)
REMARK    1  A    between atoms: N_1  and  C_20
REMARK    2  A    between atoms: C_11  and  C_16
REMARK    3  A    between atoms: C_20  and  C_21
REMARK    4  A    between atoms: C_21  and  C_22
REMARK    5  A    between atoms: C_27  and  O_28
REMARK                            x       y       z     vdW  Elec       q    Type
REMARK                         _______ _______ _______ _____ _____    ______ ____
ROOT
ATOM      1  N   UNL     1      35.091 -19.670 -20.161  0.00  0.00    -0.258 N 
ATOM      2  N   UNL     1      35.189 -21.972 -16.897  0.00  0.00    -0.059 N 
ATOM      3  N   UNL     1      36.279 -20.473 -18.337  0.00  0.00    -0.245 NA
ATOM      4  N   UNL     1      34.023 -21.180 -18.692  0.00  0.00    -0.294 NA
ATOM      5  N   UNL     1      35.369 -22.695 -15.782  0.00  0.00    -0.090 NA
ATOM      6  N   UNL     1      37.240 -21.499 -16.337  0.00  0.00    -0.267 NA
ATOM      7  N   UNL     1      32.968 -22.698 -17.206  0.00  0.00    -0.318 N 
ATOM      8  C   UNL     1      35.162 -20.450 -19.031  0.00  0.00    +0.213 C 
ATOM      9  C   UNL     1      36.303 -21.256 -17.231  0.00  0.00    +0.251 C 
ATOM     10  C   UNL     1      34.022 -21.939 -17.636  0.00  0.00    +0.282 C 
ATOM     11  C   UNL     1      36.630 -22.374 -15.482  0.00  0.00    +0.153 C 
ATOM     12  H   UNL     1      34.253 -19.656 -20.678  0.00  0.00    +0.160 HD
ATOM     13  H   UNL     1      33.055 -23.245 -16.391  0.00  0.00    +0.146 HD
ATOM     14  H   UNL     1      32.122 -22.697 -17.710  0.00  0.00    +0.146 HD
ENDROOT
BRANCH  11  16
ATOM     15  O   UNL     1      37.052 -22.565 -13.019  0.00  0.00    -0.439 OA
ATOM     16  C   UNL     1      37.318 -22.927 -14.302  0.00  0.00    +0.221 C 
ATOM     17  C   UNL     1      38.316 -23.874 -14.339  0.00  0.00    +0.052 C 
ATOM     18  C   UNL     1      38.686 -24.108 -12.993  0.00  0.00    +0.045 C 
ATOM     19  C   UNL     1      37.889 -23.288 -12.229  0.00  0.00    +0.181 C 
ENDBRANCH  11  16
BRANCH   1  20
ATOM     20  C   UNL     1      36.193 -18.878 -20.607  0.00  0.00    +0.103 C 
BRANCH  20  21
ATOM     21  C   UNL     1      35.822 -17.396 -20.641  0.00  0.00    +0.048 C 
BRANCH  21  22
ATOM     22  C   UNL     1      35.352 -16.934 -21.998  0.00  0.00    -0.020 C 
ATOM     23  C   UNL     1      35.387 -15.583 -22.306  0.00  0.00    -0.001 C 
ATOM     24  C   UNL     1      34.893 -17.869 -22.912  0.00  0.00    -0.001 C 
ATOM     25  C   UNL     1      34.952 -15.157 -23.560  0.00  0.00    +0.036 C 
ATOM     26  C   UNL     1      34.458 -17.443 -24.166  0.00  0.00    +0.036 C 
ATOM     27  C   UNL     1      34.487 -16.086 -24.491  0.00  0.00    +0.134 C 
BRANCH  27  28
ATOM     28  O   UNL     1      34.063 -15.668 -25.715  0.00  0.00    -0.506 OA
ATOM     29  H   UNL     1      33.157 -15.728 -25.942  0.00  0.00    +0.292 HD
ENDBRANCH  27  28
ENDBRANCH  21  22
ENDBRANCH  20  21
ENDBRANCH   1  20
TORSDOF 5
ENDMDL
MODEL 7
REMARK VINA RESULT:     -11.1      5.499      8.360
REMARK  Name = 176407
REMARK  5 active torsions:
REMARK  status: ('A' for Active; 'I' for Inactive)
REMARK    1  A    between atoms: N_1  and  C_20
REMARK    2  A    between atoms: C_11  and  C_16
REMARK    3  A    between atoms: C_20  and  C_21
REMARK    4  A    between atoms: C_21  and  C_22
REMARK    5  A    between atoms: C_27  and  O_28
REMARK                            x       y       z     vdW  Elec       q    Type
REMARK                         _______ _______ _______ _____ _____    ______ ____
ROOT
ATOM      1  N   UNL     1      36.242 -20.301 -19.345  0.00  0.00    -0.258 N 
ATOM      2  N   UNL     1      34.350 -22.259 -16.421  0.00  0.00    -0.059 N 
ATOM      3  N   UNL     1      34.252 -21.105 -18.462  0.00  0.00    -0.245 NA
ATOM      4  N   UNL     1      36.306 -21.468 -17.292  0.00  0.00    -0.294 NA
ATOM      5  N   UNL     1      33.584 -22.890 -15.520  0.00  0.00    -0.090 NA
ATOM      6  N   UNL     1      32.353 -22.073 -17.267  0.00  0.00    -0.267 NA
ATOM      7  N   UNL     1      36.349 -22.641 -15.231  0.00  0.00    -0.318 N 
ATOM      8  C   UNL     1      35.557 -20.970 -18.358  0.00  0.00    +0.213 C 
ATOM      9  C   UNL     1      33.619 -21.770 -17.466  0.00  0.00    +0.251 C 
ATOM     10  C   UNL     1      35.720 -22.109 -16.324  0.00  0.00    +0.282 C 
ATOM     11  C   UNL     1      32.380 -22.749 -16.079  0.00  0.00    +0.153 C 
ATOM     12  H   UNL     1      37.218 -20.202 -19.263  0.00  0.00    +0.160 HD
ATOM     13  H   UNL     1      35.826 -23.114 -14.543  0.00  0.00    +0.146 HD
ATOM     14  H   UNL     1      37.325 -22.552 -15.132  0.00  0.00    +0.146 HD
ENDROOT
BRANCH  11  16
ATOM     15  O   UNL     1      31.142 -24.318 -14.567  0.00  0.00    -0.439 OA
ATOM     16  C   UNL     1      31.159 -23.290 -15.456  0.00  0.00    +0.221 C 
ATOM     17  C   UNL     1      29.882 -22.833 -15.688  0.00  0.00    +0.052 C 
ATOM     18  C   UNL     1      29.027 -23.631 -14.891  0.00  0.00    +0.045 C 
ATOM     19  C   UNL     1      29.841 -24.519 -14.229  0.00  0.00    +0.181 C 
ENDBRANCH  11  16
BRANCH   1  20
ATOM     20  C   UNL     1      35.583 -19.748 -20.484  0.00  0.00    +0.103 C 
BRANCH  20  21
ATOM     21  C   UNL     1      35.957 -18.279 -20.672  0.00  0.00    +0.048 C 
BRANCH  21  22
ATOM     22  C   UNL     1      35.451 -17.699 -21.970  0.00  0.00    -0.020 C 
ATOM     23  C   UNL     1      34.847 -18.534 -22.897  0.00  0.00    -0.001 C 
ATOM     24  C   UNL     1      35.598 -16.343 -22.211  0.00  0.00    -0.001 C 
ATOM     25  C   UNL     1      34.380 -17.999 -24.096  0.00  0.00    +0.036 C 
ATOM     26  C   UNL     1      35.131 -15.807 -23.411  0.00  0.00    +0.036 C 
ATOM     27  C   UNL     1      34.521 -16.635 -24.354  0.00  0.00    +0.134 C 
BRANCH  27  28
ATOM     28  O   UNL     1      34.063 -16.113 -25.525  0.00  0.00    -0.506 OA
ATOM     29  H   UNL     1      34.583 -16.178 -26.301  0.00  0.00    +0.292 HD
ENDBRANCH  27  28
ENDBRANCH  21  22
ENDBRANCH  20  21
ENDBRANCH   1  20
TORSDOF 5
ENDMDL
MODEL 8
REMARK VINA RESULT:     -10.9      5.482      9.291
REMARK  Name = 176407
REMARK  5 active torsions:
REMARK  status: ('A' for Active; 'I' for Inactive)
REMARK    1  A    between atoms: N_1  and  C_20
REMARK    2  A    between atoms: C_11  and  C_16
REMARK    3  A    between atoms: C_20  and  C_21
REMARK    4  A    between atoms: C_21  and  C_22
REMARK    5  A    between atoms: C_27  and  O_28
REMARK                            x       y       z     vdW  Elec       q    Type
REMARK                         _______ _______ _______ _____ _____    ______ ____
ROOT
ATOM      1  N   UNL     1      34.078 -20.222 -19.865  0.00  0.00    -0.258 N 
ATOM      2  N   UNL     1      33.833 -22.290 -16.455  0.00  0.00    -0.059 N 
ATOM      3  N   UNL     1      35.160 -21.255 -18.091  0.00  0.00    -0.245 NA
ATOM      4  N   UNL     1      32.771 -21.273 -18.201  0.00  0.00    -0.294 NA
ATOM      5  N   UNL     1      33.907 -22.980 -15.307  0.00  0.00    -0.090 NA
ATOM      6  N   UNL     1      35.979 -22.424 -16.107  0.00  0.00    -0.267 NA
ATOM      7  N   UNL     1      31.477 -22.334 -16.520  0.00  0.00    -0.318 N 
ATOM      8  C   UNL     1      34.033 -20.934 -18.688  0.00  0.00    +0.213 C 
ATOM      9  C   UNL     1      35.067 -21.956 -16.935  0.00  0.00    +0.251 C 
ATOM     10  C   UNL     1      32.657 -21.946 -17.094  0.00  0.00    +0.282 C 
ATOM     11  C   UNL     1      35.230 -23.035 -15.139  0.00  0.00    +0.153 C 
ATOM     12  H   UNL     1      33.232 -19.984 -20.309  0.00  0.00    +0.160 HD
ATOM     13  H   UNL     1      31.483 -22.843 -15.677  0.00  0.00    +0.146 HD
ATOM     14  H   UNL     1      30.622 -22.105 -16.950  0.00  0.00    +0.146 HD
ENDROOT
BRANCH  11  16
ATOM     15  O   UNL     1      35.544 -23.437 -12.686  0.00  0.00    -0.439 OA
ATOM     16  C   UNL     1      35.844 -23.711 -13.982  0.00  0.00    +0.221 C 
ATOM     17  C   UNL     1      36.798 -24.701 -14.058  0.00  0.00    +0.052 C 
ATOM     18  C   UNL     1      37.102 -25.057 -12.722  0.00  0.00    +0.045 C 
ATOM     19  C   UNL     1      36.313 -24.260 -11.926  0.00  0.00    +0.181 C 
ENDBRANCH  11  16
BRANCH   1  20
ATOM     20  C   UNL     1      35.311 -19.818 -20.460  0.00  0.00    +0.103 C 
BRANCH  20  21
ATOM     21  C   UNL     1      35.454 -18.297 -20.441  0.00  0.00    +0.048 C 
BRANCH  21  22
ATOM     22  C   UNL     1      35.187 -17.660 -21.782  0.00  0.00    -0.020 C 
ATOM     23  C   UNL     1      34.682 -18.435 -22.814  0.00  0.00    -0.001 C 
ATOM     24  C   UNL     1      35.452 -16.311 -21.958  0.00  0.00    -0.001 C 
ATOM     25  C   UNL     1      34.436 -17.846 -24.054  0.00  0.00    +0.036 C 
ATOM     26  C   UNL     1      35.206 -15.722 -23.198  0.00  0.00    +0.036 C 
ATOM     27  C   UNL     1      34.697 -16.489 -24.246  0.00  0.00    +0.134 C 
BRANCH  27  28
ATOM     28  O   UNL     1      34.456 -15.915 -25.457  0.00  0.00    -0.506 OA
ATOM     29  H   UNL     1      34.798 -15.065 -25.648  0.00  0.00    +0.292 HD
ENDBRANCH  27  28
ENDBRANCH  21  22
ENDBRANCH  20  21
ENDBRANCH   1  20
TORSDOF 5
ENDMDL
MODEL 9
REMARK VINA RESULT:     -10.7      9.361     10.939
REMARK  Name = 176407
REMARK  5 active torsions:
REMARK  status: ('A' for Active; 'I' for Inactive)
REMARK    1  A    between atoms: N_1  and  C_20
REMARK    2  A    between atoms: C_11  and  C_16
REMARK    3  A    between atoms: C_20  and  C_21
REMARK    4  A    between atoms: C_21  and  C_22
REMARK    5  A    between atoms: C_27  and  O_28
REMARK                            x       y       z     vdW  Elec       q    Type
REMARK                         _______ _______ _______ _____ _____    ______ ____
ROOT
ATOM      1  N   UNL     1      35.678 -16.721 -22.856  0.00  0.00    -0.258 N 
ATOM      2  N   UNL     1      33.727 -13.261 -22.428  0.00  0.00    -0.059 N 
ATOM      3  N   UNL     1      34.650 -15.185 -21.452  0.00  0.00    -0.245 NA
ATOM      4  N   UNL     1      34.739 -14.773 -23.806  0.00  0.00    -0.294 NA
ATOM      5  N   UNL     1      33.070 -12.130 -22.132  0.00  0.00    -0.090 NA
ATOM      6  N   UNL     1      33.505 -13.381 -20.265  0.00  0.00    -0.267 NA
ATOM      7  N   UNL     1      33.789 -12.811 -24.742  0.00  0.00    -0.318 N 
ATOM      8  C   UNL     1      35.005 -15.536 -22.669  0.00  0.00    +0.213 C 
ATOM      9  C   UNL     1      33.990 -14.010 -21.317  0.00  0.00    +0.251 C 
ATOM     10  C   UNL     1      34.105 -13.642 -23.701  0.00  0.00    +0.282 C 
ATOM     11  C   UNL     1      32.958 -12.251 -20.807  0.00  0.00    +0.153 C 
ATOM     12  H   UNL     1      35.941 -16.980 -23.768  0.00  0.00    +0.160 HD
ATOM     13  H   UNL     1      33.306 -11.970 -24.571  0.00  0.00    +0.146 HD
ATOM     14  H   UNL     1      34.044 -13.054 -25.661  0.00  0.00    +0.146 HD
ENDROOT
BRANCH  11  16
ATOM     15  O   UNL     1      32.206  -9.914 -20.308  0.00  0.00    -0.439 OA
ATOM     16  C   UNL     1      32.290 -11.229 -19.981  0.00  0.00    +0.221 C 
ATOM     17  C   UNL     1      31.669 -11.467 -18.776  0.00  0.00    +0.052 C 
ATOM     18  C   UNL     1      31.171 -10.217 -18.337  0.00  0.00    +0.045 C 
ATOM     19  C   UNL     1      31.524  -9.305 -19.303  0.00  0.00    +0.181 C 
ENDBRANCH  11  16
BRANCH   1  20
ATOM     20  C   UNL     1      36.007 -17.585 -21.768  0.00  0.00    +0.103 C 
BRANCH  20  21
ATOM     21  C   UNL     1      35.001 -18.730 -21.656  0.00  0.00    +0.048 C 
BRANCH  21  22
ATOM     22  C   UNL     1      35.202 -19.577 -20.424  0.00  0.00    -0.020 C 
ATOM     23  C   UNL     1      36.485 -19.770 -19.934  0.00  0.00    -0.001 C 
ATOM     24  C   UNL     1      34.102 -20.147 -19.804  0.00  0.00    -0.001 C 
ATOM     25  C   UNL     1      36.671 -20.554 -18.796  0.00  0.00    +0.036 C 
ATOM     26  C   UNL     1      34.288 -20.931 -18.666  0.00  0.00    +0.036 C 
ATOM     27  C   UNL     1      35.572 -21.135 -18.162  0.00  0.00    +0.134 C 
BRANCH  27  28
ATOM     28  O   UNL     1      35.755 -21.899 -17.050  0.00  0.00    -0.506 OA
ATOM     29  H   UNL     1      36.192 -21.542 -16.303  0.00  0.00    +0.292 HD
ENDBRANCH  27  28
ENDBRANCH  21  22
ENDBRANCH  20  21
ENDBRANCH   1  20
TORSDOF 5
ENDMDL
