MODEL 1
REMARK VINA RESULT:     -11.8      0.000      0.000
REMARK  Name = 9804992
REMARK  10 active torsions:
REMARK  status: ('A' for Active; 'I' for Inactive)
REMARK    1  A    between atoms: C_1  and  C_9
REMARK    2  A    between atoms: C_1  and  O_19
REMARK    3  A    between atoms: C_2  and  C_12
REMARK    4  A    between atoms: C_12  and  N_13
REMARK    5  A    between atoms: N_13  and  C_15
REMARK    6  A    between atoms: N_13  and  C_17
REMARK    7  A    between atoms: O_19  and  C_22
REMARK    8  A    between atoms: N_21  and  C_24
REMARK    9  A    between atoms: C_27  and  C_32
REMARK   10  A    between atoms: N_31  and  O_34
REMARK                            x       y       z     vdW  Elec       q    Type
REMARK                         _______ _______ _______ _____ _____    ______ ____
ROOT
ATOM      1  C   UNL     1      35.687 -19.986 -20.000  0.00  0.00    +0.237 C 
ENDROOT
BRANCH   1   9
ATOM      2  C   UNL     1      36.333 -22.960 -14.236  0.00  0.00    -0.043 C 
ATOM      3  C   UNL     1      35.342 -22.175 -16.314  0.00  0.00    -0.000 C 
ATOM      4  C   UNL     1      36.559 -21.531 -16.643  0.00  0.00    -0.000 C 
ATOM      5  C   UNL     1      35.246 -22.886 -15.107  0.00  0.00    -0.006 C 
ATOM      6  C   UNL     1      37.530 -22.328 -14.561  0.00  0.00    -0.006 C 
ATOM      7  C   UNL     1      37.643 -21.618 -15.755  0.00  0.00    -0.000 C 
ATOM      8  C   UNL     1      36.655 -20.821 -17.851  0.00  0.00    -0.001 C 
ATOM      9  C   UNL     1      35.567 -20.745 -18.722  0.00  0.00    +0.021 C 
ATOM     10  C   UNL     1      34.257 -22.089 -17.202  0.00  0.00    -0.000 C 
ATOM     11  C   UNL     1      34.371 -21.379 -18.398  0.00  0.00    -0.001 C 
BRANCH   2  12
ATOM     12  C   UNL     1      36.213 -23.719 -12.957  0.00  0.00    -0.050 C 
BRANCH  12  13
ATOM     13  N   UNL     1      37.455 -23.707 -12.184  0.00  0.00    +0.390 N 
ATOM     14  H   UNL     1      38.139 -23.133 -12.676  0.00  0.00    -0.079 HD
BRANCH  13  15
ATOM     15  C   UNL     1      37.227 -23.121 -10.863  0.00  0.00    -0.077 C 
ATOM     16  C   UNL     1      35.958 -23.668 -10.232  0.00  0.00    -0.025 C 
ENDBRANCH  13  15
BRANCH  13  17
ATOM     17  C   UNL     1      37.991 -25.061 -12.058  0.00  0.00    -0.077 C 
ATOM     18  C   UNL     1      39.159 -25.279 -13.004  0.00  0.00    -0.025 C 
ENDBRANCH  13  17
ENDBRANCH  12  13
ENDBRANCH   2  12
ENDBRANCH   1   9
BRANCH   1  19
ATOM     19  O   UNL     1      36.670 -18.969 -19.854  0.00  0.00    -0.429 OA
BRANCH  19  22
ATOM     20  O   UNL     1      37.238 -17.779 -21.723  0.00  0.00    -0.226 OA
ATOM     21  N   UNL     1      35.618 -17.019 -20.213  0.00  0.00    -0.250 N 
ATOM     22  C   UNL     1      36.568 -17.893 -20.703  0.00  0.00    +0.406 C 
ATOM     23  H   UNL     1      35.179 -17.285 -19.372  0.00  0.00    +0.158 HD
BRANCH  21  24
ATOM     24  C   UNL     1      35.196 -15.790 -20.770  0.00  0.00    +0.053 C 
ATOM     25  C   UNL     1      34.715 -14.778 -19.939  0.00  0.00    +0.015 C 
ATOM     26  C   UNL     1      35.259 -15.590 -22.148  0.00  0.00    +0.015 C 
ATOM     27  C   UNL     1      34.361 -13.365 -21.867  0.00  0.00    +0.055 C 
ATOM     28  C   UNL     1      34.298 -13.565 -20.487  0.00  0.00    +0.006 C 
ATOM     29  C   UNL     1      34.841 -14.378 -22.697  0.00  0.00    +0.006 C 
BRANCH  27  32
ATOM     30  O   UNL     1      32.977 -11.469 -21.937  0.00  0.00    -0.268 OA
ATOM     31  N   UNL     1      34.601 -11.648 -23.562  0.00  0.00    -0.193 N 
ATOM     32  C   UNL     1      33.925 -12.101 -22.439  0.00  0.00    +0.268 C 
ATOM     33  H   UNL     1      35.350 -12.155 -23.953  0.00  0.00    +0.183 HD
BRANCH  31  34
ATOM     34  O   UNL     1      34.168 -10.435 -24.116  0.00  0.00    -0.295 OA
ATOM     35  H   UNL     1      34.931  -9.942 -24.455  0.00  0.00    +0.241 HD
ENDBRANCH  31  34
ENDBRANCH  27  32
ENDBRANCH  21  24
ENDBRANCH  19  22
ENDBRANCH   1  19
TORSDOF 10
ENDMDL
MODEL 2
REMARK VINA RESULT:     -11.7      1.019      1.191
REMARK  Name = 9804992
REMARK  10 active torsions:
REMARK  status: ('A' for Active; 'I' for Inactive)
REMARK    1  A    between atoms: C_1  and  C_9
REMARK    2  A    between atoms: C_1  and  O_19
REMARK    3  A    between atoms: C_2  and  C_12
REMARK    4  A    between atoms: C_12  and  N_13
REMARK    5  A    between atoms: N_13  and  C_15
REMARK    6  A    between atoms: N_13  and  C_17
REMARK    7  A    between atoms: O_19  and  C_22
REMARK    8  A    between atoms: N_21  and  C_24
REMARK    9  A    between atoms: C_27  and  C_32
REMARK   10  A    between atoms: N_31  and  O_34
REMARK                            x       y       z     vdW  Elec       q    Type
REMARK                         _______ _______ _______ _____ _____    ______ ____
ROOT
ATOM      1  C   UNL     1      35.487 -19.774 -19.970  0.00  0.00    +0.237 C 
ENDROOT
BRANCH   1   9
ATOM      2  C   UNL     1      36.664 -23.069 -14.471  0.00  0.00    -0.043 C 
ATOM      3  C   UNL     1      35.493 -22.195 -16.415  0.00  0.00    -0.000 C 
ATOM      4  C   UNL     1      36.661 -21.489 -16.793  0.00  0.00    -0.000 C 
ATOM      5  C   UNL     1      35.512 -22.981 -15.252  0.00  0.00    -0.006 C 
ATOM      6  C   UNL     1      37.812 -22.376 -14.843  0.00  0.00    -0.006 C 
ATOM      7  C   UNL     1      37.812 -21.591 -15.995  0.00  0.00    -0.000 C 
ATOM      8  C   UNL     1      36.642 -20.704 -17.956  0.00  0.00    -0.001 C 
ATOM      9  C   UNL     1      35.489 -20.614 -18.737  0.00  0.00    +0.021 C 
ATOM     10  C   UNL     1      34.342 -22.094 -17.213  0.00  0.00    -0.000 C 
ATOM     11  C   UNL     1      34.341 -21.308 -18.367  0.00  0.00    -0.001 C 
BRANCH   2  12
ATOM     12  C   UNL     1      36.666 -23.909 -13.238  0.00  0.00    -0.050 C 
BRANCH  12  13
ATOM     13  N   UNL     1      37.996 -24.013 -12.637  0.00  0.00    +0.390 N 
ATOM     14  H   UNL     1      38.600 -23.308 -13.060  0.00  0.00    -0.079 HD
BRANCH  13  15
ATOM     15  C   UNL     1      37.927 -23.758 -11.198  0.00  0.00    -0.077 C 
ATOM     16  C   UNL     1      37.257 -22.426 -10.909  0.00  0.00    -0.025 C 
ENDBRANCH  13  15
BRANCH  13  17
ATOM     17  C   UNL     1      38.571 -25.331 -12.896  0.00  0.00    -0.077 C 
ATOM     18  C   UNL     1      39.982 -25.216 -13.450  0.00  0.00    -0.025 C 
ENDBRANCH  13  17
ENDBRANCH  12  13
ENDBRANCH   2  12
ENDBRANCH   1   9
BRANCH   1  19
ATOM     19  O   UNL     1      36.552 -18.835 -19.903  0.00  0.00    -0.429 OA
BRANCH  19  22
ATOM     20  O   UNL     1      37.543 -17.810 -21.691  0.00  0.00    -0.226 OA
ATOM     21  N   UNL     1      35.464 -17.122 -20.863  0.00  0.00    -0.250 N 
ATOM     22  C   UNL     1      36.606 -17.898 -20.906  0.00  0.00    +0.406 C 
ATOM     23  H   UNL     1      34.817 -17.346 -20.155  0.00  0.00    +0.158 HD
BRANCH  21  24
ATOM     24  C   UNL     1      35.109 -16.047 -21.709  0.00  0.00    +0.053 C 
ATOM     25  C   UNL     1      34.898 -14.777 -21.171  0.00  0.00    +0.015 C 
ATOM     26  C   UNL     1      34.968 -16.256 -23.081  0.00  0.00    +0.015 C 
ATOM     27  C   UNL     1      34.406 -13.926 -23.378  0.00  0.00    +0.055 C 
ATOM     28  C   UNL     1      34.547 -13.716 -22.006  0.00  0.00    +0.006 C 
ATOM     29  C   UNL     1      34.616 -15.195 -23.915  0.00  0.00    +0.006 C 
BRANCH  27  32
ATOM     30  O   UNL     1      34.017 -11.651 -23.817  0.00  0.00    -0.268 OA
ATOM     31  N   UNL     1      33.706 -13.128 -25.559  0.00  0.00    -0.193 N 
ATOM     32  C   UNL     1      34.039 -12.819 -24.247  0.00  0.00    +0.268 C 
ATOM     33  H   UNL     1      33.726 -14.055 -25.891  0.00  0.00    +0.183 HD
BRANCH  31  34
ATOM     34  O   UNL     1      33.341 -12.058 -26.388  0.00  0.00    -0.295 OA
ATOM     35  H   UNL     1      33.787 -12.145 -27.245  0.00  0.00    +0.241 HD
ENDBRANCH  31  34
ENDBRANCH  27  32
ENDBRANCH  21  24
ENDBRANCH  19  22
ENDBRANCH   1  19
TORSDOF 10
ENDMDL
MODEL 3
REMARK VINA RESULT:     -11.5      0.884      1.618
REMARK  Name = 9804992
REMARK  10 active torsions:
REMARK  status: ('A' for Active; 'I' for Inactive)
REMARK    1  A    between atoms: C_1  and  C_9
REMARK    2  A    between atoms: C_1  and  O_19
REMARK    3  A    between atoms: C_2  and  C_12
REMARK    4  A    between atoms: C_12  and  N_13
REMARK    5  A    between atoms: N_13  and  C_15
REMARK    6  A    between atoms: N_13  and  C_17
REMARK    7  A    between atoms: O_19  and  C_22
REMARK    8  A    between atoms: N_21  and  C_24
REMARK    9  A    between atoms: C_27  and  C_32
REMARK   10  A    between atoms: N_31  and  O_34
REMARK                            x       y       z     vdW  Elec       q    Type
REMARK                         _______ _______ _______ _____ _____    ______ ____
ROOT
ATOM      1  C   UNL     1      35.387 -20.557 -19.711  0.00  0.00    +0.237 C 
ENDROOT
BRANCH   1   9
ATOM      2  C   UNL     1      35.192 -23.244 -13.776  0.00  0.00    -0.043 C 
ATOM      3  C   UNL     1      36.023 -22.063 -15.733  0.00  0.00    -0.000 C 
ATOM      4  C   UNL     1      34.777 -22.260 -16.373  0.00  0.00    -0.000 C 
ATOM      5  C   UNL     1      36.214 -22.561 -14.434  0.00  0.00    -0.006 C 
ATOM      6  C   UNL     1      33.966 -23.437 -14.405  0.00  0.00    -0.006 C 
ATOM      7  C   UNL     1      33.758 -22.950 -15.695  0.00  0.00    -0.000 C 
ATOM      8  C   UNL     1      34.585 -21.762 -17.672  0.00  0.00    -0.001 C 
ATOM      9  C   UNL     1      35.609 -21.079 -18.331  0.00  0.00    +0.021 C 
ATOM     10  C   UNL     1      37.042 -21.373 -16.411  0.00  0.00    -0.000 C 
ATOM     11  C   UNL     1      36.834 -20.884 -17.701  0.00  0.00    -0.001 C 
BRANCH   2  12
ATOM     12  C   UNL     1      35.412 -23.767 -12.396  0.00  0.00    -0.050 C 
BRANCH  12  13
ATOM     13  N   UNL     1      36.831 -23.955 -12.092  0.00  0.00    +0.390 N 
ATOM     14  H   UNL     1      37.383 -23.518 -12.830  0.00  0.00    -0.079 HD
BRANCH  13  15
ATOM     15  C   UNL     1      37.170 -23.313 -10.823  0.00  0.00    -0.077 C 
ATOM     16  C   UNL     1      37.923 -22.013 -11.048  0.00  0.00    -0.025 C 
ENDBRANCH  13  15
BRANCH  13  17
ATOM     17  C   UNL     1      37.159 -25.378 -12.050  0.00  0.00    -0.077 C 
ATOM     18  C   UNL     1      38.354 -25.693 -12.934  0.00  0.00    -0.025 C 
ENDBRANCH  13  17
ENDBRANCH  12  13
ENDBRANCH   2  12
ENDBRANCH   1   9
BRANCH   1  19
ATOM     19  O   UNL     1      35.986 -19.273 -19.832  0.00  0.00    -0.429 OA
BRANCH  19  22
ATOM     20  O   UNL     1      34.547 -18.681 -21.508  0.00  0.00    -0.226 OA
ATOM     21  N   UNL     1      35.673 -17.084 -20.218  0.00  0.00    -0.250 N 
ATOM     22  C   UNL     1      35.321 -18.360 -20.614  0.00  0.00    +0.406 C 
ATOM     23  H   UNL     1      36.315 -17.025 -19.473  0.00  0.00    +0.158 HD
BRANCH  21  24
ATOM     24  C   UNL     1      35.227 -15.853 -20.749  0.00  0.00    +0.053 C 
ATOM     25  C   UNL     1      34.629 -14.909 -19.913  0.00  0.00    +0.015 C 
ATOM     26  C   UNL     1      35.382 -15.582 -22.109  0.00  0.00    +0.015 C 
ATOM     27  C   UNL     1      34.342 -13.424 -21.798  0.00  0.00    +0.055 C 
ATOM     28  C   UNL     1      34.186 -13.695 -20.438  0.00  0.00    +0.006 C 
ATOM     29  C   UNL     1      34.940 -14.367 -22.633  0.00  0.00    +0.006 C 
BRANCH  27  32
ATOM     30  O   UNL     1      32.900 -11.571 -21.850  0.00  0.00    -0.268 OA
ATOM     31  N   UNL     1      34.571 -11.649 -23.434  0.00  0.00    -0.193 N 
ATOM     32  C   UNL     1      33.881 -12.158 -22.344  0.00  0.00    +0.268 C 
ATOM     33  H   UNL     1      35.347 -12.120 -23.818  0.00  0.00    +0.183 HD
BRANCH  31  34
ATOM     34  O   UNL     1      34.114 -10.434 -23.964  0.00  0.00    -0.295 OA
ATOM     35  H   UNL     1      34.828 -10.009 -24.463  0.00  0.00    +0.241 HD
ENDBRANCH  31  34
ENDBRANCH  27  32
ENDBRANCH  21  24
ENDBRANCH  19  22
ENDBRANCH   1  19
TORSDOF 10
ENDMDL
MODEL 4
REMARK VINA RESULT:     -11.1      3.025     12.125
REMARK  Name = 9804992
REMARK  10 active torsions:
REMARK  status: ('A' for Active; 'I' for Inactive)
REMARK    1  A    between atoms: C_1  and  C_9
REMARK    2  A    between atoms: C_1  and  O_19
REMARK    3  A    between atoms: C_2  and  C_12
REMARK    4  A    between atoms: C_12  and  N_13
REMARK    5  A    between atoms: N_13  and  C_15
REMARK    6  A    between atoms: N_13  and  C_17
REMARK    7  A    between atoms: O_19  and  C_22
REMARK    8  A    between atoms: N_21  and  C_24
REMARK    9  A    between atoms: C_27  and  C_32
REMARK   10  A    between atoms: N_31  and  O_34
REMARK                            x       y       z     vdW  Elec       q    Type
REMARK                         _______ _______ _______ _____ _____    ______ ____
ROOT
ATOM      1  C   UNL     1      36.211 -19.429 -19.991  0.00  0.00    +0.237 C 
ENDROOT
BRANCH   1   9
ATOM      2  C   UNL     1      34.468 -13.699 -22.561  0.00  0.00    -0.043 C 
ATOM      3  C   UNL     1      35.087 -16.045 -22.396  0.00  0.00    -0.000 C 
ATOM      4  C   UNL     1      35.202 -15.909 -20.992  0.00  0.00    -0.000 C 
ATOM      5  C   UNL     1      34.719 -14.930 -23.166  0.00  0.00    -0.006 C 
ATOM      6  C   UNL     1      34.580 -13.565 -21.181  0.00  0.00    -0.006 C 
ATOM      7  C   UNL     1      34.945 -14.661 -20.400  0.00  0.00    -0.000 C 
ATOM      8  C   UNL     1      35.569 -17.023 -20.221  0.00  0.00    -0.001 C 
ATOM      9  C   UNL     1      35.821 -18.256 -20.826  0.00  0.00    +0.021 C 
ATOM     10  C   UNL     1      35.344 -17.293 -22.988  0.00  0.00    -0.000 C 
ATOM     11  C   UNL     1      35.708 -18.390 -22.206  0.00  0.00    -0.001 C 
BRANCH   2  12
ATOM     12  C   UNL     1      34.079 -12.525 -23.396  0.00  0.00    -0.050 C 
BRANCH  12  13
ATOM     13  N   UNL     1      34.007 -11.287 -22.617  0.00  0.00    +0.390 N 
ATOM     14  H   UNL     1      34.726 -11.317 -21.894  0.00  0.00    -0.079 HD
BRANCH  13  15
ATOM     15  C   UNL     1      34.262 -10.131 -23.475  0.00  0.00    -0.077 C 
ATOM     16  C   UNL     1      34.304 -10.532 -24.939  0.00  0.00    -0.025 C 
ENDBRANCH  13  15
BRANCH  13  17
ATOM     17  C   UNL     1      32.703 -11.167 -21.969  0.00  0.00    -0.077 C 
ATOM     18  C   UNL     1      32.265  -9.715 -21.881  0.00  0.00    -0.025 C 
ENDBRANCH  13  17
ENDBRANCH  12  13
ENDBRANCH   2  12
ENDBRANCH   1   9
BRANCH   1  19
ATOM     19  O   UNL     1      35.045 -20.151 -19.617  0.00  0.00    -0.429 OA
BRANCH  19  22
ATOM     20  O   UNL     1      34.868 -22.362 -19.060  0.00  0.00    -0.226 OA
ATOM     21  N   UNL     1      35.877 -20.801 -17.636  0.00  0.00    -0.250 N 
ATOM     22  C   UNL     1      35.233 -21.226 -18.782  0.00  0.00    +0.406 C 
ATOM     23  H   UNL     1      36.093 -19.841 -17.594  0.00  0.00    +0.158 HD
BRANCH  21  24
ATOM     24  C   UNL     1      36.264 -21.573 -16.518  0.00  0.00    +0.053 C 
ATOM     25  C   UNL     1      35.303 -22.274 -15.789  0.00  0.00    +0.015 C 
ATOM     26  C   UNL     1      37.606 -21.634 -16.143  0.00  0.00    +0.015 C 
ATOM     27  C   UNL     1      37.028 -23.096 -14.309  0.00  0.00    +0.055 C 
ATOM     28  C   UNL     1      35.685 -23.036 -14.684  0.00  0.00    +0.006 C 
ATOM     29  C   UNL     1      37.988 -22.395 -15.039  0.00  0.00    +0.006 C 
BRANCH  27  32
ATOM     30  O   UNL     1      38.558 -23.761 -12.655  0.00  0.00    -0.268 OA
ATOM     31  N   UNL     1      36.498 -24.793 -12.660  0.00  0.00    -0.193 N 
ATOM     32  C   UNL     1      37.426 -23.890 -13.157  0.00  0.00    +0.268 C 
ATOM     33  H   UNL     1      35.603 -24.888 -13.063  0.00  0.00    +0.183 HD
BRANCH  31  34
ATOM     34  O   UNL     1      36.891 -25.565 -11.558  0.00  0.00    -0.295 OA
ATOM     35  H   UNL     1      37.578 -26.193 -11.830  0.00  0.00    +0.241 HD
ENDBRANCH  31  34
ENDBRANCH  27  32
ENDBRANCH  21  24
ENDBRANCH  19  22
ENDBRANCH   1  19
TORSDOF 10
ENDMDL
MODEL 5
REMARK VINA RESULT:     -11.0      5.112      9.897
REMARK  Name = 9804992
REMARK  10 active torsions:
REMARK  status: ('A' for Active; 'I' for Inactive)
REMARK    1  A    between atoms: C_1  and  C_9
REMARK    2  A    between atoms: C_1  and  O_19
REMARK    3  A    between atoms: C_2  and  C_12
REMARK    4  A    between atoms: C_12  and  N_13
REMARK    5  A    between atoms: N_13  and  C_15
REMARK    6  A    between atoms: N_13  and  C_17
REMARK    7  A    between atoms: O_19  and  C_22
REMARK    8  A    between atoms: N_21  and  C_24
REMARK    9  A    between atoms: C_27  and  C_32
REMARK   10  A    between atoms: N_31  and  O_34
REMARK                            x       y       z     vdW  Elec       q    Type
REMARK                         _______ _______ _______ _____ _____    ______ ____
ROOT
ATOM      1  C   UNL     1      35.825 -23.311 -13.179  0.00  0.00    +0.237 C 
ENDROOT
BRANCH   1   9
ATOM      2  C   UNL     1      35.914 -20.482 -19.051  0.00  0.00    -0.043 C 
ATOM      3  C   UNL     1      36.655 -21.266 -16.871  0.00  0.00    -0.000 C 
ATOM      4  C   UNL     1      35.373 -21.818 -16.641  0.00  0.00    -0.000 C 
ATOM      5  C   UNL     1      36.910 -20.601 -18.081  0.00  0.00    -0.006 C 
ATOM      6  C   UNL     1      34.653 -21.026 -18.825  0.00  0.00    -0.006 C 
ATOM      7  C   UNL     1      34.383 -21.690 -17.629  0.00  0.00    -0.000 C 
ATOM      8  C   UNL     1      35.118 -22.483 -15.431  0.00  0.00    -0.001 C 
ATOM      9  C   UNL     1      36.114 -22.602 -14.459  0.00  0.00    +0.021 C 
ATOM     10  C   UNL     1      37.645 -21.394 -15.883  0.00  0.00    -0.000 C 
ATOM     11  C   UNL     1      37.375 -22.059 -14.686  0.00  0.00    -0.001 C 
BRANCH   2  12
ATOM     12  C   UNL     1      36.202 -19.772 -20.331  0.00  0.00    -0.050 C 
BRANCH  12  13
ATOM     13  N   UNL     1      35.270 -18.672 -20.579  0.00  0.00    +0.390 N 
ATOM     14  H   UNL     1      34.704 -18.531 -19.743  0.00  0.00    -0.079 HD
BRANCH  13  15
ATOM     15  C   UNL     1      36.002 -17.436 -20.855  0.00  0.00    -0.077 C 
ATOM     16  C   UNL     1      35.324 -16.240 -20.210  0.00  0.00    -0.025 C 
ENDBRANCH  13  15
BRANCH  13  17
ATOM     17  C   UNL     1      34.380 -18.999 -21.691  0.00  0.00    -0.077 C 
ATOM     18  C   UNL     1      34.970 -18.551 -23.018  0.00  0.00    -0.025 C 
ENDBRANCH  13  17
ENDBRANCH  12  13
ENDBRANCH   2  12
ENDBRANCH   1   9
BRANCH   1  19
ATOM     19  O   UNL     1      34.727 -24.195 -13.366  0.00  0.00    -0.429 OA
BRANCH  19  22
ATOM     20  O   UNL     1      33.053 -22.969 -12.405  0.00  0.00    -0.226 OA
ATOM     21  N   UNL     1      32.827 -23.926 -14.530  0.00  0.00    -0.250 N 
ATOM     22  C   UNL     1      33.476 -23.628 -13.348  0.00  0.00    +0.406 C 
ATOM     23  H   UNL     1      33.333 -24.473 -15.174  0.00  0.00    +0.158 HD
BRANCH  21  24
ATOM     24  C   UNL     1      31.526 -23.544 -14.929  0.00  0.00    +0.053 C 
ATOM     25  C   UNL     1      31.345 -22.410 -15.722  0.00  0.00    +0.015 C 
ATOM     26  C   UNL     1      30.423 -24.300 -14.531  0.00  0.00    +0.015 C 
ATOM     27  C   UNL     1      28.958 -22.788 -15.716  0.00  0.00    +0.055 C 
ATOM     28  C   UNL     1      30.061 -22.032 -16.115  0.00  0.00    +0.006 C 
ATOM     29  C   UNL     1      29.140 -23.922 -14.924  0.00  0.00    +0.006 C 
BRANCH  27  32
ATOM     30  O   UNL     1      27.198 -22.663 -17.266  0.00  0.00    -0.268 OA
ATOM     31  N   UNL     1      26.853 -21.700 -15.202  0.00  0.00    -0.193 N 
ATOM     32  C   UNL     1      27.621 -22.393 -16.127  0.00  0.00    +0.268 C 
ATOM     33  H   UNL     1      27.195 -21.491 -14.301  0.00  0.00    +0.183 HD
BRANCH  31  34
ATOM     34  O   UNL     1      25.569 -21.311 -15.608  0.00  0.00    -0.295 OA
ATOM     35  H   UNL     1      25.034 -22.099 -15.789  0.00  0.00    +0.241 HD
ENDBRANCH  31  34
ENDBRANCH  27  32
ENDBRANCH  21  24
ENDBRANCH  19  22
ENDBRANCH   1  19
TORSDOF 10
ENDMDL
MODEL 6
REMARK VINA RESULT:     -11.0      2.608      4.147
REMARK  Name = 9804992
REMARK  10 active torsions:
REMARK  status: ('A' for Active; 'I' for Inactive)
REMARK    1  A    between atoms: C_1  and  C_9
REMARK    2  A    between atoms: C_1  and  O_19
REMARK    3  A    between atoms: C_2  and  C_12
REMARK    4  A    between atoms: C_12  and  N_13
REMARK    5  A    between atoms: N_13  and  C_15
REMARK    6  A    between atoms: N_13  and  C_17
REMARK    7  A    between atoms: O_19  and  C_22
REMARK    8  A    between atoms: N_21  and  C_24
REMARK    9  A    between atoms: C_27  and  C_32
REMARK   10  A    between atoms: N_31  and  O_34
REMARK                            x       y       z     vdW  Elec       q    Type
REMARK                         _______ _______ _______ _____ _____    ______ ____
ROOT
ATOM      1  C   UNL     1      36.504 -17.133 -21.789  0.00  0.00    +0.237 C 
ENDROOT
BRANCH   1   9
ATOM      2  C   UNL     1      33.902 -21.810 -18.069  0.00  0.00    -0.043 C 
ATOM      3  C   UNL     1      35.559 -20.394 -19.149  0.00  0.00    -0.000 C 
ATOM      4  C   UNL     1      34.520 -19.680 -19.792  0.00  0.00    -0.000 C 
ATOM      5  C   UNL     1      35.233 -21.456 -18.290  0.00  0.00    -0.006 C 
ATOM      6  C   UNL     1      32.881 -21.108 -18.701  0.00  0.00    -0.006 C 
ATOM      7  C   UNL     1      33.185 -20.050 -19.557  0.00  0.00    -0.000 C 
ATOM      8  C   UNL     1      34.845 -18.618 -20.651  0.00  0.00    -0.001 C 
ATOM      9  C   UNL     1      36.177 -18.264 -20.873  0.00  0.00    +0.021 C 
ATOM     10  C   UNL     1      36.893 -20.024 -19.384  0.00  0.00    -0.000 C 
ATOM     11  C   UNL     1      37.199 -18.965 -20.240  0.00  0.00    -0.001 C 
BRANCH   2  12
ATOM     12  C   UNL     1      33.574 -22.941 -17.153  0.00  0.00    -0.050 C 
BRANCH  12  13
ATOM     13  N   UNL     1      33.421 -22.508 -15.764  0.00  0.00    +0.390 N 
ATOM     14  H   UNL     1      33.570 -21.500 -15.720  0.00  0.00    -0.079 HD
BRANCH  13  15
ATOM     15  C   UNL     1      32.069 -22.795 -15.288  0.00  0.00    -0.077 C 
ATOM     16  C   UNL     1      31.877 -22.318 -13.858  0.00  0.00    -0.025 C 
ENDBRANCH  13  15
BRANCH  13  17
ATOM     17  C   UNL     1      34.414 -23.160 -14.913  0.00  0.00    -0.077 C 
ATOM     18  C   UNL     1      35.591 -22.241 -14.638  0.00  0.00    -0.025 C 
ENDBRANCH  13  17
ENDBRANCH  12  13
ENDBRANCH   2  12
ENDBRANCH   1   9
BRANCH   1  19
ATOM     19  O   UNL     1      35.698 -17.222 -22.956  0.00  0.00    -0.429 OA
BRANCH  19  22
ATOM     20  O   UNL     1      34.302 -16.006 -24.299  0.00  0.00    -0.226 OA
ATOM     21  N   UNL     1      34.970 -15.242 -22.189  0.00  0.00    -0.250 N 
ATOM     22  C   UNL     1      34.922 -16.127 -23.249  0.00  0.00    +0.406 C 
ATOM     23  H   UNL     1      35.527 -15.516 -21.423  0.00  0.00    +0.158 HD
BRANCH  21  24
ATOM     24  C   UNL     1      34.321 -13.993 -22.068  0.00  0.00    +0.053 C 
ATOM     25  C   UNL     1      34.522 -13.006 -23.034  0.00  0.00    +0.015 C 
ATOM     26  C   UNL     1      33.481 -13.746 -20.982  0.00  0.00    +0.015 C 
ATOM     27  C   UNL     1      33.042 -11.526 -21.827  0.00  0.00    +0.055 C 
ATOM     28  C   UNL     1      33.882 -11.773 -22.913  0.00  0.00    +0.006 C 
ATOM     29  C   UNL     1      32.841 -12.512 -20.861  0.00  0.00    +0.006 C 
BRANCH  27  32
ATOM     30  O   UNL     1      31.579 -10.022 -20.770  0.00  0.00    -0.268 OA
ATOM     31  N   UNL     1      32.658  -9.283 -22.666  0.00  0.00    -0.193 N 
ATOM     32  C   UNL     1      32.375 -10.239 -21.702  0.00  0.00    +0.268 C 
ATOM     33  H   UNL     1      33.290  -9.463 -23.401  0.00  0.00    +0.183 HD
BRANCH  31  34
ATOM     34  O   UNL     1      32.003  -8.050 -22.547  0.00  0.00    -0.295 OA
ATOM     35  H   UNL     1      31.660  -7.780 -23.414  0.00  0.00    +0.241 HD
ENDBRANCH  31  34
ENDBRANCH  27  32
ENDBRANCH  21  24
ENDBRANCH  19  22
ENDBRANCH   1  19
TORSDOF 10
ENDMDL
MODEL 7
REMARK VINA RESULT:     -10.9      3.755     12.416
REMARK  Name = 9804992
REMARK  10 active torsions:
REMARK  status: ('A' for Active; 'I' for Inactive)
REMARK    1  A    between atoms: C_1  and  C_9
REMARK    2  A    between atoms: C_1  and  O_19
REMARK    3  A    between atoms: C_2  and  C_12
REMARK    4  A    between atoms: C_12  and  N_13
REMARK    5  A    between atoms: N_13  and  C_15
REMARK    6  A    between atoms: N_13  and  C_17
REMARK    7  A    between atoms: O_19  and  C_22
REMARK    8  A    between atoms: N_21  and  C_24
REMARK    9  A    between atoms: C_27  and  C_32
REMARK   10  A    between atoms: N_31  and  O_34
REMARK                            x       y       z     vdW  Elec       q    Type
REMARK                         _______ _______ _______ _____ _____    ______ ____
ROOT
ATOM      1  C   UNL     1      35.251 -17.668 -23.032  0.00  0.00    +0.237 C 
ENDROOT
BRANCH   1   9
ATOM      2  C   UNL     1      33.842 -11.354 -23.821  0.00  0.00    -0.043 C 
ATOM      3  C   UNL     1      34.122 -13.720 -24.309  0.00  0.00    -0.000 C 
ATOM      4  C   UNL     1      34.579 -13.932 -22.987  0.00  0.00    -0.000 C 
ATOM      5  C   UNL     1      33.758 -12.425 -24.711  0.00  0.00    -0.006 C 
ATOM      6  C   UNL     1      34.291 -11.563 -22.520  0.00  0.00    -0.006 C 
ATOM      7  C   UNL     1      34.657 -12.842 -22.104  0.00  0.00    -0.000 C 
ATOM      8  C   UNL     1      34.943 -15.227 -22.585  0.00  0.00    -0.001 C 
ATOM      9  C   UNL     1      34.859 -16.299 -23.476  0.00  0.00    +0.021 C 
ATOM     10  C   UNL     1      34.044 -14.810 -25.192  0.00  0.00    -0.000 C 
ATOM     11  C   UNL     1      34.410 -16.091 -24.776  0.00  0.00    -0.001 C 
BRANCH   2  12
ATOM     12  C   UNL     1      33.451  -9.984 -24.264  0.00  0.00    -0.050 C 
BRANCH  12  13
ATOM     13  N   UNL     1      33.562  -8.998 -23.189  0.00  0.00    +0.390 N 
ATOM     14  H   UNL     1      34.152  -9.384 -22.453  0.00  0.00    -0.079 HD
BRANCH  13  15
ATOM     15  C   UNL     1      34.185  -7.771 -23.685  0.00  0.00    -0.077 C 
ATOM     16  C   UNL     1      35.664  -7.729 -23.340  0.00  0.00    -0.025 C 
ENDBRANCH  13  15
BRANCH  13  17
ATOM     17  C   UNL     1      32.246  -8.710 -22.623  0.00  0.00    -0.077 C 
ATOM     18  C   UNL     1      31.709  -7.381 -23.127  0.00  0.00    -0.025 C 
ENDBRANCH  13  17
ENDBRANCH  12  13
ENDBRANCH   2  12
ENDBRANCH   1   9
BRANCH   1  19
ATOM     19  O   UNL     1      36.253 -17.571 -22.028  0.00  0.00    -0.429 OA
BRANCH  19  22
ATOM     20  O   UNL     1      35.925 -17.242 -19.788  0.00  0.00    -0.226 OA
ATOM     21  N   UNL     1      35.516 -19.308 -20.811  0.00  0.00    -0.250 N 
ATOM     22  C   UNL     1      35.895 -17.980 -20.766  0.00  0.00    +0.406 C 
ATOM     23  H   UNL     1      35.557 -19.738 -21.697  0.00  0.00    +0.158 HD
BRANCH  21  24
ATOM     24  C   UNL     1      35.076 -20.124 -19.745  0.00  0.00    +0.053 C 
ATOM     25  C   UNL     1      33.711 -20.346 -19.555  0.00  0.00    +0.015 C 
ATOM     26  C   UNL     1      36.005 -20.708 -18.883  0.00  0.00    +0.015 C 
ATOM     27  C   UNL     1      34.206 -21.735 -17.640  0.00  0.00    +0.055 C 
ATOM     28  C   UNL     1      33.276 -21.152 -18.502  0.00  0.00    +0.006 C 
ATOM     29  C   UNL     1      35.570 -21.513 -17.831  0.00  0.00    +0.006 C 
BRANCH  27  32
ATOM     30  O   UNL     1      34.550 -23.306 -15.928  0.00  0.00    -0.268 OA
ATOM     31  N   UNL     1      32.402 -22.528 -16.227  0.00  0.00    -0.193 N 
ATOM     32  C   UNL     1      33.752 -22.574 -16.543  0.00  0.00    +0.268 C 
ATOM     33  H   UNL     1      31.777 -21.946 -16.719  0.00  0.00    +0.183 HD
BRANCH  31  34
ATOM     34  O   UNL     1      31.968 -23.349 -15.177  0.00  0.00    -0.295 OA
ATOM     35  H   UNL     1      31.512 -22.810 -14.511  0.00  0.00    +0.241 HD
ENDBRANCH  31  34
ENDBRANCH  27  32
ENDBRANCH  21  24
ENDBRANCH  19  22
ENDBRANCH   1  19
TORSDOF 10
ENDMDL
MODEL 8
REMARK VINA RESULT:     -10.9      4.232     12.943
REMARK  Name = 9804992
REMARK  10 active torsions:
REMARK  status: ('A' for Active; 'I' for Inactive)
REMARK    1  A    between atoms: C_1  and  C_9
REMARK    2  A    between atoms: C_1  and  O_19
REMARK    3  A    between atoms: C_2  and  C_12
REMARK    4  A    between atoms: C_12  and  N_13
REMARK    5  A    between atoms: N_13  and  C_15
REMARK    6  A    between atoms: N_13  and  C_17
REMARK    7  A    between atoms: O_19  and  C_22
REMARK    8  A    between atoms: N_21  and  C_24
REMARK    9  A    between atoms: C_27  and  C_32
REMARK   10  A    between atoms: N_31  and  O_34
REMARK                            x       y       z     vdW  Elec       q    Type
REMARK                         _______ _______ _______ _____ _____    ______ ____
ROOT
ATOM      1  C   UNL     1      34.572 -14.814 -22.812  0.00  0.00    +0.237 C 
ENDROOT
BRANCH   1   9
ATOM      2  C   UNL     1      32.428  -8.704 -22.070  0.00  0.00    -0.043 C 
ATOM      3  C   UNL     1      32.749 -11.085 -21.688  0.00  0.00    -0.000 C 
ATOM      4  C   UNL     1      33.619 -11.139 -22.803  0.00  0.00    -0.000 C 
ATOM      5  C   UNL     1      32.161  -9.859 -21.335  0.00  0.00    -0.006 C 
ATOM      6  C   UNL     1      33.284  -8.758 -23.165  0.00  0.00    -0.006 C 
ATOM      7  C   UNL     1      33.877  -9.966 -23.531  0.00  0.00    -0.000 C 
ATOM      8  C   UNL     1      34.207 -12.364 -23.156  0.00  0.00    -0.001 C 
ATOM      9  C   UNL     1      33.940 -13.521 -22.422  0.00  0.00    +0.021 C 
ATOM     10  C   UNL     1      32.491 -12.258 -20.960  0.00  0.00    -0.000 C 
ATOM     11  C   UNL     1      33.084 -13.467 -21.326  0.00  0.00    -0.001 C 
BRANCH   2  12
ATOM     12  C   UNL     1      31.795  -7.411 -21.680  0.00  0.00    -0.050 C 
BRANCH  12  13
ATOM     13  N   UNL     1      32.742  -6.497 -21.042  0.00  0.00    +0.390 N 
ATOM     14  H   UNL     1      33.676  -6.694 -21.401  0.00  0.00    -0.079 HD
BRANCH  13  15
ATOM     15  C   UNL     1      32.407  -5.110 -21.362  0.00  0.00    -0.077 C 
ATOM     16  C   UNL     1      32.049  -4.957 -22.830  0.00  0.00    -0.025 C 
ENDBRANCH  13  15
BRANCH  13  17
ATOM     17  C   UNL     1      32.751  -6.700 -19.594  0.00  0.00    -0.077 C 
ATOM     18  C   UNL     1      32.398  -5.420 -18.857  0.00  0.00    -0.025 C 
ENDBRANCH  13  17
ENDBRANCH  12  13
ENDBRANCH   2  12
ENDBRANCH   1   9
BRANCH   1  19
ATOM     19  O   UNL     1      35.676 -15.078 -21.956  0.00  0.00    -0.429 OA
BRANCH  19  22
ATOM     20  O   UNL     1      35.334 -15.564 -19.747  0.00  0.00    -0.226 OA
ATOM     21  N   UNL     1      35.369 -17.228 -21.393  0.00  0.00    -0.250 N 
ATOM     22  C   UNL     1      35.446 -15.937 -20.909  0.00  0.00    +0.406 C 
ATOM     23  H   UNL     1      35.485 -17.332 -22.366  0.00  0.00    +0.158 HD
BRANCH  21  24
ATOM     24  C   UNL     1      35.144 -18.419 -20.665  0.00  0.00    +0.053 C 
ATOM     25  C   UNL     1      36.220 -19.104 -20.099  0.00  0.00    +0.015 C 
ATOM     26  C   UNL     1      33.847 -18.910 -20.514  0.00  0.00    +0.015 C 
ATOM     27  C   UNL     1      34.701 -20.770 -19.231  0.00  0.00    +0.055 C 
ATOM     28  C   UNL     1      35.998 -20.280 -19.382  0.00  0.00    +0.006 C 
ATOM     29  C   UNL     1      33.626 -20.086 -19.797  0.00  0.00    +0.006 C 
BRANCH  27  32
ATOM     30  O   UNL     1      34.098 -23.034 -19.061  0.00  0.00    -0.268 OA
ATOM     31  N   UNL     1      34.672 -21.948 -17.111  0.00  0.00    -0.193 N 
ATOM     32  C   UNL     1      34.470 -21.996 -18.483  0.00  0.00    +0.268 C 
ATOM     33  H   UNL     1      34.967 -21.123 -16.662  0.00  0.00    +0.183 HD
BRANCH  31  34
ATOM     34  O   UNL     1      34.436 -23.130 -16.395  0.00  0.00    -0.295 OA
ATOM     35  H   UNL     1      33.586 -23.510 -16.667  0.00  0.00    +0.241 HD
ENDBRANCH  31  34
ENDBRANCH  27  32
ENDBRANCH  21  24
ENDBRANCH  19  22
ENDBRANCH   1  19
TORSDOF 10
ENDMDL
MODEL 9
REMARK VINA RESULT:     -10.8      4.274      8.657
REMARK  Name = 9804992
REMARK  10 active torsions:
REMARK  status: ('A' for Active; 'I' for Inactive)
REMARK    1  A    between atoms: C_1  and  C_9
REMARK    2  A    between atoms: C_1  and  O_19
REMARK    3  A    between atoms: C_2  and  C_12
REMARK    4  A    between atoms: C_12  and  N_13
REMARK    5  A    between atoms: N_13  and  C_15
REMARK    6  A    between atoms: N_13  and  C_17
REMARK    7  A    between atoms: O_19  and  C_22
REMARK    8  A    between atoms: N_21  and  C_24
REMARK    9  A    between atoms: C_27  and  C_32
REMARK   10  A    between atoms: N_31  and  O_34
REMARK                            x       y       z     vdW  Elec       q    Type
REMARK                         _______ _______ _______ _____ _____    ______ ____
ROOT
ATOM      1  C   UNL     1      33.513 -12.027 -23.279  0.00  0.00    +0.237 C 
ENDROOT
BRANCH   1   9
ATOM      2  C   UNL     1      35.968 -17.628 -21.023  0.00  0.00    -0.043 C 
ATOM      3  C   UNL     1      35.046 -15.378 -21.060  0.00  0.00    -0.000 C 
ATOM      4  C   UNL     1      34.967 -15.441 -22.472  0.00  0.00    -0.000 C 
ATOM      5  C   UNL     1      35.549 -16.480 -20.351  0.00  0.00    -0.006 C 
ATOM      6  C   UNL     1      35.889 -17.690 -22.411  0.00  0.00    -0.006 C 
ATOM      7  C   UNL     1      35.393 -16.605 -23.132  0.00  0.00    -0.000 C 
ATOM      8  C   UNL     1      34.463 -14.338 -23.181  0.00  0.00    -0.001 C 
ATOM      9  C   UNL     1      34.045 -13.189 -22.509  0.00  0.00    +0.021 C 
ATOM     10  C   UNL     1      34.620 -14.213 -20.400  0.00  0.00    -0.000 C 
ATOM     11  C   UNL     1      34.122 -13.127 -21.121  0.00  0.00    -0.001 C 
BRANCH   2  12
ATOM     12  C   UNL     1      36.501 -18.790 -20.253  0.00  0.00    -0.050 C 
BRANCH  12  13
ATOM     13  N   UNL     1      35.449 -19.512 -19.536  0.00  0.00    +0.390 N 
ATOM     14  H   UNL     1      35.249 -19.016 -18.668  0.00  0.00    -0.079 HD
BRANCH  13  15
ATOM     15  C   UNL     1      34.225 -19.555 -20.336  0.00  0.00    -0.077 C 
ATOM     16  C   UNL     1      33.086 -20.194 -19.561  0.00  0.00    -0.025 C 
ENDBRANCH  13  15
BRANCH  13  17
ATOM     17  C   UNL     1      35.894 -20.864 -19.206  0.00  0.00    -0.077 C 
ATOM     18  C   UNL     1      36.731 -20.873 -17.938  0.00  0.00    -0.025 C 
ENDBRANCH  13  17
ENDBRANCH  12  13
ENDBRANCH   2  12
ENDBRANCH   1   9
BRANCH   1  19
ATOM     19  O   UNL     1      34.598 -11.266 -23.795  0.00  0.00    -0.429 OA
BRANCH  19  22
ATOM     20  O   UNL     1      35.032  -9.168 -24.594  0.00  0.00    -0.226 OA
ATOM     21  N   UNL     1      33.507  -9.543 -22.858  0.00  0.00    -0.250 N 
ATOM     22  C   UNL     1      34.431  -9.903 -23.819  0.00  0.00    +0.406 C 
ATOM     23  H   UNL     1      33.127 -10.281 -22.327  0.00  0.00    +0.158 HD
BRANCH  21  24
ATOM     24  C   UNL     1      33.039  -8.247 -22.542  0.00  0.00    +0.053 C 
ATOM     25  C   UNL     1      33.397  -7.653 -21.331  0.00  0.00    +0.015 C 
ATOM     26  C   UNL     1      32.219  -7.563 -23.439  0.00  0.00    +0.015 C 
ATOM     27  C   UNL     1      32.114  -5.691 -21.916  0.00  0.00    +0.055 C 
ATOM     28  C   UNL     1      32.935  -6.375 -21.018  0.00  0.00    +0.006 C 
ATOM     29  C   UNL     1      31.756  -6.285 -23.126  0.00  0.00    +0.006 C 
BRANCH  27  32
ATOM     30  O   UNL     1      32.262  -3.347 -21.950  0.00  0.00    -0.268 OA
ATOM     31  N   UNL     1      30.458  -4.272 -20.856  0.00  0.00    -0.193 N 
ATOM     32  C   UNL     1      31.632  -4.359 -21.590  0.00  0.00    +0.268 C 
ATOM     33  H   UNL     1      29.965  -5.078 -20.575  0.00  0.00    +0.183 HD
BRANCH  31  34
ATOM     34  O   UNL     1      30.005  -2.985 -20.533  0.00  0.00    -0.295 OA
ATOM     35  H   UNL     1      29.183  -2.801 -21.013  0.00  0.00    +0.241 HD
ENDBRANCH  31  34
ENDBRANCH  27  32
ENDBRANCH  21  24
ENDBRANCH  19  22
ENDBRANCH   1  19
TORSDOF 10
ENDMDL
