MODEL 1
REMARK VINA RESULT:     -11.3      0.000      0.000
REMARK  Name = 24901696
REMARK  4 active torsions:
REMARK  status: ('A' for Active; 'I' for Inactive)
REMARK    1  A    between atoms: C_5  and  C_16
REMARK    2  A    between atoms: C_7  and  C_10
REMARK    3  A    between atoms: C_16  and  C_17
REMARK    4  A    between atoms: C_22  and  O_23
REMARK                            x       y       z     vdW  Elec       q    Type
REMARK                         _______ _______ _______ _____ _____    ______ ____
ROOT
ATOM      1  N   UNL     1      33.847 -22.899 -16.064  0.00  0.00    -0.195 N 
ATOM      2  N   UNL     1      35.056 -23.418 -15.735  0.00  0.00    -0.163 NA
ATOM      3  N   UNL     1      32.196 -22.057 -17.235  0.00  0.00    -0.131 NA
ATOM      4  N   UNL     1      31.792 -22.136 -15.918  0.00  0.00    -0.127 NA
ATOM      5  C   UNL     1      33.425 -22.518 -17.304  0.00  0.00    +0.168 A 
ATOM      6  C   UNL     1      32.789 -22.643 -15.223  0.00  0.00    +0.186 A 
ATOM      7  C   UNL     1      35.188 -23.684 -14.467  0.00  0.00    +0.101 C 
ATOM      8  C   UNL     1      32.954 -22.957 -13.859  0.00  0.00    +0.042 C 
ATOM      9  C   UNL     1      34.117 -23.474 -13.440  0.00  0.00    +0.024 C 
ENDROOT
BRANCH   7  10
ATOM     10  C   UNL     1      36.473 -24.252 -13.980  0.00  0.00    +0.019 C 
ATOM     11  C   UNL     1      37.268 -23.523 -13.096  0.00  0.00    +0.002 C 
ATOM     12  C   UNL     1      36.882 -25.517 -14.406  0.00  0.00    +0.002 C 
ATOM     13  C   UNL     1      38.473 -24.056 -12.640  0.00  0.00    +0.000 C 
ATOM     14  C   UNL     1      38.087 -26.049 -13.949  0.00  0.00    +0.000 C 
ATOM     15  C   UNL     1      38.882 -25.319 -13.065  0.00  0.00    +0.000 C 
ENDBRANCH   7  10
BRANCH   5  16
ATOM     16  C   UNL     1      34.266 -22.629 -18.509  0.00  0.00    +0.094 C 
BRANCH  16  17
ATOM     17  C   UNL     1      34.730 -21.297 -19.082  0.00  0.00    -0.014 C 
ATOM     18  C   UNL     1      33.805 -20.422 -19.650  0.00  0.00    -0.001 C 
ATOM     19  C   UNL     1      36.081 -20.953 -19.041  0.00  0.00    -0.001 C 
ATOM     20  C   UNL     1      34.230 -19.201 -20.175  0.00  0.00    +0.036 C 
ATOM     21  C   UNL     1      36.507 -19.733 -19.566  0.00  0.00    +0.036 C 
ATOM     22  C   UNL     1      35.582 -18.858 -20.133  0.00  0.00    +0.134 C 
BRANCH  22  23
ATOM     23  O   UNL     1      35.996 -17.667 -20.646  0.00  0.00    -0.506 OA
ATOM     24  H   UNL     1      36.714 -17.212 -20.253  0.00  0.00    +0.292 HD
ENDBRANCH  22  23
ENDBRANCH  16  17
ENDBRANCH   5  16
TORSDOF 4
ENDMDL
MODEL 2
REMARK VINA RESULT:     -11.3      0.010      1.008
REMARK  Name = 24901696
REMARK  4 active torsions:
REMARK  status: ('A' for Active; 'I' for Inactive)
REMARK    1  A    between atoms: C_5  and  C_16
REMARK    2  A    between atoms: C_7  and  C_10
REMARK    3  A    between atoms: C_16  and  C_17
REMARK    4  A    between atoms: C_22  and  O_23
REMARK                            x       y       z     vdW  Elec       q    Type
REMARK                         _______ _______ _______ _____ _____    ______ ____
ROOT
ATOM      1  N   UNL     1      33.850 -22.900 -16.066  0.00  0.00    -0.195 N 
ATOM      2  N   UNL     1      35.060 -23.419 -15.740  0.00  0.00    -0.163 NA
ATOM      3  N   UNL     1      32.198 -22.058 -17.234  0.00  0.00    -0.131 NA
ATOM      4  N   UNL     1      31.796 -22.137 -15.916  0.00  0.00    -0.127 NA
ATOM      5  C   UNL     1      33.426 -22.519 -17.305  0.00  0.00    +0.168 A 
ATOM      6  C   UNL     1      32.794 -22.644 -15.223  0.00  0.00    +0.186 A 
ATOM      7  C   UNL     1      35.194 -23.685 -14.472  0.00  0.00    +0.101 C 
ATOM      8  C   UNL     1      32.962 -22.957 -13.859  0.00  0.00    +0.042 C 
ATOM      9  C   UNL     1      34.125 -23.475 -13.443  0.00  0.00    +0.024 C 
ENDROOT
BRANCH   7  10
ATOM     10  C   UNL     1      36.480 -24.253 -13.987  0.00  0.00    +0.019 C 
ATOM     11  C   UNL     1      36.885 -25.521 -14.406  0.00  0.00    +0.002 C 
ATOM     12  C   UNL     1      37.282 -23.517 -13.115  0.00  0.00    +0.002 C 
ATOM     13  C   UNL     1      38.091 -26.053 -13.951  0.00  0.00    +0.000 C 
ATOM     14  C   UNL     1      38.488 -24.050 -12.660  0.00  0.00    +0.000 C 
ATOM     15  C   UNL     1      38.893 -25.318 -13.079  0.00  0.00    +0.000 C 
ENDBRANCH   7  10
BRANCH   5  16
ATOM     16  C   UNL     1      34.265 -22.631 -18.512  0.00  0.00    +0.094 C 
BRANCH  16  17
ATOM     17  C   UNL     1      34.731 -21.299 -19.084  0.00  0.00    -0.014 C 
ATOM     18  C   UNL     1      33.807 -20.421 -19.650  0.00  0.00    -0.001 C 
ATOM     19  C   UNL     1      36.082 -20.957 -19.042  0.00  0.00    -0.001 C 
ATOM     20  C   UNL     1      34.235 -19.201 -20.175  0.00  0.00    +0.036 C 
ATOM     21  C   UNL     1      36.511 -19.738 -19.567  0.00  0.00    +0.036 C 
ATOM     22  C   UNL     1      35.587 -18.860 -20.133  0.00  0.00    +0.134 C 
BRANCH  22  23
ATOM     23  O   UNL     1      36.003 -17.670 -20.645  0.00  0.00    -0.506 OA
ATOM     24  H   UNL     1      36.326 -17.624 -21.523  0.00  0.00    +0.292 HD
ENDBRANCH  22  23
ENDBRANCH  16  17
ENDBRANCH   5  16
TORSDOF 4
ENDMDL
MODEL 3
REMARK VINA RESULT:     -11.2      6.277      9.601
REMARK  Name = 24901696
REMARK  4 active torsions:
REMARK  status: ('A' for Active; 'I' for Inactive)
REMARK    1  A    between atoms: C_5  and  C_16
REMARK    2  A    between atoms: C_7  and  C_10
REMARK    3  A    between atoms: C_16  and  C_17
REMARK    4  A    between atoms: C_22  and  O_23
REMARK                            x       y       z     vdW  Elec       q    Type
REMARK                         _______ _______ _______ _____ _____    ______ ____
ROOT
ATOM      1  N   UNL     1      34.643 -15.876 -23.358  0.00  0.00    -0.195 N 
ATOM      2  N   UNL     1      35.042 -16.541 -22.245  0.00  0.00    -0.163 NA
ATOM      3  N   UNL     1      34.143 -14.249 -24.739  0.00  0.00    -0.131 NA
ATOM      4  N   UNL     1      33.908 -15.447 -25.383  0.00  0.00    -0.127 NA
ATOM      5  C   UNL     1      34.583 -14.525 -23.532  0.00  0.00    +0.168 A 
ATOM      6  C   UNL     1      34.211 -16.417 -24.547  0.00  0.00    +0.186 A 
ATOM      7  C   UNL     1      34.990 -17.837 -22.359  0.00  0.00    +0.101 C 
ATOM      8  C   UNL     1      34.181 -17.823 -24.647  0.00  0.00    +0.042 C 
ATOM      9  C   UNL     1      34.558 -18.564 -23.596  0.00  0.00    +0.024 C 
ENDROOT
BRANCH   7  10
ATOM     10  C   UNL     1      35.397 -18.678 -21.203  0.00  0.00    +0.019 C 
ATOM     11  C   UNL     1      36.709 -18.630 -20.732  0.00  0.00    +0.002 C 
ATOM     12  C   UNL     1      34.465 -19.515 -20.587  0.00  0.00    +0.002 C 
ATOM     13  C   UNL     1      37.090 -19.420 -19.647  0.00  0.00    +0.000 C 
ATOM     14  C   UNL     1      34.847 -20.304 -19.503  0.00  0.00    +0.000 C 
ATOM     15  C   UNL     1      36.159 -20.256 -19.032  0.00  0.00    +0.000 C 
ENDBRANCH   7  10
BRANCH   5  16
ATOM     16  C   UNL     1      34.967 -13.561 -22.484  0.00  0.00    +0.094 C 
BRANCH  16  17
ATOM     17  C   UNL     1      33.794 -12.897 -21.775  0.00  0.00    -0.014 C 
ATOM     18  C   UNL     1      33.262 -11.708 -22.271  0.00  0.00    -0.001 C 
ATOM     19  C   UNL     1      33.255 -13.478 -20.628  0.00  0.00    -0.001 C 
ATOM     20  C   UNL     1      32.188 -11.099 -21.620  0.00  0.00    +0.036 C 
ATOM     21  C   UNL     1      32.181 -12.870 -19.977  0.00  0.00    +0.036 C 
ATOM     22  C   UNL     1      31.649 -11.681 -20.473  0.00  0.00    +0.134 C 
BRANCH  22  23
ATOM     23  O   UNL     1      30.601 -11.087 -19.838  0.00  0.00    -0.506 OA
ATOM     24  H   UNL     1      29.736 -11.160 -20.191  0.00  0.00    +0.292 HD
ENDBRANCH  22  23
ENDBRANCH  16  17
ENDBRANCH   5  16
TORSDOF 4
ENDMDL
MODEL 4
REMARK VINA RESULT:     -11.0      2.876      6.674
REMARK  Name = 24901696
REMARK  4 active torsions:
REMARK  status: ('A' for Active; 'I' for Inactive)
REMARK    1  A    between atoms: C_5  and  C_16
REMARK    2  A    between atoms: C_7  and  C_10
REMARK    3  A    between atoms: C_16  and  C_17
REMARK    4  A    between atoms: C_22  and  O_23
REMARK                            x       y       z     vdW  Elec       q    Type
REMARK                         _______ _______ _______ _____ _____    ______ ____
ROOT
ATOM      1  N   UNL     1      34.426 -22.956 -14.045  0.00  0.00    -0.195 N 
ATOM      2  N   UNL     1      35.018 -22.341 -15.099  0.00  0.00    -0.163 NA
ATOM      3  N   UNL     1      34.108 -23.826 -12.058  0.00  0.00    -0.131 NA
ATOM      4  N   UNL     1      32.946 -23.983 -12.788  0.00  0.00    -0.127 NA
ATOM      5  C   UNL     1      34.980 -23.210 -12.825  0.00  0.00    +0.168 A 
ATOM      6  C   UNL     1      33.147 -23.458 -13.978  0.00  0.00    +0.186 A 
ATOM      7  C   UNL     1      34.252 -22.240 -16.148  0.00  0.00    +0.101 C 
ATOM      8  C   UNL     1      32.335 -23.319 -15.122  0.00  0.00    +0.042 C 
ATOM      9  C   UNL     1      32.835 -22.724 -16.213  0.00  0.00    +0.024 C 
ENDROOT
BRANCH   7  10
ATOM     10  C   UNL     1      34.788 -21.590 -17.372  0.00  0.00    +0.019 C 
ATOM     11  C   UNL     1      33.926 -21.233 -18.408  0.00  0.00    +0.002 C 
ATOM     12  C   UNL     1      36.156 -21.336 -17.484  0.00  0.00    +0.002 C 
ATOM     13  C   UNL     1      34.430 -20.622 -19.556  0.00  0.00    +0.000 C 
ATOM     14  C   UNL     1      36.659 -20.726 -18.632  0.00  0.00    +0.000 C 
ATOM     15  C   UNL     1      35.796 -20.368 -19.668  0.00  0.00    +0.000 C 
ENDBRANCH   7  10
BRANCH   5  16
ATOM     16  C   UNL     1      36.359 -22.828 -12.471  0.00  0.00    +0.094 C 
BRANCH  16  17
ATOM     17  C   UNL     1      37.425 -23.818 -12.921  0.00  0.00    -0.014 C 
ATOM     18  C   UNL     1      37.085 -24.871 -13.769  0.00  0.00    -0.001 C 
ATOM     19  C   UNL     1      38.741 -23.671 -12.484  0.00  0.00    -0.001 C 
ATOM     20  C   UNL     1      38.062 -25.779 -14.180  0.00  0.00    +0.036 C 
ATOM     21  C   UNL     1      39.718 -24.578 -12.895  0.00  0.00    +0.036 C 
ATOM     22  C   UNL     1      39.378 -25.631 -13.742  0.00  0.00    +0.134 C 
BRANCH  22  23
ATOM     23  O   UNL     1      40.331 -26.517 -14.144  0.00  0.00    -0.506 OA
ATOM     24  H   UNL     1      41.196 -26.470 -13.786  0.00  0.00    +0.292 HD
ENDBRANCH  22  23
ENDBRANCH  16  17
ENDBRANCH   5  16
TORSDOF 4
ENDMDL
MODEL 5
REMARK VINA RESULT:     -10.6      3.049      7.532
REMARK  Name = 24901696
REMARK  4 active torsions:
REMARK  status: ('A' for Active; 'I' for Inactive)
REMARK    1  A    between atoms: C_5  and  C_16
REMARK    2  A    between atoms: C_7  and  C_10
REMARK    3  A    between atoms: C_16  and  C_17
REMARK    4  A    between atoms: C_22  and  O_23
REMARK                            x       y       z     vdW  Elec       q    Type
REMARK                         _______ _______ _______ _____ _____    ______ ____
ROOT
ATOM      1  N   UNL     1      35.151 -21.674 -17.272  0.00  0.00    -0.195 N 
ATOM      2  N   UNL     1      35.783 -20.830 -18.125  0.00  0.00    -0.163 NA
ATOM      3  N   UNL     1      34.773 -23.034 -15.595  0.00  0.00    -0.131 NA
ATOM      4  N   UNL     1      33.607 -22.915 -16.324  0.00  0.00    -0.127 NA
ATOM      5  C   UNL     1      35.684 -22.284 -16.175  0.00  0.00    +0.168 A 
ATOM      6  C   UNL     1      33.844 -22.097 -17.328  0.00  0.00    +0.186 A 
ATOM      7  C   UNL     1      35.029 -20.400 -19.096  0.00  0.00    +0.101 C 
ATOM      8  C   UNL     1      33.046 -21.602 -18.380  0.00  0.00    +0.042 C 
ATOM      9  C   UNL     1      33.586 -20.762 -19.273  0.00  0.00    +0.024 C 
ENDROOT
BRANCH   7  10
ATOM     10  C   UNL     1      35.609 -19.473 -20.103  0.00  0.00    +0.019 C 
ATOM     11  C   UNL     1      34.817 -18.986 -21.142  0.00  0.00    +0.002 C 
ATOM     12  C   UNL     1      36.947 -19.088 -20.006  0.00  0.00    +0.002 C 
ATOM     13  C   UNL     1      35.361 -18.116 -22.086  0.00  0.00    +0.000 C 
ATOM     14  C   UNL     1      37.491 -18.218 -20.950  0.00  0.00    +0.000 C 
ATOM     15  C   UNL     1      36.698 -17.731 -21.990  0.00  0.00    +0.000 C 
ENDBRANCH   7  10
BRANCH   5  16
ATOM     16  C   UNL     1      37.082 -22.096 -15.748  0.00  0.00    +0.094 C 
BRANCH  16  17
ATOM     17  C   UNL     1      37.410 -22.679 -14.380  0.00  0.00    -0.014 C 
ATOM     18  C   UNL     1      38.321 -23.729 -14.270  0.00  0.00    -0.001 C 
ATOM     19  C   UNL     1      36.799 -22.163 -13.238  0.00  0.00    -0.001 C 
ATOM     20  C   UNL     1      38.621 -24.264 -13.016  0.00  0.00    +0.036 C 
ATOM     21  C   UNL     1      37.098 -22.696 -11.985  0.00  0.00    +0.036 C 
ATOM     22  C   UNL     1      38.009 -23.747 -11.874  0.00  0.00    +0.134 C 
BRANCH  22  23
ATOM     23  O   UNL     1      38.302 -24.268 -10.651  0.00  0.00    -0.506 OA
ATOM     24  H   UNL     1      37.611 -24.487 -10.057  0.00  0.00    +0.292 HD
ENDBRANCH  22  23
ENDBRANCH  16  17
ENDBRANCH   5  16
TORSDOF 4
ENDMDL
MODEL 6
REMARK VINA RESULT:     -10.4      6.208     11.308
REMARK  Name = 24901696
REMARK  4 active torsions:
REMARK  status: ('A' for Active; 'I' for Inactive)
REMARK    1  A    between atoms: C_5  and  C_16
REMARK    2  A    between atoms: C_7  and  C_10
REMARK    3  A    between atoms: C_16  and  C_17
REMARK    4  A    between atoms: C_22  and  O_23
REMARK                            x       y       z     vdW  Elec       q    Type
REMARK                         _______ _______ _______ _____ _____    ______ ____
ROOT
ATOM      1  N   UNL     1      34.678 -16.231 -23.206  0.00  0.00    -0.195 N 
ATOM      2  N   UNL     1      34.477 -14.996 -22.682  0.00  0.00    -0.163 NA
ATOM      3  N   UNL     1      35.291 -18.325 -23.413  0.00  0.00    -0.131 NA
ATOM      4  N   UNL     1      34.700 -17.931 -24.597  0.00  0.00    -0.127 NA
ATOM      5  C   UNL     1      35.268 -17.297 -22.594  0.00  0.00    +0.168 A 
ATOM      6  C   UNL     1      34.335 -16.673 -24.463  0.00  0.00    +0.186 A 
ATOM      7  C   UNL     1      33.894 -14.166 -23.499  0.00  0.00    +0.101 C 
ATOM      8  C   UNL     1      33.690 -15.758 -25.319  0.00  0.00    +0.042 C 
ATOM      9  C   UNL     1      33.449 -14.513 -24.887  0.00  0.00    +0.024 C 
ENDROOT
BRANCH   7  10
ATOM     10  C   UNL     1      33.624 -12.777 -23.043  0.00  0.00    +0.019 C 
ATOM     11  C   UNL     1      34.195 -11.698 -23.716  0.00  0.00    +0.002 C 
ATOM     12  C   UNL     1      32.795 -12.554 -21.942  0.00  0.00    +0.002 C 
ATOM     13  C   UNL     1      33.941 -10.395 -23.288  0.00  0.00    +0.000 C 
ATOM     14  C   UNL     1      32.542 -11.251 -21.514  0.00  0.00    +0.000 C 
ATOM     15  C   UNL     1      33.114 -10.171 -22.188  0.00  0.00    +0.000 C 
ENDBRANCH   7  10
BRANCH   5  16
ATOM     16  C   UNL     1      35.786 -17.249 -21.215  0.00  0.00    +0.094 C 
BRANCH  16  17
ATOM     17  C   UNL     1      35.611 -18.540 -20.427  0.00  0.00    -0.014 C 
ATOM     18  C   UNL     1      36.726 -19.194 -19.904  0.00  0.00    -0.001 C 
ATOM     19  C   UNL     1      34.336 -19.068 -20.230  0.00  0.00    -0.001 C 
ATOM     20  C   UNL     1      36.565 -20.378 -19.183  0.00  0.00    +0.036 C 
ATOM     21  C   UNL     1      34.174 -20.251 -19.509  0.00  0.00    +0.036 C 
ATOM     22  C   UNL     1      35.289 -20.906 -18.986  0.00  0.00    +0.134 C 
BRANCH  22  23
ATOM     23  O   UNL     1      35.132 -22.061 -18.282  0.00  0.00    -0.506 OA
ATOM     24  H   UNL     1      35.882 -22.568 -18.041  0.00  0.00    +0.292 HD
ENDBRANCH  22  23
ENDBRANCH  16  17
ENDBRANCH   5  16
TORSDOF 4
ENDMDL
MODEL 7
REMARK VINA RESULT:     -10.3      2.186      4.673
REMARK  Name = 24901696
REMARK  4 active torsions:
REMARK  status: ('A' for Active; 'I' for Inactive)
REMARK    1  A    between atoms: C_5  and  C_16
REMARK    2  A    between atoms: C_7  and  C_10
REMARK    3  A    between atoms: C_16  and  C_17
REMARK    4  A    between atoms: C_22  and  O_23
REMARK                            x       y       z     vdW  Elec       q    Type
REMARK                         _______ _______ _______ _____ _____    ______ ____
ROOT
ATOM      1  N   UNL     1      34.448 -22.103 -16.642  0.00  0.00    -0.195 N 
ATOM      2  N   UNL     1      33.123 -22.383 -16.568  0.00  0.00    -0.163 NA
ATOM      3  N   UNL     1      36.397 -21.467 -17.419  0.00  0.00    -0.131 NA
ATOM      4  N   UNL     1      36.569 -21.884 -16.114  0.00  0.00    -0.127 NA
ATOM      5  C   UNL     1      35.124 -21.604 -17.716  0.00  0.00    +0.168 A 
ATOM      6  C   UNL     1      35.394 -22.264 -15.656  0.00  0.00    +0.186 A 
ATOM      7  C   UNL     1      32.749 -22.860 -15.415  0.00  0.00    +0.101 C 
ATOM      8  C   UNL     1      34.958 -22.766 -14.414  0.00  0.00    +0.042 C 
ATOM      9  C   UNL     1      33.664 -23.072 -14.247  0.00  0.00    +0.024 C 
ENDROOT
BRANCH   7  10
ATOM     10  C   UNL     1      31.320 -23.213 -15.211  0.00  0.00    +0.019 C 
ATOM     11  C   UNL     1      30.977 -24.306 -14.415  0.00  0.00    +0.002 C 
ATOM     12  C   UNL     1      30.320 -22.448 -15.813  0.00  0.00    +0.002 C 
ATOM     13  C   UNL     1      29.635 -24.636 -14.224  0.00  0.00    +0.000 C 
ATOM     14  C   UNL     1      28.979 -22.778 -15.621  0.00  0.00    +0.000 C 
ATOM     15  C   UNL     1      28.636 -23.872 -14.826  0.00  0.00    +0.000 C 
ENDBRANCH   7  10
BRANCH   5  16
ATOM     16  C   UNL     1      34.472 -21.283 -18.999  0.00  0.00    +0.094 C 
BRANCH  16  17
ATOM     17  C   UNL     1      35.121 -20.142 -19.771  0.00  0.00    -0.014 C 
ATOM     18  C   UNL     1      34.352 -19.351 -20.624  0.00  0.00    -0.001 C 
ATOM     19  C   UNL     1      36.485 -19.890 -19.625  0.00  0.00    -0.001 C 
ATOM     20  C   UNL     1      34.948 -18.306 -21.332  0.00  0.00    +0.036 C 
ATOM     21  C   UNL     1      37.081 -18.845 -20.333  0.00  0.00    +0.036 C 
ATOM     22  C   UNL     1      36.312 -18.054 -21.186  0.00  0.00    +0.134 C 
BRANCH  22  23
ATOM     23  O   UNL     1      36.892 -17.035 -21.877  0.00  0.00    -0.506 OA
ATOM     24  H   UNL     1      36.644 -16.869 -22.765  0.00  0.00    +0.292 HD
ENDBRANCH  22  23
ENDBRANCH  16  17
ENDBRANCH   5  16
TORSDOF 4
ENDMDL
MODEL 8
REMARK VINA RESULT:     -10.2      3.345      5.180
REMARK  Name = 24901696
REMARK  4 active torsions:
REMARK  status: ('A' for Active; 'I' for Inactive)
REMARK    1  A    between atoms: C_5  and  C_16
REMARK    2  A    between atoms: C_7  and  C_10
REMARK    3  A    between atoms: C_16  and  C_17
REMARK    4  A    between atoms: C_22  and  O_23
REMARK                            x       y       z     vdW  Elec       q    Type
REMARK                         _______ _______ _______ _____ _____    ______ ____
ROOT
ATOM      1  N   UNL     1      34.177 -22.558 -15.893  0.00  0.00    -0.195 N 
ATOM      2  N   UNL     1      34.891 -22.974 -14.817  0.00  0.00    -0.163 NA
ATOM      3  N   UNL     1      32.508 -22.212 -17.271  0.00  0.00    -0.131 NA
ATOM      4  N   UNL     1      33.641 -21.643 -17.816  0.00  0.00    -0.127 NA
ATOM      5  C   UNL     1      32.847 -22.753 -16.122  0.00  0.00    +0.168 A 
ATOM      6  C   UNL     1      34.637 -21.856 -16.982  0.00  0.00    +0.186 A 
ATOM      7  C   UNL     1      36.153 -22.654 -14.867  0.00  0.00    +0.101 C 
ATOM      8  C   UNL     1      36.003 -21.508 -17.001  0.00  0.00    +0.042 C 
ATOM      9  C   UNL     1      36.788 -21.877 -15.980  0.00  0.00    +0.024 C 
ENDROOT
BRANCH   7  10
ATOM     10  C   UNL     1      37.043 -23.060 -13.748  0.00  0.00    +0.019 C 
ATOM     11  C   UNL     1      36.959 -22.410 -12.517  0.00  0.00    +0.002 C 
ATOM     12  C   UNL     1      37.963 -24.094 -13.929  0.00  0.00    +0.002 C 
ATOM     13  C   UNL     1      37.795 -22.791 -11.468  0.00  0.00    +0.000 C 
ATOM     14  C   UNL     1      38.799 -24.475 -12.880  0.00  0.00    +0.000 C 
ATOM     15  C   UNL     1      38.714 -23.824 -11.648  0.00  0.00    +0.000 C 
ENDBRANCH   7  10
BRANCH   5  16
ATOM     16  C   UNL     1      31.965 -23.472 -15.184  0.00  0.00    +0.094 C 
BRANCH  16  17
ATOM     17  C   UNL     1      30.505 -23.045 -15.234  0.00  0.00    -0.014 C 
ATOM     18  C   UNL     1      29.609 -23.722 -16.061  0.00  0.00    -0.001 C 
ATOM     19  C   UNL     1      30.064 -21.976 -14.454  0.00  0.00    -0.001 C 
ATOM     20  C   UNL     1      28.270 -23.329 -16.108  0.00  0.00    +0.036 C 
ATOM     21  C   UNL     1      28.726 -21.584 -14.500  0.00  0.00    +0.036 C 
ATOM     22  C   UNL     1      27.830 -22.260 -15.327  0.00  0.00    +0.134 C 
BRANCH  22  23
ATOM     23  O   UNL     1      26.524 -21.878 -15.373  0.00  0.00    -0.506 OA
ATOM     24  H   UNL     1      26.058 -21.898 -16.185  0.00  0.00    +0.292 HD
ENDBRANCH  22  23
ENDBRANCH  16  17
ENDBRANCH   5  16
TORSDOF 4
ENDMDL
MODEL 9
REMARK VINA RESULT:     -10.2      3.221      6.801
REMARK  Name = 24901696
REMARK  4 active torsions:
REMARK  status: ('A' for Active; 'I' for Inactive)
REMARK    1  A    between atoms: C_5  and  C_16
REMARK    2  A    between atoms: C_7  and  C_10
REMARK    3  A    between atoms: C_16  and  C_17
REMARK    4  A    between atoms: C_22  and  O_23
REMARK                            x       y       z     vdW  Elec       q    Type
REMARK                         _______ _______ _______ _____ _____    ______ ____
ROOT
ATOM      1  N   UNL     1      35.272 -22.200 -15.890  0.00  0.00    -0.195 N 
ATOM      2  N   UNL     1      34.197 -22.689 -15.224  0.00  0.00    -0.163 NA
ATOM      3  N   UNL     1      37.322 -21.578 -16.354  0.00  0.00    -0.131 NA
ATOM      4  N   UNL     1      36.532 -21.313 -17.455  0.00  0.00    -0.127 NA
ATOM      5  C   UNL     1      36.552 -22.108 -15.430  0.00  0.00    +0.168 A 
ATOM      6  C   UNL     1      35.304 -21.690 -17.168  0.00  0.00    +0.186 A 
ATOM      7  C   UNL     1      33.089 -22.647 -15.908  0.00  0.00    +0.101 C 
ATOM      8  C   UNL     1      34.094 -21.673 -17.890  0.00  0.00    +0.042 C 
ATOM      9  C   UNL     1      32.978 -22.136 -17.312  0.00  0.00    +0.024 C 
ENDROOT
BRANCH   7  10
ATOM     10  C   UNL     1      31.837 -23.150 -15.283  0.00  0.00    +0.019 C 
ATOM     11  C   UNL     1      30.600 -22.691 -15.734  0.00  0.00    +0.002 C 
ATOM     12  C   UNL     1      31.901 -24.082 -14.247  0.00  0.00    +0.002 C 
ATOM     13  C   UNL     1      29.425 -23.163 -15.148  0.00  0.00    +0.000 C 
ATOM     14  C   UNL     1      30.727 -24.553 -13.661  0.00  0.00    +0.000 C 
ATOM     15  C   UNL     1      29.488 -24.095 -14.112  0.00  0.00    +0.000 C 
ENDBRANCH   7  10
BRANCH   5  16
ATOM     16  C   UNL     1      36.958 -22.554 -14.085  0.00  0.00    +0.094 C 
BRANCH  16  17
ATOM     17  C   UNL     1      38.111 -23.547 -14.068  0.00  0.00    -0.014 C 
ATOM     18  C   UNL     1      39.182 -23.388 -14.948  0.00  0.00    -0.001 C 
ATOM     19  C   UNL     1      38.096 -24.618 -13.174  0.00  0.00    -0.001 C 
ATOM     20  C   UNL     1      40.239 -24.300 -14.933  0.00  0.00    +0.036 C 
ATOM     21  C   UNL     1      39.152 -25.529 -13.159  0.00  0.00    +0.036 C 
ATOM     22  C   UNL     1      40.223 -25.370 -14.038  0.00  0.00    +0.134 C 
BRANCH  22  23
ATOM     23  O   UNL     1      41.253 -26.259 -14.024  0.00  0.00    -0.506 OA
ATOM     24  H   UNL     1      41.331 -26.898 -14.705  0.00  0.00    +0.292 HD
ENDBRANCH  22  23
ENDBRANCH  16  17
ENDBRANCH   5  16
TORSDOF 4
ENDMDL
