MODEL 1
REMARK VINA RESULT:     -12.1      0.000      0.000
REMARK  Name = 10430360
REMARK  6 active torsions:
REMARK  status: ('A' for Active; 'I' for Inactive)
REMARK    1  A    between atoms: C_4  and  C_18
REMARK    2  A    between atoms: C_7  and  C_14
REMARK    3  A    between atoms: C_17  and  O_23
REMARK    4  A    between atoms: O_23  and  C_24
REMARK    5  A    between atoms: C_24  and  C_25
REMARK    6  A    between atoms: C_25  and  N_26
REMARK                            x       y       z     vdW  Elec       q    Type
REMARK                         _______ _______ _______ _____ _____    ______ ____
ROOT
ATOM      1  N   UNL     1      32.601 -24.396 -13.619  0.00  0.00    -0.276 N 
ATOM      2  N   UNL     1      33.615 -23.925 -14.366  0.00  0.00    -0.173 NA
ATOM      3  C   UNL     1      31.595 -23.181 -15.142  0.00  0.00    +0.036 A 
ATOM      4  C   UNL     1      33.001 -23.184 -15.296  0.00  0.00    +0.102 A 
ATOM      5  C   UNL     1      31.363 -23.986 -14.033  0.00  0.00    +0.075 A 
ATOM      6  C   UNL     1      30.505 -22.596 -15.808  0.00  0.00    +0.006 C 
ATOM      7  C   UNL     1      29.214 -22.847 -15.326  0.00  0.00    +0.033 C 
ATOM      8  C   UNL     1      30.084 -24.248 -13.536  0.00  0.00    +0.019 C 
ATOM      9  C   UNL     1      29.009 -23.659 -14.210  0.00  0.00    +0.004 C 
ATOM     10  H   UNL     1      32.739 -24.984 -12.842  0.00  0.00    +0.189 HD
ENDROOT
BRANCH   7  14
ATOM     11  N   UNL     1      27.078 -21.622 -15.333  0.00  0.00    -0.218 N 
ATOM     12  N   UNL     1      27.842 -22.239 -17.285  0.00  0.00    -0.206 NA
ATOM     13  N   UNL     1      26.148 -21.166 -16.186  0.00  0.00    -0.157 NA
ATOM     14  C   UNL     1      28.079 -22.256 -15.997  0.00  0.00    +0.149 C 
ATOM     15  C   UNL     1      26.656 -21.565 -17.353  0.00  0.00    +0.218 C 
ATOM     16  H   UNL     1      27.041 -21.509 -14.356  0.00  0.00    +0.176 HD
ENDBRANCH   7  14
BRANCH   4  18
ATOM     17  C   UNL     1      35.848 -21.552 -17.051  0.00  0.00    +0.138 C 
ATOM     18  C   UNL     1      33.767 -22.501 -16.299  0.00  0.00    +0.022 C 
ATOM     19  C   UNL     1      35.113 -22.213 -16.074  0.00  0.00    +0.038 C 
ATOM     20  C   UNL     1      35.254 -21.172 -18.250  0.00  0.00    +0.037 C 
ATOM     21  C   UNL     1      33.164 -22.123 -17.499  0.00  0.00    +0.002 C 
ATOM     22  C   UNL     1      33.908 -21.460 -18.475  0.00  0.00    +0.003 C 
BRANCH  17  23
ATOM     23  O   UNL     1      37.171 -21.270 -16.831  0.00  0.00    -0.478 OA
BRANCH  23  24
ATOM     24  C   UNL     1      37.659 -21.472 -15.511  0.00  0.00    +0.183 C 
BRANCH  24  25
ATOM     25  C   UNL     1      38.665 -22.611 -15.530  0.00  0.00    -0.029 C 
BRANCH  25  26
ATOM     26  N   UNL     1      38.246 -23.684 -14.629  0.00  0.00    +0.389 N 
ATOM     27  C   UNL     1      39.412 -24.452 -14.167  0.00  0.00    -0.077 C 
ATOM     28  C   UNL     1      37.486 -23.138 -13.497  0.00  0.00    -0.077 C 
ATOM     29  C   UNL     1      38.986 -25.609 -13.262  0.00  0.00    -0.023 C 
ATOM     30  C   UNL     1      36.998 -24.253 -12.570  0.00  0.00    -0.023 C 
ATOM     31  C   UNL     1      38.157 -25.115 -12.082  0.00  0.00    -0.004 C 
ATOM     32  H   UNL     1      37.634 -24.320 -15.140  0.00  0.00    -0.080 HD
ENDBRANCH  25  26
ENDBRANCH  24  25
ENDBRANCH  23  24
ENDBRANCH  17  23
ENDBRANCH   4  18
TORSDOF 6
ENDMDL
MODEL 2
REMARK VINA RESULT:     -12.0      3.396      6.113
REMARK  Name = 10430360
REMARK  6 active torsions:
REMARK  status: ('A' for Active; 'I' for Inactive)
REMARK    1  A    between atoms: C_4  and  C_18
REMARK    2  A    between atoms: C_7  and  C_14
REMARK    3  A    between atoms: C_17  and  O_23
REMARK    4  A    between atoms: O_23  and  C_24
REMARK    5  A    between atoms: C_24  and  C_25
REMARK    6  A    between atoms: C_25  and  N_26
REMARK                            x       y       z     vdW  Elec       q    Type
REMARK                         _______ _______ _______ _____ _____    ______ ____
ROOT
ATOM      1  N   UNL     1      34.005 -24.157 -13.278  0.00  0.00    -0.276 N 
ATOM      2  N   UNL     1      34.952 -23.619 -14.066  0.00  0.00    -0.173 NA
ATOM      3  C   UNL     1      32.854 -23.170 -14.863  0.00  0.00    +0.036 A 
ATOM      4  C   UNL     1      34.250 -23.017 -15.033  0.00  0.00    +0.102 A 
ATOM      5  C   UNL     1      32.724 -23.923 -13.702  0.00  0.00    +0.075 A 
ATOM      6  C   UNL     1      31.699 -22.762 -15.551  0.00  0.00    +0.006 C 
ATOM      7  C   UNL     1      30.449 -23.131 -15.038  0.00  0.00    +0.033 C 
ATOM      8  C   UNL     1      31.488 -24.302 -13.174  0.00  0.00    +0.019 C 
ATOM      9  C   UNL     1      30.348 -23.889 -13.870  0.00  0.00    +0.004 C 
ATOM     10  H   UNL     1      34.215 -24.674 -12.467  0.00  0.00    +0.189 HD
ENDROOT
BRANCH   7  14
ATOM     11  N   UNL     1      28.578 -23.537 -16.586  0.00  0.00    -0.218 N 
ATOM     12  N   UNL     1      28.646 -21.563 -15.652  0.00  0.00    -0.206 NA
ATOM     13  N   UNL     1      27.501 -22.919 -17.094  0.00  0.00    -0.157 NA
ATOM     14  C   UNL     1      29.249 -22.724 -15.730  0.00  0.00    +0.149 C 
ATOM     15  C   UNL     1      27.587 -21.729 -16.499  0.00  0.00    +0.218 C 
ATOM     16  H   UNL     1      28.844 -24.460 -16.803  0.00  0.00    +0.176 HD
ENDBRANCH   7  14
BRANCH   4  18
ATOM     17  C   UNL     1      34.929 -21.387 -18.309  0.00  0.00    +0.138 C 
ATOM     18  C   UNL     1      34.924 -22.314 -16.087  0.00  0.00    +0.022 C 
ATOM     19  C   UNL     1      34.269 -22.069 -17.294  0.00  0.00    +0.038 C 
ATOM     20  C   UNL     1      36.236 -20.947 -18.134  0.00  0.00    +0.037 C 
ATOM     21  C   UNL     1      36.235 -21.875 -15.904  0.00  0.00    +0.002 C 
ATOM     22  C   UNL     1      36.892 -21.192 -16.927  0.00  0.00    +0.003 C 
BRANCH  17  23
ATOM     23  O   UNL     1      34.285 -21.145 -19.494  0.00  0.00    -0.478 OA
BRANCH  23  24
ATOM     24  C   UNL     1      34.095 -19.783 -19.854  0.00  0.00    +0.183 C 
BRANCH  24  25
ATOM     25  C   UNL     1      35.246 -19.349 -20.748  0.00  0.00    -0.029 C 
BRANCH  25  26
ATOM     26  N   UNL     1      34.856 -18.205 -21.572  0.00  0.00    +0.389 N 
ATOM     27  C   UNL     1      35.702 -17.041 -21.270  0.00  0.00    -0.077 C 
ATOM     28  C   UNL     1      34.919 -18.552 -22.998  0.00  0.00    -0.077 C 
ATOM     29  C   UNL     1      35.275 -15.822 -22.089  0.00  0.00    -0.023 C 
ATOM     30  C   UNL     1      34.467 -17.382 -23.872  0.00  0.00    -0.023 C 
ATOM     31  C   UNL     1      35.281 -16.126 -23.582  0.00  0.00    -0.004 C 
ATOM     32  H   UNL     1      33.891 -17.957 -21.352  0.00  0.00    -0.080 HD
ENDBRANCH  25  26
ENDBRANCH  24  25
ENDBRANCH  23  24
ENDBRANCH  17  23
ENDBRANCH   4  18
TORSDOF 6
ENDMDL
MODEL 3
REMARK VINA RESULT:     -11.9      4.615      8.400
REMARK  Name = 10430360
REMARK  6 active torsions:
REMARK  status: ('A' for Active; 'I' for Inactive)
REMARK    1  A    between atoms: C_4  and  C_18
REMARK    2  A    between atoms: C_7  and  C_14
REMARK    3  A    between atoms: C_17  and  O_23
REMARK    4  A    between atoms: O_23  and  C_24
REMARK    5  A    between atoms: C_24  and  C_25
REMARK    6  A    between atoms: C_25  and  N_26
REMARK                            x       y       z     vdW  Elec       q    Type
REMARK                         _______ _______ _______ _____ _____    ______ ____
ROOT
ATOM      1  N   UNL     1      31.482 -22.358 -16.596  0.00  0.00    -0.276 N 
ATOM      2  N   UNL     1      32.151 -21.716 -17.569  0.00  0.00    -0.173 NA
ATOM      3  C   UNL     1      33.578 -22.520 -15.971  0.00  0.00    +0.036 A 
ATOM      4  C   UNL     1      33.430 -21.815 -17.187  0.00  0.00    +0.102 A 
ATOM      5  C   UNL     1      32.281 -22.864 -15.606  0.00  0.00    +0.075 A 
ATOM      6  C   UNL     1      34.649 -22.902 -15.145  0.00  0.00    +0.006 C 
ATOM      7  C   UNL     1      34.369 -23.621 -13.976  0.00  0.00    +0.033 C 
ATOM      8  C   UNL     1      31.980 -23.580 -14.445  0.00  0.00    +0.019 C 
ATOM      9  C   UNL     1      33.057 -23.953 -13.634  0.00  0.00    +0.004 C 
ATOM     10  H   UNL     1      30.503 -22.455 -16.595  0.00  0.00    +0.189 HD
ENDROOT
BRANCH   7  14
ATOM     11  N   UNL     1      35.300 -24.224 -11.778  0.00  0.00    -0.218 N 
ATOM     12  N   UNL     1      36.699 -24.246 -13.457  0.00  0.00    -0.206 NA
ATOM     13  N   UNL     1      36.459 -24.590 -11.209  0.00  0.00    -0.157 NA
ATOM     14  C   UNL     1      35.454 -24.023 -13.113  0.00  0.00    +0.149 C 
ATOM     15  C   UNL     1      37.273 -24.588 -12.266  0.00  0.00    +0.218 C 
ATOM     16  H   UNL     1      34.450 -24.118 -11.292  0.00  0.00    +0.176 HD
ENDBRANCH   7  14
BRANCH   4  18
ATOM     17  C   UNL     1      35.163 -19.955 -19.905  0.00  0.00    +0.138 C 
ATOM     18  C   UNL     1      34.472 -21.239 -17.990  0.00  0.00    +0.022 C 
ATOM     19  C   UNL     1      34.148 -20.510 -19.134  0.00  0.00    +0.038 C 
ATOM     20  C   UNL     1      36.497 -20.121 -19.548  0.00  0.00    +0.037 C 
ATOM     21  C   UNL     1      35.807 -21.410 -17.625  0.00  0.00    +0.002 C 
ATOM     22  C   UNL     1      36.820 -20.851 -18.404  0.00  0.00    +0.003 C 
BRANCH  17  23
ATOM     23  O   UNL     1      34.847 -19.237 -21.028  0.00  0.00    -0.478 OA
BRANCH  23  24
ATOM     24  C   UNL     1      35.322 -17.898 -21.089  0.00  0.00    +0.183 C 
BRANCH  24  25
ATOM     25  C   UNL     1      36.058 -17.700 -22.404  0.00  0.00    -0.029 C 
BRANCH  25  26
ATOM     26  N   UNL     1      35.713 -16.409 -22.999  0.00  0.00    +0.389 N 
ATOM     27  C   UNL     1      34.718 -16.585 -24.067  0.00  0.00    -0.077 C 
ATOM     28  C   UNL     1      35.228 -15.481 -21.968  0.00  0.00    -0.077 C 
ATOM     29  C   UNL     1      34.382 -15.249 -24.732  0.00  0.00    -0.023 C 
ATOM     30  C   UNL     1      34.909 -14.110 -22.566  0.00  0.00    -0.023 C 
ATOM     31  C   UNL     1      33.907 -14.223 -23.710  0.00  0.00    -0.004 C 
ATOM     32  H   UNL     1      36.552 -16.005 -23.415  0.00  0.00    -0.080 HD
ENDBRANCH  25  26
ENDBRANCH  24  25
ENDBRANCH  23  24
ENDBRANCH  17  23
ENDBRANCH   4  18
TORSDOF 6
ENDMDL
MODEL 4
REMARK VINA RESULT:     -11.1     11.347     13.524
REMARK  Name = 10430360
REMARK  6 active torsions:
REMARK  status: ('A' for Active; 'I' for Inactive)
REMARK    1  A    between atoms: C_4  and  C_18
REMARK    2  A    between atoms: C_7  and  C_14
REMARK    3  A    between atoms: C_17  and  O_23
REMARK    4  A    between atoms: O_23  and  C_24
REMARK    5  A    between atoms: C_24  and  C_25
REMARK    6  A    between atoms: C_25  and  N_26
REMARK                            x       y       z     vdW  Elec       q    Type
REMARK                         _______ _______ _______ _____ _____    ______ ____
ROOT
ATOM      1  N   UNL     1      33.882  -9.948 -24.792  0.00  0.00    -0.276 N 
ATOM      2  N   UNL     1      33.901 -11.181 -24.258  0.00  0.00    -0.173 NA
ATOM      3  C   UNL     1      33.495  -9.590 -22.663  0.00  0.00    +0.036 A 
ATOM      4  C   UNL     1      33.665 -10.962 -22.959  0.00  0.00    +0.102 A 
ATOM      5  C   UNL     1      33.645  -8.948 -23.888  0.00  0.00    +0.075 A 
ATOM      6  C   UNL     1      33.237  -8.825 -21.513  0.00  0.00    +0.006 C 
ATOM      7  C   UNL     1      33.138  -7.434 -21.643  0.00  0.00    +0.033 C 
ATOM      8  C   UNL     1      33.550  -7.563 -24.039  0.00  0.00    +0.019 C 
ATOM      9  C   UNL     1      33.292  -6.816 -22.885  0.00  0.00    +0.004 C 
ATOM     10  H   UNL     1      34.028  -9.779 -25.751  0.00  0.00    +0.189 HD
ENDROOT
BRANCH   7  14
ATOM     11  N   UNL     1      33.421  -6.891 -19.259  0.00  0.00    -0.218 N 
ATOM     12  N   UNL     1      32.102  -5.573 -20.397  0.00  0.00    -0.206 NA
ATOM     13  N   UNL     1      33.015  -5.996 -18.344  0.00  0.00    -0.157 NA
ATOM     14  C   UNL     1      32.874  -6.629 -20.473  0.00  0.00    +0.149 C 
ATOM     15  C   UNL     1      32.220  -5.222 -19.083  0.00  0.00    +0.218 C 
ATOM     16  H   UNL     1      34.036  -7.637 -19.073  0.00  0.00    +0.176 HD
ENDBRANCH   7  14
BRANCH   4  18
ATOM     17  C   UNL     1      34.445 -14.178 -21.256  0.00  0.00    +0.138 C 
ATOM     18  C   UNL     1      33.604 -12.062 -22.038  0.00  0.00    +0.022 C 
ATOM     19  C   UNL     1      34.510 -13.118 -22.152  0.00  0.00    +0.038 C 
ATOM     20  C   UNL     1      33.486 -14.199 -20.249  0.00  0.00    +0.037 C 
ATOM     21  C   UNL     1      32.640 -12.076 -21.031  0.00  0.00    +0.002 C 
ATOM     22  C   UNL     1      32.581 -13.144 -20.136  0.00  0.00    +0.003 C 
BRANCH  17  23
ATOM     23  O   UNL     1      35.334 -15.215 -21.366  0.00  0.00    -0.478 OA
BRANCH  23  24
ATOM     24  C   UNL     1      35.302 -16.199 -20.341  0.00  0.00    +0.183 C 
BRANCH  24  25
ATOM     25  C   UNL     1      35.633 -17.552 -20.951  0.00  0.00    -0.029 C 
BRANCH  25  26
ATOM     26  N   UNL     1      35.450 -18.620 -19.968  0.00  0.00    +0.389 N 
ATOM     27  C   UNL     1      34.270 -19.429 -20.301  0.00  0.00    -0.077 C 
ATOM     28  C   UNL     1      36.659 -19.451 -19.883  0.00  0.00    -0.077 C 
ATOM     29  C   UNL     1      34.038 -20.521 -19.256  0.00  0.00    -0.023 C 
ATOM     30  C   UNL     1      36.504 -20.544 -18.824  0.00  0.00    -0.023 C 
ATOM     31  C   UNL     1      35.271 -21.401 -19.088  0.00  0.00    -0.004 C 
ATOM     32  H   UNL     1      35.294 -18.198 -19.052  0.00  0.00    -0.080 HD
ENDBRANCH  25  26
ENDBRANCH  24  25
ENDBRANCH  23  24
ENDBRANCH  17  23
ENDBRANCH   4  18
TORSDOF 6
ENDMDL
MODEL 5
REMARK VINA RESULT:     -10.9     12.084     15.027
REMARK  Name = 10430360
REMARK  6 active torsions:
REMARK  status: ('A' for Active; 'I' for Inactive)
REMARK    1  A    between atoms: C_4  and  C_18
REMARK    2  A    between atoms: C_7  and  C_14
REMARK    3  A    between atoms: C_17  and  O_23
REMARK    4  A    between atoms: O_23  and  C_24
REMARK    5  A    between atoms: C_24  and  C_25
REMARK    6  A    between atoms: C_25  and  N_26
REMARK                            x       y       z     vdW  Elec       q    Type
REMARK                         _______ _______ _______ _____ _____    ______ ____
ROOT
ATOM      1  N   UNL     1      33.524 -12.244 -26.449  0.00  0.00    -0.276 N 
ATOM      2  N   UNL     1      33.685 -10.932 -26.202  0.00  0.00    -0.173 NA
ATOM      3  C   UNL     1      34.109 -12.187 -24.336  0.00  0.00    +0.036 A 
ATOM      4  C   UNL     1      34.042 -10.898 -24.913  0.00  0.00    +0.102 A 
ATOM      5  C   UNL     1      33.764 -13.051 -25.369  0.00  0.00    +0.075 A 
ATOM      6  C   UNL     1      34.419 -12.717 -23.072  0.00  0.00    +0.006 C 
ATOM      7  C   UNL     1      34.369 -14.105 -22.897  0.00  0.00    +0.033 C 
ATOM      8  C   UNL     1      33.707 -14.437 -25.217  0.00  0.00    +0.019 C 
ATOM      9  C   UNL     1      34.018 -14.949 -23.952  0.00  0.00    +0.004 C 
ATOM     10  H   UNL     1      33.257 -12.592 -27.329  0.00  0.00    +0.189 HD
ENDROOT
BRANCH   7  14
ATOM     11  N   UNL     1      35.220 -15.908 -21.453  0.00  0.00    -0.218 N 
ATOM     12  N   UNL     1      34.507 -14.112 -20.434  0.00  0.00    -0.206 NA
ATOM     13  N   UNL     1      35.414 -16.192 -20.156  0.00  0.00    -0.157 NA
ATOM     14  C   UNL     1      34.682 -14.670 -21.606  0.00  0.00    +0.149 C 
ATOM     15  C   UNL     1      34.966 -15.075 -19.581  0.00  0.00    +0.218 C 
ATOM     16  H   UNL     1      35.441 -16.515 -22.195  0.00  0.00    +0.176 HD
ENDBRANCH   7  14
BRANCH   4  18
ATOM     17  C   UNL     1      33.523  -7.647 -23.177  0.00  0.00    +0.138 C 
ATOM     18  C   UNL     1      34.310  -9.643 -24.269  0.00  0.00    +0.022 C 
ATOM     19  C   UNL     1      33.255  -8.860 -23.799  0.00  0.00    +0.038 C 
ATOM     20  C   UNL     1      34.832  -7.205 -23.017  0.00  0.00    +0.037 C 
ATOM     21  C   UNL     1      35.625  -9.207 -24.113  0.00  0.00    +0.002 C 
ATOM     22  C   UNL     1      35.887  -7.988 -23.487  0.00  0.00    +0.003 C 
BRANCH  17  23
ATOM     23  O   UNL     1      32.488  -6.878 -22.714  0.00  0.00    -0.478 OA
BRANCH  23  24
ATOM     24  C   UNL     1      31.515  -7.530 -21.907  0.00  0.00    +0.183 C 
BRANCH  24  25
ATOM     25  C   UNL     1      32.132  -7.840 -20.553  0.00  0.00    -0.029 C 
BRANCH  25  26
ATOM     26  N   UNL     1      31.660  -9.133 -20.055  0.00  0.00    +0.389 N 
ATOM     27  C   UNL     1      32.128 -10.221 -20.925  0.00  0.00    -0.077 C 
ATOM     28  C   UNL     1      32.094  -9.338 -18.666  0.00  0.00    -0.077 C 
ATOM     29  C   UNL     1      31.603 -11.575 -20.445  0.00  0.00    -0.023 C 
ATOM     30  C   UNL     1      31.567 -10.663 -18.113  0.00  0.00    -0.023 C 
ATOM     31  C   UNL     1      31.985 -11.836 -18.992  0.00  0.00    -0.004 C 
ATOM     32  H   UNL     1      30.640  -9.136 -20.069  0.00  0.00    -0.080 HD
ENDBRANCH  25  26
ENDBRANCH  24  25
ENDBRANCH  23  24
ENDBRANCH  17  23
ENDBRANCH   4  18
TORSDOF 6
ENDMDL
MODEL 6
REMARK VINA RESULT:     -10.8     10.149     12.139
REMARK  Name = 10430360
REMARK  6 active torsions:
REMARK  status: ('A' for Active; 'I' for Inactive)
REMARK    1  A    between atoms: C_4  and  C_18
REMARK    2  A    between atoms: C_7  and  C_14
REMARK    3  A    between atoms: C_17  and  O_23
REMARK    4  A    between atoms: O_23  and  C_24
REMARK    5  A    between atoms: C_24  and  C_25
REMARK    6  A    between atoms: C_25  and  N_26
REMARK                            x       y       z     vdW  Elec       q    Type
REMARK                         _______ _______ _______ _____ _____    ______ ____
ROOT
ATOM      1  N   UNL     1      31.951 -12.474 -19.126  0.00  0.00    -0.276 N 
ATOM      2  N   UNL     1      32.520 -13.489 -19.799  0.00  0.00    -0.173 NA
ATOM      3  C   UNL     1      32.614 -11.541 -20.997  0.00  0.00    +0.036 A 
ATOM      4  C   UNL     1      32.925 -12.919 -20.940  0.00  0.00    +0.102 A 
ATOM      5  C   UNL     1      31.974 -11.278 -19.791  0.00  0.00    +0.075 A 
ATOM      6  C   UNL     1      32.798 -10.498 -21.920  0.00  0.00    +0.006 C 
ATOM      7  C   UNL     1      32.327  -9.221 -21.590  0.00  0.00    +0.033 C 
ATOM      8  C   UNL     1      31.496 -10.013 -19.442  0.00  0.00    +0.019 C 
ATOM      9  C   UNL     1      31.687  -8.985 -20.372  0.00  0.00    +0.004 C 
ATOM     10  H   UNL     1      31.551 -12.583 -18.234  0.00  0.00    +0.189 HD
ENDROOT
BRANCH   7  14
ATOM     11  N   UNL     1      31.465  -7.438 -23.052  0.00  0.00    -0.218 N 
ATOM     12  N   UNL     1      33.637  -7.671 -22.992  0.00  0.00    -0.206 NA
ATOM     13  N   UNL     1      31.900  -6.485 -23.891  0.00  0.00    -0.157 NA
ATOM     14  C   UNL     1      32.504  -8.135 -22.525  0.00  0.00    +0.149 C 
ATOM     15  C   UNL     1      33.219  -6.668 -23.820  0.00  0.00    +0.218 C 
ATOM     16  H   UNL     1      30.517  -7.608 -22.846  0.00  0.00    +0.176 HD
ENDBRANCH   7  14
BRANCH   4  18
ATOM     17  C   UNL     1      35.172 -15.420 -22.538  0.00  0.00    +0.138 C 
ATOM     18  C   UNL     1      33.596 -13.700 -21.941  0.00  0.00    +0.022 C 
ATOM     19  C   UNL     1      34.527 -14.668 -21.563  0.00  0.00    +0.038 C 
ATOM     20  C   UNL     1      34.900 -15.216 -23.886  0.00  0.00    +0.037 C 
ATOM     21  C   UNL     1      33.318 -13.490 -23.291  0.00  0.00    +0.002 C 
ATOM     22  C   UNL     1      33.969 -14.248 -24.264  0.00  0.00    +0.003 C 
BRANCH  17  23
ATOM     23  O   UNL     1      36.085 -16.372 -22.167  0.00  0.00    -0.478 OA
BRANCH  23  24
ATOM     24  C   UNL     1      35.572 -17.653 -21.822  0.00  0.00    +0.183 C 
BRANCH  24  25
ATOM     25  C   UNL     1      36.446 -18.251 -20.732  0.00  0.00    -0.029 C 
BRANCH  25  26
ATOM     26  N   UNL     1      35.645 -19.061 -19.814  0.00  0.00    +0.389 N 
ATOM     27  C   UNL     1      34.356 -19.410 -20.428  0.00  0.00    -0.077 C 
ATOM     28  C   UNL     1      36.385 -20.265 -19.411  0.00  0.00    -0.077 C 
ATOM     29  C   UNL     1      33.486 -20.216 -19.462  0.00  0.00    -0.023 C 
ATOM     30  C   UNL     1      35.581 -21.098 -18.412  0.00  0.00    -0.023 C 
ATOM     31  C   UNL     1      34.210 -21.464 -18.971  0.00  0.00    -0.004 C 
ATOM     32  H   UNL     1      35.456 -18.513 -18.975  0.00  0.00    -0.080 HD
ENDBRANCH  25  26
ENDBRANCH  24  25
ENDBRANCH  23  24
ENDBRANCH  17  23
ENDBRANCH   4  18
TORSDOF 6
ENDMDL
MODEL 7
REMARK VINA RESULT:     -10.7      9.929     12.495
REMARK  Name = 10430360
REMARK  6 active torsions:
REMARK  status: ('A' for Active; 'I' for Inactive)
REMARK    1  A    between atoms: C_4  and  C_18
REMARK    2  A    between atoms: C_7  and  C_14
REMARK    3  A    between atoms: C_17  and  O_23
REMARK    4  A    between atoms: O_23  and  C_24
REMARK    5  A    between atoms: C_24  and  C_25
REMARK    6  A    between atoms: C_25  and  N_26
REMARK                            x       y       z     vdW  Elec       q    Type
REMARK                         _______ _______ _______ _____ _____    ______ ____
ROOT
ATOM      1  N   UNL     1      33.573 -14.157 -25.576  0.00  0.00    -0.276 N 
ATOM      2  N   UNL     1      33.770 -14.955 -24.513  0.00  0.00    -0.173 NA
ATOM      3  C   UNL     1      34.146 -12.760 -23.986  0.00  0.00    +0.036 A 
ATOM      4  C   UNL     1      34.120 -14.102 -23.543  0.00  0.00    +0.102 A 
ATOM      5  C   UNL     1      33.783 -12.828 -25.327  0.00  0.00    +0.075 A 
ATOM      6  C   UNL     1      34.433 -11.509 -23.414  0.00  0.00    +0.006 C 
ATOM      7  C   UNL     1      34.342 -10.368 -24.220  0.00  0.00    +0.033 C 
ATOM      8  C   UNL     1      33.686 -11.703 -26.148  0.00  0.00    +0.019 C 
ATOM      9  C   UNL     1      33.975 -10.465 -25.563  0.00  0.00    +0.004 C 
ATOM     10  H   UNL     1      33.302 -14.500 -26.458  0.00  0.00    +0.189 HD
ENDROOT
BRANCH   7  14
ATOM     11  N   UNL     1      33.760  -8.401 -22.859  0.00  0.00    -0.218 N 
ATOM     12  N   UNL     1      35.729  -8.370 -23.804  0.00  0.00    -0.206 NA
ATOM     13  N   UNL     1      34.272  -7.225 -22.465  0.00  0.00    -0.157 NA
ATOM     14  C   UNL     1      34.634  -9.072 -23.653  0.00  0.00    +0.149 C 
ATOM     15  C   UNL     1      35.464  -7.254 -23.064  0.00  0.00    +0.218 C 
ATOM     16  H   UNL     1      32.869  -8.733 -22.604  0.00  0.00    +0.176 HD
ENDBRANCH   7  14
BRANCH   4  18
ATOM     17  C   UNL     1      35.459 -16.208 -20.781  0.00  0.00    +0.138 C 
ATOM     18  C   UNL     1      34.417 -14.587 -22.224  0.00  0.00    +0.022 C 
ATOM     19  C   UNL     1      35.176 -15.746 -22.061  0.00  0.00    +0.038 C 
ATOM     20  C   UNL     1      34.992 -15.528 -19.662  0.00  0.00    +0.037 C 
ATOM     21  C   UNL     1      33.945 -13.900 -21.107  0.00  0.00    +0.002 C 
ATOM     22  C   UNL     1      34.233 -14.369 -19.825  0.00  0.00    +0.003 C 
BRANCH  17  23
ATOM     23  O   UNL     1      36.206 -17.346 -20.620  0.00  0.00    -0.478 OA
BRANCH  23  24
ATOM     24  C   UNL     1      36.054 -18.358 -21.607  0.00  0.00    +0.183 C 
BRANCH  24  25
ATOM     25  C   UNL     1      34.712 -19.042 -21.402  0.00  0.00    -0.029 C 
BRANCH  25  26
ATOM     26  N   UNL     1      34.626 -19.617 -20.059  0.00  0.00    +0.389 N 
ATOM     27  C   UNL     1      33.341 -20.307 -19.876  0.00  0.00    -0.077 C 
ATOM     28  C   UNL     1      35.756 -20.523 -19.815  0.00  0.00    -0.077 C 
ATOM     29  C   UNL     1      33.216 -20.872 -18.461  0.00  0.00    -0.023 C 
ATOM     30  C   UNL     1      35.709 -21.095 -18.397  0.00  0.00    -0.023 C 
ATOM     31  C   UNL     1      34.382 -21.795 -18.125  0.00  0.00    -0.004 C 
ATOM     32  H   UNL     1      34.676 -18.861 -19.376  0.00  0.00    -0.080 HD
ENDBRANCH  25  26
ENDBRANCH  24  25
ENDBRANCH  23  24
ENDBRANCH  17  23
ENDBRANCH   4  18
TORSDOF 6
ENDMDL
MODEL 8
REMARK VINA RESULT:     -10.4     11.147     13.248
REMARK  Name = 10430360
REMARK  6 active torsions:
REMARK  status: ('A' for Active; 'I' for Inactive)
REMARK    1  A    between atoms: C_4  and  C_18
REMARK    2  A    between atoms: C_7  and  C_14
REMARK    3  A    between atoms: C_17  and  O_23
REMARK    4  A    between atoms: O_23  and  C_24
REMARK    5  A    between atoms: C_24  and  C_25
REMARK    6  A    between atoms: C_25  and  N_26
REMARK                            x       y       z     vdW  Elec       q    Type
REMARK                         _______ _______ _______ _____ _____    ______ ____
ROOT
ATOM      1  N   UNL     1      31.950 -12.871 -19.281  0.00  0.00    -0.276 N 
ATOM      2  N   UNL     1      32.381 -13.288 -20.484  0.00  0.00    -0.173 NA
ATOM      3  C   UNL     1      32.394 -11.004 -20.342  0.00  0.00    +0.036 A 
ATOM      4  C   UNL     1      32.652 -12.149 -21.131  0.00  0.00    +0.102 A 
ATOM      5  C   UNL     1      31.934 -11.511 -19.132  0.00  0.00    +0.075 A 
ATOM      6  C   UNL     1      32.496  -9.613 -20.511  0.00  0.00    +0.006 C 
ATOM      7  C   UNL     1      32.127  -8.781 -19.447  0.00  0.00    +0.033 C 
ATOM      8  C   UNL     1      31.561 -10.699 -18.059  0.00  0.00    +0.019 C 
ATOM      9  C   UNL     1      31.668  -9.316 -18.243  0.00  0.00    +0.004 C 
ATOM     10  H   UNL     1      31.670 -13.491 -18.570  0.00  0.00    +0.189 HD
ENDROOT
BRANCH   7  14
ATOM     11  N   UNL     1      32.541  -6.516 -18.575  0.00  0.00    -0.218 N 
ATOM     12  N   UNL     1      32.028  -6.654 -20.694  0.00  0.00    -0.206 NA
ATOM     13  N   UNL     1      32.562  -5.237 -18.980  0.00  0.00    -0.157 NA
ATOM     14  C   UNL     1      32.223  -7.348 -19.600  0.00  0.00    +0.149 C 
ATOM     15  C   UNL     1      32.245  -5.375 -20.269  0.00  0.00    +0.218 C 
ATOM     16  H   UNL     1      32.732  -6.812 -17.655  0.00  0.00    +0.176 HD
ENDBRANCH   7  14
BRANCH   4  18
ATOM     17  C   UNL     1      33.703 -13.416 -24.469  0.00  0.00    +0.138 C 
ATOM     18  C   UNL     1      33.150 -12.182 -22.477  0.00  0.00    +0.022 C 
ATOM     19  C   UNL     1      33.220 -13.393 -23.166  0.00  0.00    +0.038 C 
ATOM     20  C   UNL     1      34.116 -12.244 -25.093  0.00  0.00    +0.037 C 
ATOM     21  C   UNL     1      33.563 -11.002 -23.096  0.00  0.00    +0.002 C 
ATOM     22  C   UNL     1      34.046 -11.033 -24.405  0.00  0.00    +0.003 C 
BRANCH  17  23
ATOM     23  O   UNL     1      33.771 -14.605 -25.147  0.00  0.00    -0.478 OA
BRANCH  23  24
ATOM     24  C   UNL     1      34.891 -15.437 -24.871  0.00  0.00    +0.183 C 
BRANCH  24  25
ATOM     25  C   UNL     1      34.396 -16.847 -24.596  0.00  0.00    -0.029 C 
BRANCH  25  26
ATOM     26  N   UNL     1      34.517 -17.168 -23.174  0.00  0.00    +0.389 N 
ATOM     27  C   UNL     1      34.962 -18.558 -22.996  0.00  0.00    -0.077 C 
ATOM     28  C   UNL     1      35.431 -16.228 -22.511  0.00  0.00    -0.077 C 
ATOM     29  C   UNL     1      35.047 -18.924 -21.514  0.00  0.00    -0.023 C 
ATOM     30  C   UNL     1      35.531 -16.519 -21.013  0.00  0.00    -0.023 C 
ATOM     31  C   UNL     1      35.953 -17.962 -20.755  0.00  0.00    -0.004 C 
ATOM     32  H   UNL     1      33.599 -17.074 -22.738  0.00  0.00    -0.080 HD
ENDBRANCH  25  26
ENDBRANCH  24  25
ENDBRANCH  23  24
ENDBRANCH  17  23
ENDBRANCH   4  18
TORSDOF 6
ENDMDL
MODEL 9
REMARK VINA RESULT:     -10.3     11.837     14.369
REMARK  Name = 10430360
REMARK  6 active torsions:
REMARK  status: ('A' for Active; 'I' for Inactive)
REMARK    1  A    between atoms: C_4  and  C_18
REMARK    2  A    between atoms: C_7  and  C_14
REMARK    3  A    between atoms: C_17  and  O_23
REMARK    4  A    between atoms: O_23  and  C_24
REMARK    5  A    between atoms: C_24  and  C_25
REMARK    6  A    between atoms: C_25  and  N_26
REMARK                            x       y       z     vdW  Elec       q    Type
REMARK                         _______ _______ _______ _____ _____    ______ ____
ROOT
ATOM      1  N   UNL     1      33.752 -10.011 -24.459  0.00  0.00    -0.276 N 
ATOM      2  N   UNL     1      33.684 -11.216 -23.867  0.00  0.00    -0.173 NA
ATOM      3  C   UNL     1      33.348  -9.529 -22.358  0.00  0.00    +0.036 A 
ATOM      4  C   UNL     1      33.438 -10.921 -22.585  0.00  0.00    +0.102 A 
ATOM      5  C   UNL     1      33.559  -8.956 -23.607  0.00  0.00    +0.075 A 
ATOM      6  C   UNL     1      33.115  -8.695 -21.250  0.00  0.00    +0.006 C 
ATOM      7  C   UNL     1      33.104  -7.309 -21.447  0.00  0.00    +0.033 C 
ATOM      8  C   UNL     1      33.552  -7.577 -23.825  0.00  0.00    +0.019 C 
ATOM      9  C   UNL     1      33.319  -6.761 -22.713  0.00  0.00    +0.004 C 
ATOM     10  H   UNL     1      33.925  -9.898 -25.421  0.00  0.00    +0.189 HD
ENDROOT
BRANCH   7  14
ATOM     11  N   UNL     1      33.263  -6.735 -19.058  0.00  0.00    -0.218 N 
ATOM     12  N   UNL     1      32.264  -5.272 -20.337  0.00  0.00    -0.206 NA
ATOM     13  N   UNL     1      32.923  -5.759 -18.202  0.00  0.00    -0.157 NA
ATOM     14  C   UNL     1      32.868  -6.435 -20.322  0.00  0.00    +0.149 C 
ATOM     15  C   UNL     1      32.322  -4.898 -19.024  0.00  0.00    +0.218 C 
ATOM     16  H   UNL     1      33.738  -7.559 -18.803  0.00  0.00    +0.176 HD
ENDBRANCH   7  14
BRANCH   4  18
ATOM     17  C   UNL     1      34.187 -13.887 -20.464  0.00  0.00    +0.138 C 
ATOM     18  C   UNL     1      33.293 -11.971 -21.616  0.00  0.00    +0.022 C 
ATOM     19  C   UNL     1      34.335 -12.874 -21.405  0.00  0.00    +0.038 C 
ATOM     20  C   UNL     1      33.011 -14.008 -19.732  0.00  0.00    +0.037 C 
ATOM     21  C   UNL     1      32.111 -12.086 -20.885  0.00  0.00    +0.002 C 
ATOM     22  C   UNL     1      31.970 -13.105 -19.943  0.00  0.00    +0.003 C 
BRANCH  17  23
ATOM     23  O   UNL     1      35.210 -14.774 -20.256  0.00  0.00    -0.478 OA
BRANCH  23  24
ATOM     24  C   UNL     1      35.014 -16.101 -20.728  0.00  0.00    +0.183 C 
BRANCH  24  25
ATOM     25  C   UNL     1      36.161 -16.463 -21.658  0.00  0.00    -0.029 C 
BRANCH  25  26
ATOM     26  N   UNL     1      35.654 -16.859 -22.972  0.00  0.00    +0.389 N 
ATOM     27  C   UNL     1      34.859 -18.091 -22.867  0.00  0.00    -0.077 C 
ATOM     28  C   UNL     1      34.871 -15.770 -23.570  0.00  0.00    -0.077 C 
ATOM     29  C   UNL     1      34.363 -18.545 -24.240  0.00  0.00    -0.023 C 
ATOM     30  C   UNL     1      34.375 -16.149 -24.966  0.00  0.00    -0.023 C 
ATOM     31  C   UNL     1      33.571 -17.444 -24.937  0.00  0.00    -0.004 C 
ATOM     32  H   UNL     1      36.448 -17.048 -23.585  0.00  0.00    -0.080 HD
ENDBRANCH  25  26
ENDBRANCH  24  25
ENDBRANCH  23  24
ENDBRANCH  17  23
ENDBRANCH   4  18
TORSDOF 6
ENDMDL
