MODEL 1
REMARK VINA RESULT:     -11.9      0.000      0.000
REMARK  Name = 57336276
REMARK  5 active torsions:
REMARK  status: ('A' for Active; 'I' for Inactive)
REMARK    1  A    between atoms: C_2  and  C_16
REMARK    2  A    between atoms: C_6  and  O_17
REMARK    3  A    between atoms: O_17  and  C_18
REMARK    4  A    between atoms: C_18  and  C_21
REMARK    5  A    between atoms: C_22  and  C_26
REMARK                            x       y       z     vdW  Elec       q    Type
REMARK                         _______ _______ _______ _____ _____    ______ ____
ROOT
ATOM      1  N   UNL     1      34.552 -12.485 -22.767  0.00  0.00    -0.210 NA
ATOM      2  C   UNL     1      33.051 -10.628 -22.385  0.00  0.00    +0.073 C 
ATOM      3  C   UNL     1      32.301 -11.407 -21.511  0.00  0.00    +0.011 C 
ATOM      4  C   UNL     1      34.159 -11.209 -22.982  0.00  0.00    +0.107 C 
ATOM      5  C   UNL     1      32.675 -12.723 -21.264  0.00  0.00    +0.058 C 
ATOM      6  C   UNL     1      33.798 -13.210 -21.911  0.00  0.00    +0.225 C 
ENDROOT
BRANCH   2  16
ATOM      7  S   UNL     1      32.541  -6.550 -19.288  0.00  0.00    -0.007 S 
ATOM      8  O   UNL     1      33.686  -5.978 -18.606  0.00  0.00    -0.173 OA
ATOM      9  O   UNL     1      31.190  -6.219 -18.876  0.00  0.00    -0.173 OA
ATOM     10  O   UNL     1      32.930  -8.830 -23.801  0.00  0.00    -0.270 OA
ATOM     11  N   UNL     1      32.098  -8.490 -21.640  0.00  0.00    -0.272 N 
ATOM     12  C   UNL     1      32.700  -6.184 -21.028  0.00  0.00    +0.172 C 
ATOM     13  C   UNL     1      32.716  -8.326 -19.258  0.00  0.00    +0.172 C 
ATOM     14  C   UNL     1      31.793  -7.074 -21.865  0.00  0.00    +0.119 C 
ATOM     15  C   UNL     1      31.807  -8.986 -20.286  0.00  0.00    +0.119 C 
ATOM     16  C   UNL     1      32.683  -9.236 -22.666  0.00  0.00    +0.251 C 
ENDBRANCH   2  16
BRANCH   6  17
ATOM     17  O   UNL     1      34.187 -14.504 -21.684  0.00  0.00    -0.455 OA
BRANCH  17  18
ATOM     18  C   UNL     1      35.303 -14.978 -22.429  0.00  0.00    +0.238 C 
BRANCH  18  21
ATOM     19  O   UNL     1      34.023 -17.201 -25.079  0.00  0.00    -0.358 OA
ATOM     20  N   UNL     1      34.411 -18.163 -24.154  0.00  0.00    -0.078 NA
ATOM     21  C   UNL     1      34.852 -16.084 -23.337  0.00  0.00    +0.075 A 
ATOM     22  C   UNL     1      34.903 -17.472 -23.122  0.00  0.00    +0.122 A 
ATOM     23  C   UNL     1      34.290 -15.967 -24.581  0.00  0.00    +0.154 A 
ATOM     24  C   UNL     1      33.939 -14.827 -25.439  0.00  0.00    +0.075 C 
BRANCH  22  26
ATOM     25  F   UNL     1      36.853 -20.129 -18.635  0.00  0.00    -0.204 F 
ATOM     26  C   UNL     1      35.407 -18.158 -21.963  0.00  0.00    +0.021 C 
ATOM     27  C   UNL     1      34.577 -19.021 -21.247  0.00  0.00    +0.004 C 
ATOM     28  C   UNL     1      36.726 -17.961 -21.553  0.00  0.00    +0.004 C 
ATOM     29  C   UNL     1      35.065 -19.687 -20.123  0.00  0.00    +0.030 C 
ATOM     30  C   UNL     1      37.214 -18.627 -20.428  0.00  0.00    +0.030 C 
ATOM     31  C   UNL     1      36.384 -19.489 -19.714  0.00  0.00    +0.140 C 
ENDBRANCH  22  26
ENDBRANCH  18  21
ENDBRANCH  17  18
ENDBRANCH   6  17
TORSDOF 5
ENDMDL
MODEL 2
REMARK VINA RESULT:     -11.3      5.811      9.606
REMARK  Name = 57336276
REMARK  5 active torsions:
REMARK  status: ('A' for Active; 'I' for Inactive)
REMARK    1  A    between atoms: C_2  and  C_16
REMARK    2  A    between atoms: C_6  and  O_17
REMARK    3  A    between atoms: O_17  and  C_18
REMARK    4  A    between atoms: C_18  and  C_21
REMARK    5  A    between atoms: C_22  and  C_26
REMARK                            x       y       z     vdW  Elec       q    Type
REMARK                         _______ _______ _______ _____ _____    ______ ____
ROOT
ATOM      1  N   UNL     1      36.451 -20.068 -19.169  0.00  0.00    -0.210 NA
ATOM      2  C   UNL     1      35.327 -18.150 -20.118  0.00  0.00    +0.073 C 
ATOM      3  C   UNL     1      34.109 -18.815 -20.037  0.00  0.00    +0.011 C 
ATOM      4  C   UNL     1      36.460 -18.814 -19.674  0.00  0.00    +0.107 C 
ATOM      5  C   UNL     1      34.061 -20.106 -19.522  0.00  0.00    +0.058 C 
ATOM      6  C   UNL     1      35.250 -20.683 -19.106  0.00  0.00    +0.225 C 
ENDROOT
BRANCH   2  16
ATOM      7  S   UNL     1      34.084 -16.227 -24.727  0.00  0.00    -0.007 S 
ATOM      8  O   UNL     1      32.706 -16.184 -25.175  0.00  0.00    -0.173 OA
ATOM      9  O   UNL     1      35.176 -16.047 -25.665  0.00  0.00    -0.173 OA
ATOM     10  O   UNL     1      35.360 -15.875 -19.832  0.00  0.00    -0.270 OA
ATOM     11  N   UNL     1      35.535 -16.632 -22.039  0.00  0.00    -0.272 N 
ATOM     12  C   UNL     1      34.273 -15.031 -23.416  0.00  0.00    +0.172 C 
ATOM     13  C   UNL     1      34.335 -17.771 -23.868  0.00  0.00    +0.172 C 
ATOM     14  C   UNL     1      35.540 -15.284 -22.614  0.00  0.00    +0.119 C 
ATOM     15  C   UNL     1      35.596 -17.730 -23.017  0.00  0.00    +0.119 C 
ATOM     16  C   UNL     1      35.412 -16.787 -20.656  0.00  0.00    +0.251 C 
ENDBRANCH   2  16
BRANCH   6  17
ATOM     17  O   UNL     1      35.228 -21.954 -18.595  0.00  0.00    -0.455 OA
BRANCH  17  18
ATOM     18  C   UNL     1      34.143 -22.280 -17.734  0.00  0.00    +0.238 C 
BRANCH  18  21
ATOM     19  O   UNL     1      35.944 -22.201 -14.516  0.00  0.00    -0.358 OA
ATOM     20  N   UNL     1      34.693 -22.596 -14.058  0.00  0.00    -0.078 NA
ATOM     21  C   UNL     1      34.638 -22.325 -16.318  0.00  0.00    +0.075 A 
ATOM     22  C   UNL     1      33.929 -22.664 -15.152  0.00  0.00    +0.122 A 
ATOM     23  C   UNL     1      35.899 -22.044 -15.863  0.00  0.00    +0.154 A 
ATOM     24  C   UNL     1      37.148 -21.625 -16.514  0.00  0.00    +0.075 C 
BRANCH  22  26
ATOM     25  F   UNL     1      28.579 -24.154 -14.756  0.00  0.00    -0.204 F 
ATOM     26  C   UNL     1      32.547 -23.049 -15.050  0.00  0.00    +0.021 C 
ATOM     27  C   UNL     1      31.586 -22.413 -15.835  0.00  0.00    +0.004 C 
ATOM     28  C   UNL     1      32.167 -24.059 -14.165  0.00  0.00    +0.004 C 
ATOM     29  C   UNL     1      30.246 -22.787 -15.737  0.00  0.00    +0.030 C 
ATOM     30  C   UNL     1      30.826 -24.432 -14.066  0.00  0.00    +0.030 C 
ATOM     31  C   UNL     1      29.866 -23.796 -14.851  0.00  0.00    +0.140 C 
ENDBRANCH  22  26
ENDBRANCH  18  21
ENDBRANCH  17  18
ENDBRANCH   6  17
TORSDOF 5
ENDMDL
MODEL 3
REMARK VINA RESULT:     -11.0      5.998      9.843
REMARK  Name = 57336276
REMARK  5 active torsions:
REMARK  status: ('A' for Active; 'I' for Inactive)
REMARK    1  A    between atoms: C_2  and  C_16
REMARK    2  A    between atoms: C_6  and  O_17
REMARK    3  A    between atoms: O_17  and  C_18
REMARK    4  A    between atoms: C_18  and  C_21
REMARK    5  A    between atoms: C_22  and  C_26
REMARK                            x       y       z     vdW  Elec       q    Type
REMARK                         _______ _______ _______ _____ _____    ______ ____
ROOT
ATOM      1  N   UNL     1      36.362 -20.237 -18.835  0.00  0.00    -0.210 NA
ATOM      2  C   UNL     1      35.330 -18.420 -20.051  0.00  0.00    +0.073 C 
ATOM      3  C   UNL     1      34.106 -19.077 -20.009  0.00  0.00    +0.011 C 
ATOM      4  C   UNL     1      36.419 -19.037 -19.454  0.00  0.00    +0.107 C 
ATOM      5  C   UNL     1      34.008 -20.314 -19.380  0.00  0.00    +0.058 C 
ATOM      6  C   UNL     1      35.156 -20.846 -18.814  0.00  0.00    +0.225 C 
ENDROOT
BRANCH   2  16
ATOM      7  S   UNL     1      34.015 -16.824 -24.764  0.00  0.00    -0.007 S 
ATOM      8  O   UNL     1      32.625 -16.742 -25.167  0.00  0.00    -0.173 OA
ATOM      9  O   UNL     1      35.078 -16.785 -25.750  0.00  0.00    -0.173 OA
ATOM     10  O   UNL     1      35.494 -16.135 -19.963  0.00  0.00    -0.270 OA
ATOM     11  N   UNL     1      35.544 -17.083 -22.101  0.00  0.00    -0.272 N 
ATOM     12  C   UNL     1      34.316 -15.534 -23.567  0.00  0.00    +0.172 C 
ATOM     13  C   UNL     1      34.216 -18.302 -23.784  0.00  0.00    +0.172 C 
ATOM     14  C   UNL     1      35.599 -15.790 -22.789  0.00  0.00    +0.119 C 
ATOM     15  C   UNL     1      35.509 -18.260 -22.982  0.00  0.00    +0.119 C 
ATOM     16  C   UNL     1      35.466 -17.114 -20.707  0.00  0.00    +0.251 C 
ENDBRANCH   2  16
BRANCH   6  17
ATOM     17  O   UNL     1      35.085 -22.063 -18.188  0.00  0.00    -0.455 OA
BRANCH  17  18
ATOM     18  C   UNL     1      35.639 -22.144 -16.881  0.00  0.00    +0.238 C 
BRANCH  18  21
ATOM     19  O   UNL     1      32.716 -23.392 -15.008  0.00  0.00    -0.358 OA
ATOM     20  N   UNL     1      33.726 -23.980 -14.257  0.00  0.00    -0.078 NA
ATOM     21  C   UNL     1      34.634 -22.774 -15.961  0.00  0.00    +0.075 A 
ATOM     22  C   UNL     1      34.862 -23.597 -14.844  0.00  0.00    +0.122 A 
ATOM     23  C   UNL     1      33.269 -22.676 -16.020  0.00  0.00    +0.154 A 
ATOM     24  C   UNL     1      32.334 -21.984 -16.918  0.00  0.00    +0.075 C 
BRANCH  22  26
ATOM     25  F   UNL     1      39.772 -25.270 -12.821  0.00  0.00    -0.204 F 
ATOM     26  C   UNL     1      36.131 -24.029 -14.322  0.00  0.00    +0.021 C 
ATOM     27  C   UNL     1      36.644 -25.277 -14.677  0.00  0.00    +0.004 C 
ATOM     28  C   UNL     1      36.850 -23.201 -13.459  0.00  0.00    +0.004 C 
ATOM     29  C   UNL     1      37.874 -25.695 -14.171  0.00  0.00    +0.030 C 
ATOM     30  C   UNL     1      38.080 -23.620 -12.952  0.00  0.00    +0.030 C 
ATOM     31  C   UNL     1      38.591 -24.867 -13.308  0.00  0.00    +0.140 C 
ENDBRANCH  22  26
ENDBRANCH  18  21
ENDBRANCH  17  18
ENDBRANCH   6  17
TORSDOF 5
ENDMDL
MODEL 4
REMARK VINA RESULT:     -10.8      4.386     10.325
REMARK  Name = 57336276
REMARK  5 active torsions:
REMARK  status: ('A' for Active; 'I' for Inactive)
REMARK    1  A    between atoms: C_2  and  C_16
REMARK    2  A    between atoms: C_6  and  O_17
REMARK    3  A    between atoms: O_17  and  C_18
REMARK    4  A    between atoms: C_18  and  C_21
REMARK    5  A    between atoms: C_22  and  C_26
REMARK                            x       y       z     vdW  Elec       q    Type
REMARK                         _______ _______ _______ _____ _____    ______ ____
ROOT
ATOM      1  N   UNL     1      33.890 -11.070 -23.974  0.00  0.00    -0.210 NA
ATOM      2  C   UNL     1      33.672 -13.459 -23.672  0.00  0.00    +0.073 C 
ATOM      3  C   UNL     1      33.061 -13.253 -22.440  0.00  0.00    +0.011 C 
ATOM      4  C   UNL     1      34.064 -12.343 -24.395  0.00  0.00    +0.107 C 
ATOM      5  C   UNL     1      32.864 -11.958 -21.974  0.00  0.00    +0.058 C 
ATOM      6  C   UNL     1      33.293 -10.910 -22.772  0.00  0.00    +0.225 C 
ENDROOT
BRANCH   2  16
ATOM      7  S   UNL     1      35.461 -17.720 -21.408  0.00  0.00    -0.007 S 
ATOM      8  O   UNL     1      34.713 -18.381 -20.357  0.00  0.00    -0.173 OA
ATOM      9  O   UNL     1      36.861 -18.028 -21.630  0.00  0.00    -0.173 OA
ATOM     10  O   UNL     1      33.194 -15.149 -25.145  0.00  0.00    -0.270 OA
ATOM     11  N   UNL     1      34.861 -15.606 -23.568  0.00  0.00    -0.272 N 
ATOM     12  C   UNL     1      34.585 -17.970 -22.944  0.00  0.00    +0.172 C 
ATOM     13  C   UNL     1      35.306 -15.958 -21.168  0.00  0.00    +0.172 C 
ATOM     14  C   UNL     1      35.049 -16.990 -24.011  0.00  0.00    +0.119 C 
ATOM     15  C   UNL     1      35.693 -15.195 -22.427  0.00  0.00    +0.119 C 
ATOM     16  C   UNL     1      33.894 -14.813 -24.191  0.00  0.00    +0.251 C 
ENDBRANCH   2  16
BRANCH   6  17
ATOM     17  O   UNL     1      33.110  -9.624 -22.335  0.00  0.00    -0.455 OA
BRANCH  17  18
ATOM     18  C   UNL     1      31.856  -9.325 -21.733  0.00  0.00    +0.238 C 
BRANCH  18  21
ATOM     19  O   UNL     1      32.409  -8.253 -18.247  0.00  0.00    -0.358 OA
ATOM     20  N   UNL     1      32.463  -7.012 -18.870  0.00  0.00    -0.078 NA
ATOM     21  C   UNL     1      32.094  -8.638 -20.420  0.00  0.00    +0.075 A 
ATOM     22  C   UNL     1      32.272  -7.267 -20.167  0.00  0.00    +0.122 A 
ATOM     23  C   UNL     1      32.188  -9.213 -19.180  0.00  0.00    +0.154 A 
ATOM     24  C   UNL     1      32.102 -10.595 -18.688  0.00  0.00    +0.075 C 
BRANCH  22  26
ATOM     25  F   UNL     1      32.252  -3.113 -23.874  0.00  0.00    -0.204 F 
ATOM     26  C   UNL     1      32.267  -6.194 -21.125  0.00  0.00    +0.021 C 
ATOM     27  C   UNL     1      32.656  -6.433 -22.443  0.00  0.00    +0.004 C 
ATOM     28  C   UNL     1      31.873  -4.913 -20.736  0.00  0.00    +0.004 C 
ATOM     29  C   UNL     1      32.650  -5.392 -23.372  0.00  0.00    +0.030 C 
ATOM     30  C   UNL     1      31.868  -3.872 -21.665  0.00  0.00    +0.030 C 
ATOM     31  C   UNL     1      32.257  -4.112 -22.982  0.00  0.00    +0.140 C 
ENDBRANCH  22  26
ENDBRANCH  18  21
ENDBRANCH  17  18
ENDBRANCH   6  17
TORSDOF 5
ENDMDL
MODEL 5
REMARK VINA RESULT:     -10.7      4.290     10.205
REMARK  Name = 57336276
REMARK  5 active torsions:
REMARK  status: ('A' for Active; 'I' for Inactive)
REMARK    1  A    between atoms: C_2  and  C_16
REMARK    2  A    between atoms: C_6  and  O_17
REMARK    3  A    between atoms: O_17  and  C_18
REMARK    4  A    between atoms: C_18  and  C_21
REMARK    5  A    between atoms: C_22  and  C_26
REMARK                            x       y       z     vdW  Elec       q    Type
REMARK                         _______ _______ _______ _____ _____    ______ ____
ROOT
ATOM      1  N   UNL     1      32.842 -12.128 -22.042  0.00  0.00    -0.210 NA
ATOM      2  C   UNL     1      33.680 -13.595 -23.771  0.00  0.00    +0.073 C 
ATOM      3  C   UNL     1      34.138 -12.497 -24.490  0.00  0.00    +0.011 C 
ATOM      4  C   UNL     1      33.044 -13.360 -22.562  0.00  0.00    +0.107 C 
ATOM      5  C   UNL     1      33.949 -11.214 -23.986  0.00  0.00    +0.058 C 
ATOM      6  C   UNL     1      33.301 -11.086 -22.769  0.00  0.00    +0.225 C 
ENDROOT
BRANCH   2  16
ATOM      7  S   UNL     1      35.458 -17.855 -21.494  0.00  0.00    -0.007 S 
ATOM      8  O   UNL     1      34.728 -18.487 -20.412  0.00  0.00    -0.173 OA
ATOM      9  O   UNL     1      36.846 -18.190 -21.750  0.00  0.00    -0.173 OA
ATOM     10  O   UNL     1      33.132 -15.298 -25.205  0.00  0.00    -0.270 OA
ATOM     11  N   UNL     1      34.834 -15.762 -23.668  0.00  0.00    -0.272 N 
ATOM     12  C   UNL     1      34.535 -18.111 -23.001  0.00  0.00    +0.172 C 
ATOM     13  C   UNL     1      35.341 -16.087 -21.277  0.00  0.00    +0.172 C 
ATOM     14  C   UNL     1      34.986 -17.155 -24.095  0.00  0.00    +0.119 C 
ATOM     15  C   UNL     1      35.705 -15.349 -22.557  0.00  0.00    +0.119 C 
ATOM     16  C   UNL     1      33.864 -14.961 -24.276  0.00  0.00    +0.251 C 
ENDBRANCH   2  16
BRANCH   6  17
ATOM     17  O   UNL     1      33.103  -9.832 -22.251  0.00  0.00    -0.455 OA
BRANCH  17  18
ATOM     18  C   UNL     1      31.951  -9.650 -21.437  0.00  0.00    +0.238 C 
BRANCH  18  21
ATOM     19  O   UNL     1      32.510  -7.421 -18.551  0.00  0.00    -0.358 OA
ATOM     20  N   UNL     1      32.687  -6.501 -19.577  0.00  0.00    -0.078 NA
ATOM     21  C   UNL     1      32.216  -8.551 -20.451  0.00  0.00    +0.075 A 
ATOM     22  C   UNL     1      32.507  -7.199 -20.702  0.00  0.00    +0.122 A 
ATOM     23  C   UNL     1      32.229  -8.638 -19.084  0.00  0.00    +0.154 A 
ATOM     24  C   UNL     1      32.011  -9.734 -18.130  0.00  0.00    +0.075 C 
BRANCH  22  26
ATOM     25  F   UNL     1      32.938  -4.698 -25.658  0.00  0.00    -0.204 F 
ATOM     26  C   UNL     1      32.619  -6.552 -21.983  0.00  0.00    +0.021 C 
ATOM     27  C   UNL     1      31.698  -5.572 -22.352  0.00  0.00    +0.004 C 
ATOM     28  C   UNL     1      33.648  -6.906 -22.856  0.00  0.00    +0.004 C 
ATOM     29  C   UNL     1      31.806  -4.945 -23.593  0.00  0.00    +0.030 C 
ATOM     30  C   UNL     1      33.755  -6.279 -24.098  0.00  0.00    +0.030 C 
ATOM     31  C   UNL     1      32.835  -5.299 -24.466  0.00  0.00    +0.140 C 
ENDBRANCH  22  26
ENDBRANCH  18  21
ENDBRANCH  17  18
ENDBRANCH   6  17
TORSDOF 5
ENDMDL
MODEL 6
REMARK VINA RESULT:     -10.6      3.485      8.930
REMARK  Name = 57336276
REMARK  5 active torsions:
REMARK  status: ('A' for Active; 'I' for Inactive)
REMARK    1  A    between atoms: C_2  and  C_16
REMARK    2  A    between atoms: C_6  and  O_17
REMARK    3  A    between atoms: O_17  and  C_18
REMARK    4  A    between atoms: C_18  and  C_21
REMARK    5  A    between atoms: C_22  and  C_26
REMARK                            x       y       z     vdW  Elec       q    Type
REMARK                         _______ _______ _______ _____ _____    ______ ____
ROOT
ATOM      1  N   UNL     1      33.778 -11.550 -25.540  0.00  0.00    -0.210 NA
ATOM      2  C   UNL     1      33.804 -13.756 -24.552  0.00  0.00    +0.073 C 
ATOM      3  C   UNL     1      33.672 -13.198 -23.285  0.00  0.00    +0.011 C 
ATOM      4  C   UNL     1      33.852 -12.896 -25.638  0.00  0.00    +0.107 C 
ATOM      5  C   UNL     1      33.592 -11.816 -23.145  0.00  0.00    +0.058 C 
ATOM      6  C   UNL     1      33.650 -11.044 -24.294  0.00  0.00    +0.225 C 
ENDROOT
BRANCH   2  16
ATOM      7  S   UNL     1      35.604 -17.469 -21.475  0.00  0.00    -0.007 S 
ATOM      8  O   UNL     1      34.946 -17.790 -20.224  0.00  0.00    -0.173 OA
ATOM      9  O   UNL     1      36.950 -17.934 -21.748  0.00  0.00    -0.173 OA
ATOM     10  O   UNL     1      33.069 -15.710 -25.500  0.00  0.00    -0.270 OA
ATOM     11  N   UNL     1      34.878 -15.903 -24.028  0.00  0.00    -0.272 N 
ATOM     12  C   UNL     1      34.546 -18.013 -22.806  0.00  0.00    +0.172 C 
ATOM     13  C   UNL     1      35.575 -15.695 -21.672  0.00  0.00    +0.172 C 
ATOM     14  C   UNL     1      34.938 -17.364 -24.125  0.00  0.00    +0.119 C 
ATOM     15  C   UNL     1      35.856 -15.295 -23.113  0.00  0.00    +0.119 C 
ATOM     16  C   UNL     1      33.891 -15.210 -24.733  0.00  0.00    +0.251 C 
ENDBRANCH   2  16
BRANCH   6  17
ATOM     17  O   UNL     1      33.573  -9.680 -24.182  0.00  0.00    -0.455 OA
BRANCH  17  18
ATOM     18  C   UNL     1      34.061  -9.109 -22.974  0.00  0.00    +0.238 C 
BRANCH  18  21
ATOM     19  O   UNL     1      32.103  -6.012 -22.542  0.00  0.00    -0.358 OA
ATOM     20  N   UNL     1      31.668  -6.706 -21.420  0.00  0.00    -0.078 NA
ATOM     21  C   UNL     1      33.169  -7.971 -22.574  0.00  0.00    +0.075 A 
ATOM     22  C   UNL     1      32.318  -7.872 -21.460  0.00  0.00    +0.122 A 
ATOM     23  C   UNL     1      32.997  -6.775 -23.221  0.00  0.00    +0.154 A 
ATOM     24  C   UNL     1      33.562  -6.187 -24.444  0.00  0.00    +0.075 C 
BRANCH  22  26
ATOM     25  F   UNL     1      31.497 -11.686 -17.487  0.00  0.00    -0.204 F 
ATOM     26  C   UNL     1      32.106  -8.858 -20.433  0.00  0.00    +0.021 C 
ATOM     27  C   UNL     1      32.526  -8.606 -19.127  0.00  0.00    +0.004 C 
ATOM     28  C   UNL     1      31.480 -10.066 -20.744  0.00  0.00    +0.004 C 
ATOM     29  C   UNL     1      32.319  -9.561 -18.132  0.00  0.00    +0.030 C 
ATOM     30  C   UNL     1      31.275 -11.021 -19.748  0.00  0.00    +0.030 C 
ATOM     31  C   UNL     1      31.695 -10.769 -18.443  0.00  0.00    +0.140 C 
ENDBRANCH  22  26
ENDBRANCH  18  21
ENDBRANCH  17  18
ENDBRANCH   6  17
TORSDOF 5
ENDMDL
MODEL 7
REMARK VINA RESULT:     -10.6      1.531      2.474
REMARK  Name = 57336276
REMARK  5 active torsions:
REMARK  status: ('A' for Active; 'I' for Inactive)
REMARK    1  A    between atoms: C_2  and  C_16
REMARK    2  A    between atoms: C_6  and  O_17
REMARK    3  A    between atoms: O_17  and  C_18
REMARK    4  A    between atoms: C_18  and  C_21
REMARK    5  A    between atoms: C_22  and  C_26
REMARK                            x       y       z     vdW  Elec       q    Type
REMARK                         _______ _______ _______ _____ _____    ______ ____
ROOT
ATOM      1  N   UNL     1      33.542 -12.403 -22.165  0.00  0.00    -0.210 NA
ATOM      2  C   UNL     1      32.493 -10.828 -20.661  0.00  0.00    +0.073 C 
ATOM      3  C   UNL     1      32.354 -11.825 -19.703  0.00  0.00    +0.011 C 
ATOM      4  C   UNL     1      33.089 -11.165 -21.867  0.00  0.00    +0.107 C 
ATOM      5  C   UNL     1      32.809 -13.111 -19.974  0.00  0.00    +0.058 C 
ATOM      6  C   UNL     1      33.390 -13.346 -21.209  0.00  0.00    +0.225 C 
ENDROOT
BRANCH   2  16
ATOM      7  S   UNL     1      32.167  -6.711 -23.733  0.00  0.00    -0.007 S 
ATOM      8  O   UNL     1      31.249  -6.683 -24.855  0.00  0.00    -0.173 OA
ATOM      9  O   UNL     1      33.244  -5.744 -23.629  0.00  0.00    -0.173 OA
ATOM     10  O   UNL     1      31.201  -9.331 -19.500  0.00  0.00    -0.270 OA
ATOM     11  N   UNL     1      32.530  -8.432 -21.202  0.00  0.00    -0.272 N 
ATOM     12  C   UNL     1      31.203  -6.635 -22.233  0.00  0.00    +0.172 C 
ATOM     13  C   UNL     1      32.875  -8.347 -23.643  0.00  0.00    +0.172 C 
ATOM     14  C   UNL     1      32.021  -7.069 -21.026  0.00  0.00    +0.119 C 
ATOM     15  C   UNL     1      33.514  -8.597 -22.284  0.00  0.00    +0.119 C 
ATOM     16  C   UNL     1      32.023  -9.461 -20.406  0.00  0.00    +0.251 C 
ENDBRANCH   2  16
BRANCH   6  17
ATOM     17  O   UNL     1      33.846 -14.605 -21.500  0.00  0.00    -0.455 OA
BRANCH  17  18
ATOM     18  C   UNL     1      34.978 -14.694 -22.356  0.00  0.00    +0.238 C 
BRANCH  18  21
ATOM     19  O   UNL     1      34.166 -16.768 -25.297  0.00  0.00    -0.358 OA
ATOM     20  N   UNL     1      34.580 -17.770 -24.428  0.00  0.00    -0.078 NA
ATOM     21  C   UNL     1      34.725 -15.746 -23.396  0.00  0.00    +0.075 A 
ATOM     22  C   UNL     1      34.909 -17.136 -23.300  0.00  0.00    +0.122 A 
ATOM     23  C   UNL     1      34.256 -15.567 -24.670  0.00  0.00    +0.154 A 
ATOM     24  C   UNL     1      33.853 -14.390 -25.452  0.00  0.00    +0.075 C 
BRANCH  22  26
ATOM     25  F   UNL     1      36.771 -20.007 -18.907  0.00  0.00    -0.204 F 
ATOM     26  C   UNL     1      35.390 -17.878 -22.164  0.00  0.00    +0.021 C 
ATOM     27  C   UNL     1      36.703 -17.707 -21.724  0.00  0.00    +0.004 C 
ATOM     28  C   UNL     1      34.544 -18.769 -21.503  0.00  0.00    +0.004 C 
ATOM     29  C   UNL     1      37.169 -18.426 -20.624  0.00  0.00    +0.030 C 
ATOM     30  C   UNL     1      35.011 -19.488 -20.402  0.00  0.00    +0.030 C 
ATOM     31  C   UNL     1      36.323 -19.317 -19.963  0.00  0.00    +0.140 C 
ENDBRANCH  22  26
ENDBRANCH  18  21
ENDBRANCH  17  18
ENDBRANCH   6  17
TORSDOF 5
ENDMDL
MODEL 8
REMARK VINA RESULT:     -10.3      1.477      2.100
REMARK  Name = 57336276
REMARK  5 active torsions:
REMARK  status: ('A' for Active; 'I' for Inactive)
REMARK    1  A    between atoms: C_2  and  C_16
REMARK    2  A    between atoms: C_6  and  O_17
REMARK    3  A    between atoms: O_17  and  C_18
REMARK    4  A    between atoms: C_18  and  C_21
REMARK    5  A    between atoms: C_22  and  C_26
REMARK                            x       y       z     vdW  Elec       q    Type
REMARK                         _______ _______ _______ _____ _____    ______ ____
ROOT
ATOM      1  N   UNL     1      32.738 -13.911 -20.285  0.00  0.00    -0.210 NA
ATOM      2  C   UNL     1      33.239 -11.869 -21.478  0.00  0.00    +0.073 C 
ATOM      3  C   UNL     1      34.554 -12.285 -21.651  0.00  0.00    +0.011 C 
ATOM      4  C   UNL     1      32.377 -12.712 -20.794  0.00  0.00    +0.107 C 
ATOM      5  C   UNL     1      34.962 -13.514 -21.142  0.00  0.00    +0.058 C 
ATOM      6  C   UNL     1      34.023 -14.282 -20.473  0.00  0.00    +0.225 C 
ENDROOT
BRANCH   2  16
ATOM      7  S   UNL     1      32.591  -7.301 -19.197  0.00  0.00    -0.007 S 
ATOM      8  O   UNL     1      33.723  -6.549 -18.690  0.00  0.00    -0.173 OA
ATOM      9  O   UNL     1      31.238  -6.969 -18.795  0.00  0.00    -0.173 OA
ATOM     10  O   UNL     1      32.959 -10.387 -23.204  0.00  0.00    -0.270 OA
ATOM     11  N   UNL     1      32.185  -9.681 -21.113  0.00  0.00    -0.272 N 
ATOM     12  C   UNL     1      32.667  -7.271 -20.980  0.00  0.00    +0.172 C 
ATOM     13  C   UNL     1      32.874  -9.027 -18.837  0.00  0.00    +0.172 C 
ATOM     14  C   UNL     1      31.787  -8.353 -21.589  0.00  0.00    +0.119 C 
ATOM     15  C   UNL     1      31.972  -9.920 -19.677  0.00  0.00    +0.119 C 
ATOM     16  C   UNL     1      32.777 -10.579 -22.003  0.00  0.00    +0.251 C 
ENDBRANCH   2  16
BRANCH   6  17
ATOM     17  O   UNL     1      34.401 -15.496 -19.962  0.00  0.00    -0.455 OA
BRANCH  17  18
ATOM     18  C   UNL     1      35.582 -16.078 -20.500  0.00  0.00    +0.238 C 
BRANCH  18  21
ATOM     19  O   UNL     1      34.728 -17.624 -23.739  0.00  0.00    -0.358 OA
ATOM     20  N   UNL     1      34.652 -18.751 -22.930  0.00  0.00    -0.078 NA
ATOM     21  C   UNL     1      35.215 -16.937 -21.674  0.00  0.00    +0.075 A 
ATOM     22  C   UNL     1      34.946 -18.316 -21.702  0.00  0.00    +0.122 A 
ATOM     23  C   UNL     1      35.064 -16.550 -22.980  0.00  0.00    +0.154 A 
ATOM     24  C   UNL     1      35.188 -15.266 -23.683  0.00  0.00    +0.075 C 
BRANCH  22  26
ATOM     25  F   UNL     1      35.010 -21.861 -17.408  0.00  0.00    -0.204 F 
ATOM     26  C   UNL     1      34.963 -19.232 -20.592  0.00  0.00    +0.021 C 
ATOM     27  C   UNL     1      36.178 -19.672 -20.068  0.00  0.00    +0.004 C 
ATOM     28  C   UNL     1      33.763 -19.681 -20.040  0.00  0.00    +0.004 C 
ATOM     29  C   UNL     1      36.194 -20.559 -18.993  0.00  0.00    +0.030 C 
ATOM     30  C   UNL     1      33.779 -20.570 -18.964  0.00  0.00    +0.030 C 
ATOM     31  C   UNL     1      34.994 -21.009 -18.441  0.00  0.00    +0.140 C 
ENDBRANCH  22  26
ENDBRANCH  18  21
ENDBRANCH  17  18
ENDBRANCH   6  17
TORSDOF 5
ENDMDL
MODEL 9
REMARK VINA RESULT:     -10.1      7.318     11.791
REMARK  Name = 57336276
REMARK  5 active torsions:
REMARK  status: ('A' for Active; 'I' for Inactive)
REMARK    1  A    between atoms: C_2  and  C_16
REMARK    2  A    between atoms: C_6  and  O_17
REMARK    3  A    between atoms: O_17  and  C_18
REMARK    4  A    between atoms: C_18  and  C_21
REMARK    5  A    between atoms: C_22  and  C_26
REMARK                            x       y       z     vdW  Elec       q    Type
REMARK                         _______ _______ _______ _____ _____    ______ ____
ROOT
ATOM      1  N   UNL     1      32.684 -21.104 -18.477  0.00  0.00    -0.210 NA
ATOM      2  C   UNL     1      33.422 -22.283 -16.499  0.00  0.00    +0.073 C 
ATOM      3  C   UNL     1      34.727 -22.281 -16.977  0.00  0.00    +0.011 C 
ATOM      4  C   UNL     1      32.444 -21.687 -17.281  0.00  0.00    +0.107 C 
ATOM      5  C   UNL     1      35.012 -21.690 -18.203  0.00  0.00    +0.058 C 
ATOM      6  C   UNL     1      33.964 -21.121 -18.908  0.00  0.00    +0.225 C 
ENDROOT
BRANCH   2  16
ATOM      7  S   UNL     1      36.315 -23.309 -12.368  0.00  0.00    -0.007 S 
ATOM      8  O   UNL     1      36.888 -22.242 -11.570  0.00  0.00    -0.173 OA
ATOM      9  O   UNL     1      36.795 -24.672 -12.241  0.00  0.00    -0.173 OA
ATOM     10  O   UNL     1      31.919 -22.787 -14.842  0.00  0.00    -0.270 OA
ATOM     11  N   UNL     1      34.107 -23.544 -14.505  0.00  0.00    -0.272 N 
ATOM     12  C   UNL     1      34.551 -23.310 -12.096  0.00  0.00    +0.172 C 
ATOM     13  C   UNL     1      36.431 -22.833 -14.085  0.00  0.00    +0.172 C 
ATOM     14  C   UNL     1      33.825 -24.097 -13.178  0.00  0.00    +0.119 C 
ATOM     15  C   UNL     1      35.503 -23.671 -14.953  0.00  0.00    +0.119 C 
ATOM     16  C   UNL     1      33.088 -22.898 -15.209  0.00  0.00    +0.251 C 
ENDBRANCH   2  16
BRANCH   6  17
ATOM     17  O   UNL     1      34.220 -20.533 -20.119  0.00  0.00    -0.455 OA
BRANCH  17  18
ATOM     18  C   UNL     1      34.359 -19.117 -20.127  0.00  0.00    +0.238 C 
BRANCH  18  21
ATOM     19  O   UNL     1      37.985 -18.577 -20.535  0.00  0.00    -0.358 OA
ATOM     20  N   UNL     1      37.535 -17.918 -21.673  0.00  0.00    -0.078 NA
ATOM     21  C   UNL     1      35.763 -18.764 -20.520  0.00  0.00    +0.075 A 
ATOM     22  C   UNL     1      36.205 -18.043 -21.642  0.00  0.00    +0.122 A 
ATOM     23  C   UNL     1      36.921 -19.076 -19.857  0.00  0.00    +0.154 A 
ATOM     24  C   UNL     1      37.221 -19.809 -18.619  0.00  0.00    +0.075 C 
BRANCH  22  26
ATOM     25  F   UNL     1      33.081 -15.825 -25.683  0.00  0.00    -0.204 F 
ATOM     26  C   UNL     1      35.398 -17.470 -22.686  0.00  0.00    +0.021 C 
ATOM     27  C   UNL     1      34.675 -18.299 -23.544  0.00  0.00    +0.004 C 
ATOM     28  C   UNL     1      35.338 -16.084 -22.841  0.00  0.00    +0.004 C 
ATOM     29  C   UNL     1      33.892 -17.743 -24.555  0.00  0.00    +0.030 C 
ATOM     30  C   UNL     1      34.555 -15.529 -23.854  0.00  0.00    +0.030 C 
ATOM     31  C   UNL     1      33.833 -16.358 -24.711  0.00  0.00    +0.140 C 
ENDBRANCH  22  26
ENDBRANCH  18  21
ENDBRANCH  17  18
ENDBRANCH   6  17
TORSDOF 5
ENDMDL
