MODEL 1
REMARK VINA RESULT:     -13.0      0.000      0.000
REMARK  Name = 11677589
REMARK  7 active torsions:
REMARK  status: ('A' for Active; 'I' for Inactive)
REMARK    1  A    between atoms: C_1  and  N_7
REMARK    2  A    between atoms: C_2  and  C_20
REMARK    3  A    between atoms: C_11  and  C_18
REMARK    4  A    between atoms: C_20  and  C_21
REMARK    5  A    between atoms: C_21  and  N_23
REMARK    6  A    between atoms: N_24  and  S_28
REMARK    7  A    between atoms: S_28  and  C_31
REMARK                            x       y       z     vdW  Elec       q    Type
REMARK                         _______ _______ _______ _____ _____    ______ ____
ROOT
ATOM      1  C   UNL     1      34.088 -13.116 -21.813  0.00  0.00    +0.058 C 
ATOM      2  C   UNL     1      35.324 -15.591 -21.577  0.00  0.00    -0.020 C 
ATOM      3  C   UNL     1      34.357 -13.858 -22.955  0.00  0.00    +0.015 C 
ATOM      4  C   UNL     1      34.428 -13.594 -20.554  0.00  0.00    +0.015 C 
ATOM      5  C   UNL     1      34.979 -15.102 -22.836  0.00  0.00    -0.003 C 
ATOM      6  C   UNL     1      35.050 -14.837 -20.435  0.00  0.00    -0.003 C 
ENDROOT
BRANCH   1   7
ATOM      7  N   UNL     1      33.466 -11.871 -21.930  0.00  0.00    -0.242 N 
ATOM      8  N   UNL     1      32.068 -10.195 -21.510  0.00  0.00    -0.387 NA
ATOM      9  N   UNL     1      33.849  -8.604 -24.341  0.00  0.00    -0.408 NA
ATOM     10  C   UNL     1      33.773 -10.900 -22.847  0.00  0.00    +0.091 C 
ATOM     11  C   UNL     1      32.442 -11.404 -21.154  0.00  0.00    +0.168 C 
ATOM     12  C   UNL     1      32.887  -9.865 -22.563  0.00  0.00    +0.172 C 
ATOM     13  C   UNL     1      34.714 -10.835 -23.865  0.00  0.00    +0.045 C 
ATOM     14  C   UNL     1      32.944  -8.705 -23.337  0.00  0.00    +0.140 C 
ATOM     15  C   UNL     1      34.689  -9.642 -24.574  0.00  0.00    +0.110 C 
ATOM     16  C   UNL     1      32.044  -7.536 -23.121  0.00  0.00    +0.069 C 
ATOM     17  C   UNL     1      35.660  -9.460 -25.696  0.00  0.00    +0.066 C 
BRANCH  11  18
ATOM     18  C   UNL     1      31.850 -12.194 -20.053  0.00  0.00    +0.075 C 
ATOM     19  C   UNL     1      31.577 -11.353 -18.802  0.00  0.00    +0.009 C 
ENDBRANCH  11  18
ENDBRANCH   1   7
BRANCH   2  20
ATOM     20  C   UNL     1      35.989 -16.920 -21.450  0.00  0.00    +0.048 C 
BRANCH  20  21
ATOM     21  C   UNL     1      35.012 -18.100 -21.489  0.00  0.00    +0.096 C 
BRANCH  21  23
ATOM     22  O   UNL     1      33.132 -19.963 -20.372  0.00  0.00    -0.251 OA
ATOM     23  N   UNL     1      35.255 -19.047 -20.434  0.00  0.00    -0.287 N 
ATOM     24  N   UNL     1      34.767 -20.753 -18.900  0.00  0.00    -0.169 N 
ATOM     25  C   UNL     1      34.286 -19.912 -19.954  0.00  0.00    +0.319 C 
ATOM     26  H   UNL     1      36.153 -19.081 -20.033  0.00  0.00    +0.151 HD
ATOM     27  H   UNL     1      35.705 -20.641 -18.626  0.00  0.00    +0.178 HD
BRANCH  24  28
ATOM     28  S   UNL     1      33.844 -21.935 -18.080  0.00  0.00    +0.077 S 
ATOM     29  O   UNL     1      32.565 -21.368 -17.700  0.00  0.00    -0.150 OA
ATOM     30  O   UNL     1      33.906 -23.185 -18.813  0.00  0.00    -0.150 OA
BRANCH  28  31
ATOM     31  C   UNL     1      34.806 -22.156 -16.613  0.00  0.00    +0.125 C 
ATOM     32  C   UNL     1      36.096 -21.657 -16.569  0.00  0.00    +0.020 C 
ATOM     33  C   UNL     1      34.251 -22.824 -15.536  0.00  0.00    +0.020 C 
ATOM     34  C   UNL     1      36.311 -22.502 -14.316  0.00  0.00    -0.022 C 
ATOM     35  C   UNL     1      36.855 -21.831 -15.411  0.00  0.00    -0.003 C 
ATOM     36  C   UNL     1      35.009 -22.998 -14.378  0.00  0.00    -0.003 C 
ATOM     37  C   UNL     1      37.122 -22.686 -13.078  0.00  0.00    +0.031 C 
ENDBRANCH  28  31
ENDBRANCH  24  28
ENDBRANCH  21  23
ENDBRANCH  20  21
ENDBRANCH   2  20
TORSDOF 7
ENDMDL
MODEL 2
REMARK VINA RESULT:     -12.3      3.588     12.499
REMARK  Name = 11677589
REMARK  7 active torsions:
REMARK  status: ('A' for Active; 'I' for Inactive)
REMARK    1  A    between atoms: C_1  and  N_7
REMARK    2  A    between atoms: C_2  and  C_20
REMARK    3  A    between atoms: C_11  and  C_18
REMARK    4  A    between atoms: C_20  and  C_21
REMARK    5  A    between atoms: C_21  and  N_23
REMARK    6  A    between atoms: N_24  and  S_28
REMARK    7  A    between atoms: S_28  and  C_31
REMARK                            x       y       z     vdW  Elec       q    Type
REMARK                         _______ _______ _______ _____ _____    ______ ____
ROOT
ATOM      1  C   UNL     1      35.739 -22.049 -16.371  0.00  0.00    +0.058 C 
ATOM      2  C   UNL     1      35.666 -20.704 -18.799  0.00  0.00    -0.020 C 
ATOM      3  C   UNL     1      36.820 -21.265 -16.753  0.00  0.00    +0.015 C 
ATOM      4  C   UNL     1      34.621 -22.170 -17.188  0.00  0.00    +0.015 C 
ATOM      5  C   UNL     1      36.783 -20.590 -17.973  0.00  0.00    -0.003 C 
ATOM      6  C   UNL     1      34.585 -21.494 -18.408  0.00  0.00    -0.003 C 
ENDROOT
BRANCH   1   7
ATOM      7  N   UNL     1      35.775 -22.726 -15.151  0.00  0.00    -0.242 N 
ATOM      8  N   UNL     1      35.070 -23.582 -13.224  0.00  0.00    -0.387 NA
ATOM      9  N   UNL     1      38.593 -24.696 -12.958  0.00  0.00    -0.408 NA
ATOM     10  C   UNL     1      36.872 -23.331 -14.596  0.00  0.00    +0.091 C 
ATOM     11  C   UNL     1      34.723 -22.903 -14.295  0.00  0.00    +0.168 C 
ATOM     12  C   UNL     1      36.406 -23.857 -13.395  0.00  0.00    +0.172 C 
ATOM     13  C   UNL     1      38.187 -23.460 -15.022  0.00  0.00    +0.045 C 
ATOM     14  C   UNL     1      37.300 -24.549 -12.577  0.00  0.00    +0.140 C 
ATOM     15  C   UNL     1      38.994 -24.164 -14.139  0.00  0.00    +0.110 C 
ATOM     16  C   UNL     1      36.910 -25.153 -11.271  0.00  0.00    +0.069 C 
ATOM     17  C   UNL     1      40.431 -24.366 -14.493  0.00  0.00    +0.066 C 
BRANCH  11  18
ATOM     18  C   UNL     1      33.370 -22.377 -14.574  0.00  0.00    +0.075 C 
ATOM     19  C   UNL     1      32.371 -22.691 -13.455  0.00  0.00    +0.009 C 
ENDBRANCH  11  18
ENDBRANCH   1   7
BRANCH   2  20
ATOM     20  C   UNL     1      35.627 -19.982 -20.104  0.00  0.00    +0.048 C 
BRANCH  20  21
ATOM     21  C   UNL     1      36.577 -18.780 -20.168  0.00  0.00    +0.096 C 
BRANCH  21  23
ATOM     22  O   UNL     1      36.061 -17.186 -22.501  0.00  0.00    -0.251 OA
ATOM     23  N   UNL     1      35.871 -17.528 -20.221  0.00  0.00    -0.287 N 
ATOM     24  N   UNL     1      34.943 -15.605 -21.193  0.00  0.00    -0.169 N 
ATOM     25  C   UNL     1      35.667 -16.823 -21.397  0.00  0.00    +0.319 C 
ATOM     26  H   UNL     1      35.516 -17.154 -19.383  0.00  0.00    +0.151 HD
ATOM     27  H   UNL     1      34.670 -15.391 -20.272  0.00  0.00    +0.178 HD
BRANCH  24  28
ATOM     28  S   UNL     1      34.517 -14.492 -22.418  0.00  0.00    +0.077 S 
ATOM     29  O   UNL     1      35.694 -13.747 -22.822  0.00  0.00    -0.150 OA
ATOM     30  O   UNL     1      33.695 -15.161 -23.408  0.00  0.00    -0.150 OA
BRANCH  28  31
ATOM     31  C   UNL     1      33.453 -13.399 -21.526  0.00  0.00    +0.125 C 
ATOM     32  C   UNL     1      33.031 -12.225 -22.126  0.00  0.00    +0.020 C 
ATOM     33  C   UNL     1      33.060 -13.736 -20.242  0.00  0.00    +0.020 C 
ATOM     34  C   UNL     1      31.786 -11.687 -20.128  0.00  0.00    -0.022 C 
ATOM     35  C   UNL     1      32.191 -11.362 -21.422  0.00  0.00    -0.003 C 
ATOM     36  C   UNL     1      32.220 -12.873 -19.537  0.00  0.00    -0.003 C 
ATOM     37  C   UNL     1      30.887 -10.765 -19.375  0.00  0.00    +0.031 C 
ENDBRANCH  28  31
ENDBRANCH  24  28
ENDBRANCH  21  23
ENDBRANCH  20  21
ENDBRANCH   2  20
TORSDOF 7
ENDMDL
MODEL 3
REMARK VINA RESULT:     -12.1      1.996      3.700
REMARK  Name = 11677589
REMARK  7 active torsions:
REMARK  status: ('A' for Active; 'I' for Inactive)
REMARK    1  A    between atoms: C_1  and  N_7
REMARK    2  A    between atoms: C_2  and  C_20
REMARK    3  A    between atoms: C_11  and  C_18
REMARK    4  A    between atoms: C_20  and  C_21
REMARK    5  A    between atoms: C_21  and  N_23
REMARK    6  A    between atoms: N_24  and  S_28
REMARK    7  A    between atoms: S_28  and  C_31
REMARK                            x       y       z     vdW  Elec       q    Type
REMARK                         _______ _______ _______ _____ _____    ______ ____
ROOT
ATOM      1  C   UNL     1      33.901 -12.387 -23.124  0.00  0.00    +0.058 C 
ATOM      2  C   UNL     1      34.545 -15.085 -23.256  0.00  0.00    -0.020 C 
ATOM      3  C   UNL     1      33.512 -13.131 -24.230  0.00  0.00    +0.015 C 
ATOM      4  C   UNL     1      34.608 -12.974 -22.083  0.00  0.00    +0.015 C 
ATOM      5  C   UNL     1      33.836 -14.486 -24.297  0.00  0.00    -0.003 C 
ATOM      6  C   UNL     1      34.932 -14.330 -22.149  0.00  0.00    -0.003 C 
ENDROOT
BRANCH   1   7
ATOM      7  N   UNL     1      33.578 -11.031 -23.057  0.00  0.00    -0.242 N 
ATOM      8  N   UNL     1      33.459  -8.888 -23.638  0.00  0.00    -0.387 NA
ATOM      9  N   UNL     1      31.597  -8.601 -20.448  0.00  0.00    -0.408 NA
ATOM     10  C   UNL     1      32.880 -10.417 -22.050  0.00  0.00    +0.091 C 
ATOM     11  C   UNL     1      33.902 -10.077 -23.982  0.00  0.00    +0.168 C 
ATOM     12  C   UNL     1      32.820  -9.081 -22.436  0.00  0.00    +0.172 C 
ATOM     13  C   UNL     1      32.316 -10.893 -20.874  0.00  0.00    +0.045 C 
ATOM     14  C   UNL     1      32.161  -8.174 -21.605  0.00  0.00    +0.140 C 
ATOM     15  C   UNL     1      31.685  -9.913 -20.120  0.00  0.00    +0.110 C 
ATOM     16  C   UNL     1      32.036  -6.722 -21.920  0.00  0.00    +0.069 C 
ATOM     17  C   UNL     1      31.041 -10.311 -18.832  0.00  0.00    +0.066 C 
BRANCH  11  18
ATOM     18  C   UNL     1      34.662 -10.385 -25.212  0.00  0.00    +0.075 C 
ATOM     19  C   UNL     1      35.824  -9.413 -25.447  0.00  0.00    +0.009 C 
ENDBRANCH  11  18
ENDBRANCH   1   7
BRANCH   2  20
ATOM     20  C   UNL     1      34.891 -16.534 -23.328  0.00  0.00    +0.048 C 
BRANCH  20  21
ATOM     21  C   UNL     1      36.011 -16.945 -22.364  0.00  0.00    +0.096 C 
BRANCH  21  23
ATOM     22  O   UNL     1      37.657 -18.585 -20.675  0.00  0.00    -0.251 OA
ATOM     23  N   UNL     1      35.565 -17.896 -21.382  0.00  0.00    -0.287 N 
ATOM     24  N   UNL     1      35.750 -19.528 -19.707  0.00  0.00    -0.169 N 
ATOM     25  C   UNL     1      36.432 -18.649 -20.607  0.00  0.00    +0.319 C 
ATOM     26  H   UNL     1      34.596 -18.019 -21.254  0.00  0.00    +0.151 HD
ATOM     27  H   UNL     1      34.766 -19.516 -19.723  0.00  0.00    +0.178 HD
BRANCH  24  28
ATOM     28  S   UNL     1      36.505 -20.597 -18.608  0.00  0.00    +0.077 S 
ATOM     29  O   UNL     1      37.175 -21.651 -19.345  0.00  0.00    -0.150 OA
ATOM     30  O   UNL     1      37.221 -19.829 -17.607  0.00  0.00    -0.150 OA
BRANCH  28  31
ATOM     31  C   UNL     1      35.098 -21.301 -17.800  0.00  0.00    +0.125 C 
ATOM     32  C   UNL     1      35.278 -22.014 -16.628  0.00  0.00    +0.020 C 
ATOM     33  C   UNL     1      33.843 -21.125 -18.356  0.00  0.00    +0.020 C 
ATOM     34  C   UNL     1      32.895 -22.401 -16.537  0.00  0.00    -0.022 C 
ATOM     35  C   UNL     1      34.167 -22.569 -15.991  0.00  0.00    -0.003 C 
ATOM     36  C   UNL     1      32.732 -21.679 -17.719  0.00  0.00    -0.003 C 
ATOM     37  C   UNL     1      31.708 -22.993 -15.855  0.00  0.00    +0.031 C 
ENDBRANCH  28  31
ENDBRANCH  24  28
ENDBRANCH  21  23
ENDBRANCH  20  21
ENDBRANCH   2  20
TORSDOF 7
ENDMDL
MODEL 4
REMARK VINA RESULT:     -12.0      1.942      2.512
REMARK  Name = 11677589
REMARK  7 active torsions:
REMARK  status: ('A' for Active; 'I' for Inactive)
REMARK    1  A    between atoms: C_1  and  N_7
REMARK    2  A    between atoms: C_2  and  C_20
REMARK    3  A    between atoms: C_11  and  C_18
REMARK    4  A    between atoms: C_20  and  C_21
REMARK    5  A    between atoms: C_21  and  N_23
REMARK    6  A    between atoms: N_24  and  S_28
REMARK    7  A    between atoms: S_28  and  C_31
REMARK                            x       y       z     vdW  Elec       q    Type
REMARK                         _______ _______ _______ _____ _____    ______ ____
ROOT
ATOM      1  C   UNL     1      33.759 -12.412 -22.687  0.00  0.00    +0.058 C 
ATOM      2  C   UNL     1      34.513 -15.060 -23.041  0.00  0.00    -0.020 C 
ATOM      3  C   UNL     1      33.419 -13.069 -23.862  0.00  0.00    +0.015 C 
ATOM      4  C   UNL     1      34.470 -13.061 -21.686  0.00  0.00    +0.015 C 
ATOM      5  C   UNL     1      33.799 -14.400 -24.040  0.00  0.00    -0.003 C 
ATOM      6  C   UNL     1      34.850 -14.391 -21.864  0.00  0.00    -0.003 C 
ENDROOT
BRANCH   1   7
ATOM      7  N   UNL     1      33.380 -11.080 -22.508  0.00  0.00    -0.242 N 
ATOM      8  N   UNL     1      32.297  -9.314 -21.700  0.00  0.00    -0.387 NA
ATOM      9  N   UNL     1      34.446  -7.477 -24.094  0.00  0.00    -0.408 NA
ATOM     10  C   UNL     1      33.894  -9.999 -23.175  0.00  0.00    +0.091 C 
ATOM     11  C   UNL     1      32.430 -10.621 -21.638  0.00  0.00    +0.168 C 
ATOM     12  C   UNL     1      33.202  -8.910 -22.653  0.00  0.00    +0.172 C 
ATOM     13  C   UNL     1      34.869  -9.879 -24.156  0.00  0.00    +0.045 C 
ATOM     14  C   UNL     1      33.499  -7.635 -23.135  0.00  0.00    +0.140 C 
ATOM     15  C   UNL     1      35.090  -8.572 -24.567  0.00  0.00    +0.110 C 
ATOM     16  C   UNL     1      32.821  -6.400 -22.648  0.00  0.00    +0.069 C 
ATOM     17  C   UNL     1      36.119  -8.321 -25.621  0.00  0.00    +0.066 C 
BRANCH  11  18
ATOM     18  C   UNL     1      31.663 -11.519 -20.748  0.00  0.00    +0.075 C 
ATOM     19  C   UNL     1      32.024 -11.336 -19.271  0.00  0.00    +0.009 C 
ENDBRANCH  11  18
ENDBRANCH   1   7
BRANCH   2  20
ATOM     20  C   UNL     1      34.919 -16.483 -23.232  0.00  0.00    +0.048 C 
BRANCH  20  21
ATOM     21  C   UNL     1      36.048 -16.929 -22.295  0.00  0.00    +0.096 C 
BRANCH  21  23
ATOM     22  O   UNL     1      37.697 -18.555 -20.595  0.00  0.00    -0.251 OA
ATOM     23  N   UNL     1      35.604 -17.896 -21.327  0.00  0.00    -0.287 N 
ATOM     24  N   UNL     1      35.793 -19.538 -19.662  0.00  0.00    -0.169 N 
ATOM     25  C   UNL     1      36.473 -18.640 -20.546  0.00  0.00    +0.319 C 
ATOM     26  H   UNL     1      34.636 -18.037 -21.214  0.00  0.00    +0.151 HD
ATOM     27  H   UNL     1      34.809 -19.543 -19.693  0.00  0.00    +0.178 HD
BRANCH  24  28
ATOM     28  S   UNL     1      36.550 -20.604 -18.561  0.00  0.00    +0.077 S 
ATOM     29  O   UNL     1      37.239 -21.646 -19.297  0.00  0.00    -0.150 OA
ATOM     30  O   UNL     1      37.250 -19.832 -17.551  0.00  0.00    -0.150 OA
BRANCH  28  31
ATOM     31  C   UNL     1      35.145 -21.326 -17.769  0.00  0.00    +0.125 C 
ATOM     32  C   UNL     1      33.893 -21.167 -18.336  0.00  0.00    +0.020 C 
ATOM     33  C   UNL     1      35.322 -22.037 -16.595  0.00  0.00    +0.020 C 
ATOM     34  C   UNL     1      32.944 -22.457 -16.528  0.00  0.00    -0.022 C 
ATOM     35  C   UNL     1      32.784 -21.737 -17.711  0.00  0.00    -0.003 C 
ATOM     36  C   UNL     1      34.214 -22.607 -15.969  0.00  0.00    -0.003 C 
ATOM     37  C   UNL     1      31.759 -23.067 -15.860  0.00  0.00    +0.031 C 
ENDBRANCH  28  31
ENDBRANCH  24  28
ENDBRANCH  21  23
ENDBRANCH  20  21
ENDBRANCH   2  20
TORSDOF 7
ENDMDL
MODEL 5
REMARK VINA RESULT:     -12.0      1.451      2.292
REMARK  Name = 11677589
REMARK  7 active torsions:
REMARK  status: ('A' for Active; 'I' for Inactive)
REMARK    1  A    between atoms: C_1  and  N_7
REMARK    2  A    between atoms: C_2  and  C_20
REMARK    3  A    between atoms: C_11  and  C_18
REMARK    4  A    between atoms: C_20  and  C_21
REMARK    5  A    between atoms: C_21  and  N_23
REMARK    6  A    between atoms: N_24  and  S_28
REMARK    7  A    between atoms: S_28  and  C_31
REMARK                            x       y       z     vdW  Elec       q    Type
REMARK                         _______ _______ _______ _____ _____    ______ ____
ROOT
ATOM      1  C   UNL     1      33.905 -13.132 -21.485  0.00  0.00    +0.058 C 
ATOM      2  C   UNL     1      35.091 -15.613 -21.102  0.00  0.00    -0.020 C 
ATOM      3  C   UNL     1      34.279 -13.522 -20.206  0.00  0.00    +0.015 C 
ATOM      4  C   UNL     1      34.116 -13.965 -22.576  0.00  0.00    +0.015 C 
ATOM      5  C   UNL     1      34.875 -14.769 -20.014  0.00  0.00    -0.003 C 
ATOM      6  C   UNL     1      34.712 -15.212 -22.384  0.00  0.00    -0.003 C 
ENDROOT
BRANCH   1   7
ATOM      7  N   UNL     1      33.308 -11.885 -21.678  0.00  0.00    -0.242 N 
ATOM      8  N   UNL     1      31.947 -10.157 -21.358  0.00  0.00    -0.387 NA
ATOM      9  N   UNL     1      33.744  -8.785 -24.292  0.00  0.00    -0.408 NA
ATOM     10  C   UNL     1      33.629 -10.980 -22.656  0.00  0.00    +0.091 C 
ATOM     11  C   UNL     1      32.298 -11.348 -20.928  0.00  0.00    +0.168 C 
ATOM     12  C   UNL     1      32.766  -9.911 -22.434  0.00  0.00    +0.172 C 
ATOM     13  C   UNL     1      34.565 -10.999 -23.680  0.00  0.00    +0.045 C 
ATOM     14  C   UNL     1      32.842  -8.804 -23.279  0.00  0.00    +0.140 C 
ATOM     15  C   UNL     1      34.561  -9.853 -24.463  0.00  0.00    +0.110 C 
ATOM     16  C   UNL     1      31.967  -7.605 -23.134  0.00  0.00    +0.069 C 
ATOM     17  C   UNL     1      35.528  -9.762 -25.598  0.00  0.00    +0.066 C 
BRANCH  11  18
ATOM     18  C   UNL     1      31.697 -12.056 -19.777  0.00  0.00    +0.075 C 
ATOM     19  C   UNL     1      31.586 -11.170 -18.532  0.00  0.00    +0.009 C 
ENDBRANCH  11  18
ENDBRANCH   1   7
BRANCH   2  20
ATOM     20  C   UNL     1      35.728 -16.946 -20.897  0.00  0.00    +0.048 C 
BRANCH  20  21
ATOM     21  C   UNL     1      34.886 -18.115 -21.422  0.00  0.00    +0.096 C 
BRANCH  21  23
ATOM     22  O   UNL     1      35.912 -20.595 -20.398  0.00  0.00    -0.251 OA
ATOM     23  N   UNL     1      34.330 -18.908 -20.359  0.00  0.00    -0.287 N 
ATOM     24  N   UNL     1      34.155 -20.706 -18.862  0.00  0.00    -0.169 N 
ATOM     25  C   UNL     1      34.893 -20.098 -19.927  0.00  0.00    +0.319 C 
ATOM     26  H   UNL     1      33.509 -18.591 -19.918  0.00  0.00    +0.151 HD
ATOM     27  H   UNL     1      33.346 -20.239 -18.549  0.00  0.00    +0.178 HD
BRANCH  24  28
ATOM     28  S   UNL     1      34.561 -22.176 -18.090  0.00  0.00    +0.077 S 
ATOM     29  O   UNL     1      34.355 -23.276 -19.013  0.00  0.00    -0.150 OA
ATOM     30  O   UNL     1      35.829 -22.021 -17.402  0.00  0.00    -0.150 OA
BRANCH  28  31
ATOM     31  C   UNL     1      33.311 -22.260 -16.844  0.00  0.00    +0.125 C 
ATOM     32  C   UNL     1      32.010 -21.913 -17.166  0.00  0.00    +0.020 C 
ATOM     33  C   UNL     1      33.655 -22.672 -15.568  0.00  0.00    +0.020 C 
ATOM     34  C   UNL     1      31.353 -22.393 -14.892  0.00  0.00    -0.022 C 
ATOM     35  C   UNL     1      31.023 -21.981 -16.182  0.00  0.00    -0.003 C 
ATOM     36  C   UNL     1      32.669 -22.739 -14.584  0.00  0.00    -0.003 C 
ATOM     37  C   UNL     1      30.298 -22.466 -13.840  0.00  0.00    +0.031 C 
ENDBRANCH  28  31
ENDBRANCH  24  28
ENDBRANCH  21  23
ENDBRANCH  20  21
ENDBRANCH   2  20
TORSDOF 7
ENDMDL
MODEL 6
REMARK VINA RESULT:     -11.9      0.907      2.867
REMARK  Name = 11677589
REMARK  7 active torsions:
REMARK  status: ('A' for Active; 'I' for Inactive)
REMARK    1  A    between atoms: C_1  and  N_7
REMARK    2  A    between atoms: C_2  and  C_20
REMARK    3  A    between atoms: C_11  and  C_18
REMARK    4  A    between atoms: C_20  and  C_21
REMARK    5  A    between atoms: C_21  and  N_23
REMARK    6  A    between atoms: N_24  and  S_28
REMARK    7  A    between atoms: S_28  and  C_31
REMARK                            x       y       z     vdW  Elec       q    Type
REMARK                         _______ _______ _______ _____ _____    ______ ____
ROOT
ATOM      1  C   UNL     1      34.232 -13.275 -22.118  0.00  0.00    +0.058 C 
ATOM      2  C   UNL     1      35.278 -15.821 -21.757  0.00  0.00    -0.020 C 
ATOM      3  C   UNL     1      34.572 -13.701 -20.841  0.00  0.00    +0.015 C 
ATOM      4  C   UNL     1      34.409 -14.105 -23.218  0.00  0.00    +0.015 C 
ATOM      5  C   UNL     1      35.097 -14.980 -20.660  0.00  0.00    -0.003 C 
ATOM      6  C   UNL     1      34.934 -15.385 -23.036  0.00  0.00    -0.003 C 
ENDROOT
BRANCH   1   7
ATOM      7  N   UNL     1      33.706 -11.995 -22.301  0.00  0.00    -0.242 N 
ATOM      8  N   UNL     1      33.224 -10.064 -23.292  0.00  0.00    -0.387 NA
ATOM      9  N   UNL     1      31.515  -9.367 -20.081  0.00  0.00    -0.408 NA
ATOM     10  C   UNL     1      32.977 -11.284 -21.383  0.00  0.00    +0.091 C 
ATOM     11  C   UNL     1      33.827 -11.225 -23.425  0.00  0.00    +0.168 C 
ATOM     12  C   UNL     1      32.689 -10.084 -22.026  0.00  0.00    +0.172 C 
ATOM     13  C   UNL     1      32.558 -11.573 -20.092  0.00  0.00    +0.045 C 
ATOM     14  C   UNL     1      31.943  -9.123 -21.344  0.00  0.00    +0.140 C 
ATOM     15  C   UNL     1      31.825 -10.553 -19.501  0.00  0.00    +0.110 C 
ATOM     16  C   UNL     1      31.576  -7.804 -21.936  0.00  0.00    +0.069 C 
ATOM     17  C   UNL     1      31.320 -10.753 -18.109  0.00  0.00    +0.066 C 
BRANCH  11  18
ATOM     18  C   UNL     1      34.558 -11.678 -24.627  0.00  0.00    +0.075 C 
ATOM     19  C   UNL     1      33.842 -11.305 -25.929  0.00  0.00    +0.009 C 
ENDBRANCH  11  18
ENDBRANCH   1   7
BRANCH   2  20
ATOM     20  C   UNL     1      35.840 -17.190 -21.563  0.00  0.00    +0.048 C 
BRANCH  20  21
ATOM     21  C   UNL     1      34.768 -18.278 -21.430  0.00  0.00    +0.096 C 
BRANCH  21  23
ATOM     22  O   UNL     1      32.950 -20.121 -20.184  0.00  0.00    -0.251 OA
ATOM     23  N   UNL     1      35.071 -19.218 -20.384  0.00  0.00    -0.287 N 
ATOM     24  N   UNL     1      34.668 -20.910 -18.809  0.00  0.00    -0.169 N 
ATOM     25  C   UNL     1      34.128 -20.074 -19.838  0.00  0.00    +0.319 C 
ATOM     26  H   UNL     1      35.992 -19.254 -20.038  0.00  0.00    +0.151 HD
ATOM     27  H   UNL     1      35.622 -20.801 -18.594  0.00  0.00    +0.178 HD
BRANCH  24  28
ATOM     28  S   UNL     1      33.791 -22.079 -17.924  0.00  0.00    +0.077 S 
ATOM     29  O   UNL     1      32.523 -21.513 -17.504  0.00  0.00    -0.150 OA
ATOM     30  O   UNL     1      33.833 -23.346 -18.630  0.00  0.00    -0.150 OA
BRANCH  28  31
ATOM     31  C   UNL     1      34.814 -22.258 -16.494  0.00  0.00    +0.125 C 
ATOM     32  C   UNL     1      36.047 -21.628 -16.461  0.00  0.00    +0.020 C 
ATOM     33  C   UNL     1      34.365 -23.025 -15.433  0.00  0.00    +0.020 C 
ATOM     34  C   UNL     1      36.417 -22.539 -14.255  0.00  0.00    -0.022 C 
ATOM     35  C   UNL     1      36.854 -21.770 -15.332  0.00  0.00    -0.003 C 
ATOM     36  C   UNL     1      35.173 -23.167 -14.304  0.00  0.00    -0.003 C 
ATOM     37  C   UNL     1      37.280 -22.689 -13.048  0.00  0.00    +0.031 C 
ENDBRANCH  28  31
ENDBRANCH  24  28
ENDBRANCH  21  23
ENDBRANCH  20  21
ENDBRANCH   2  20
TORSDOF 7
ENDMDL
MODEL 7
REMARK VINA RESULT:     -11.9      3.585     11.914
REMARK  Name = 11677589
REMARK  7 active torsions:
REMARK  status: ('A' for Active; 'I' for Inactive)
REMARK    1  A    between atoms: C_1  and  N_7
REMARK    2  A    between atoms: C_2  and  C_20
REMARK    3  A    between atoms: C_11  and  C_18
REMARK    4  A    between atoms: C_20  and  C_21
REMARK    5  A    between atoms: C_21  and  N_23
REMARK    6  A    between atoms: N_24  and  S_28
REMARK    7  A    between atoms: S_28  and  C_31
REMARK                            x       y       z     vdW  Elec       q    Type
REMARK                         _______ _______ _______ _____ _____    ______ ____
ROOT
ATOM      1  C   UNL     1      34.135 -21.630 -17.409  0.00  0.00    +0.058 C 
ATOM      2  C   UNL     1      34.892 -20.179 -19.653  0.00  0.00    -0.020 C 
ATOM      3  C   UNL     1      33.172 -21.243 -18.332  0.00  0.00    +0.015 C 
ATOM      4  C   UNL     1      35.472 -21.302 -17.594  0.00  0.00    +0.015 C 
ATOM      5  C   UNL     1      33.553 -20.513 -19.458  0.00  0.00    -0.003 C 
ATOM      6  C   UNL     1      35.853 -20.573 -18.720  0.00  0.00    -0.003 C 
ENDROOT
BRANCH   1   7
ATOM      7  N   UNL     1      33.756 -22.360 -16.282  0.00  0.00    -0.242 N 
ATOM      8  N   UNL     1      33.939 -23.596 -14.443  0.00  0.00    -0.387 NA
ATOM      9  N   UNL     1      30.242 -23.370 -14.473  0.00  0.00    -0.408 NA
ATOM     10  C   UNL     1      32.471 -22.573 -15.854  0.00  0.00    +0.091 C 
ATOM     11  C   UNL     1      34.597 -22.990 -15.407  0.00  0.00    +0.168 C 
ATOM     12  C   UNL     1      32.613 -23.347 -14.706  0.00  0.00    +0.172 C 
ATOM     13  C   UNL     1      31.238 -22.173 -16.351  0.00  0.00    +0.045 C 
ATOM     14  C   UNL     1      31.465 -23.741 -14.018  0.00  0.00    +0.140 C 
ATOM     15  C   UNL     1      30.161 -22.616 -15.597  0.00  0.00    +0.110 C 
ATOM     16  C   UNL     1      31.500 -24.569 -12.779  0.00  0.00    +0.069 C 
ATOM     17  C   UNL     1      28.782 -22.245 -16.037  0.00  0.00    +0.066 C 
BRANCH  11  18
ATOM     18  C   UNL     1      36.067 -22.971 -15.560  0.00  0.00    +0.075 C 
ATOM     19  C   UNL     1      36.792 -23.654 -14.396  0.00  0.00    +0.009 C 
ENDBRANCH  11  18
ENDBRANCH   1   7
BRANCH   2  20
ATOM     20  C   UNL     1      35.299 -19.399 -20.857  0.00  0.00    +0.048 C 
BRANCH  20  21
ATOM     21  C   UNL     1      36.317 -18.293 -20.556  0.00  0.00    +0.096 C 
BRANCH  21  23
ATOM     22  O   UNL     1      35.566 -16.595 -22.748  0.00  0.00    -0.251 OA
ATOM     23  N   UNL     1      35.705 -16.995 -20.473  0.00  0.00    -0.287 N 
ATOM     24  N   UNL     1      34.782 -14.982 -21.249  0.00  0.00    -0.169 N 
ATOM     25  C   UNL     1      35.375 -16.240 -21.588  0.00  0.00    +0.319 C 
ATOM     26  H   UNL     1      35.512 -16.623 -19.582  0.00  0.00    +0.151 HD
ATOM     27  H   UNL     1      34.670 -14.779 -20.293  0.00  0.00    +0.178 HD
BRANCH  24  28
ATOM     28  S   UNL     1      34.254 -13.805 -22.370  0.00  0.00    +0.077 S 
ATOM     29  O   UNL     1      35.381 -12.985 -22.772  0.00  0.00    -0.150 OA
ATOM     30  O   UNL     1      33.411 -14.436 -23.367  0.00  0.00    -0.150 OA
BRANCH  28  31
ATOM     31  C   UNL     1      33.194 -12.822 -21.353  0.00  0.00    +0.125 C 
ATOM     32  C   UNL     1      32.777 -13.319 -20.131  0.00  0.00    +0.020 C 
ATOM     33  C   UNL     1      32.799 -11.572 -21.799  0.00  0.00    +0.020 C 
ATOM     34  C   UNL     1      31.533 -11.282 -19.762  0.00  0.00    -0.022 C 
ATOM     35  C   UNL     1      31.940 -12.543 -19.328  0.00  0.00    -0.003 C 
ATOM     36  C   UNL     1      31.962 -10.796 -20.997  0.00  0.00    -0.003 C 
ATOM     37  C   UNL     1      30.640 -10.452 -18.903  0.00  0.00    +0.031 C 
ENDBRANCH  28  31
ENDBRANCH  24  28
ENDBRANCH  21  23
ENDBRANCH  20  21
ENDBRANCH   2  20
TORSDOF 7
ENDMDL
MODEL 8
REMARK VINA RESULT:     -11.7      3.535     12.788
REMARK  Name = 11677589
REMARK  7 active torsions:
REMARK  status: ('A' for Active; 'I' for Inactive)
REMARK    1  A    between atoms: C_1  and  N_7
REMARK    2  A    between atoms: C_2  and  C_20
REMARK    3  A    between atoms: C_11  and  C_18
REMARK    4  A    between atoms: C_20  and  C_21
REMARK    5  A    between atoms: C_21  and  N_23
REMARK    6  A    between atoms: N_24  and  S_28
REMARK    7  A    between atoms: S_28  and  C_31
REMARK                            x       y       z     vdW  Elec       q    Type
REMARK                         _______ _______ _______ _____ _____    ______ ____
ROOT
ATOM      1  C   UNL     1      35.713 -21.970 -16.444  0.00  0.00    +0.058 C 
ATOM      2  C   UNL     1      35.621 -20.612 -18.864  0.00  0.00    -0.020 C 
ATOM      3  C   UNL     1      36.791 -21.185 -16.830  0.00  0.00    +0.015 C 
ATOM      4  C   UNL     1      34.589 -22.086 -17.252  0.00  0.00    +0.015 C 
ATOM      5  C   UNL     1      36.745 -20.503 -18.046  0.00  0.00    -0.003 C 
ATOM      6  C   UNL     1      34.543 -21.404 -18.468  0.00  0.00    -0.003 C 
ENDROOT
BRANCH   1   7
ATOM      7  N   UNL     1      35.758 -22.653 -15.228  0.00  0.00    -0.242 N 
ATOM      8  N   UNL     1      35.065 -23.530 -13.306  0.00  0.00    -0.387 NA
ATOM      9  N   UNL     1      38.603 -24.597 -13.046  0.00  0.00    -0.408 NA
ATOM     10  C   UNL     1      36.864 -23.246 -14.676  0.00  0.00    +0.091 C 
ATOM     11  C   UNL     1      34.709 -22.850 -14.373  0.00  0.00    +0.168 C 
ATOM     12  C   UNL     1      36.405 -23.785 -13.478  0.00  0.00    +0.172 C 
ATOM     13  C   UNL     1      38.180 -23.355 -15.102  0.00  0.00    +0.045 C 
ATOM     14  C   UNL     1      37.308 -24.470 -12.664  0.00  0.00    +0.140 C 
ATOM     15  C   UNL     1      38.997 -24.052 -14.223  0.00  0.00    +0.110 C 
ATOM     16  C   UNL     1      36.926 -25.087 -11.361  0.00  0.00    +0.069 C 
ATOM     17  C   UNL     1      40.437 -24.232 -14.578  0.00  0.00    +0.066 C 
BRANCH  11  18
ATOM     18  C   UNL     1      33.348 -22.341 -14.649  0.00  0.00    +0.075 C 
ATOM     19  C   UNL     1      32.338 -22.738 -13.568  0.00  0.00    +0.009 C 
ENDBRANCH  11  18
ENDBRANCH   1   7
BRANCH   2  20
ATOM     20  C   UNL     1      35.572 -19.883 -20.165  0.00  0.00    +0.048 C 
BRANCH  20  21
ATOM     21  C   UNL     1      36.385 -18.583 -20.169  0.00  0.00    +0.096 C 
BRANCH  21  23
ATOM     22  O   UNL     1      35.648 -15.975 -19.219  0.00  0.00    -0.251 OA
ATOM     23  N   UNL     1      35.742 -17.539 -20.920  0.00  0.00    -0.287 N 
ATOM     24  N   UNL     1      34.781 -15.436 -21.321  0.00  0.00    -0.169 N 
ATOM     25  C   UNL     1      35.421 -16.304 -20.379  0.00  0.00    +0.319 C 
ATOM     26  H   UNL     1      35.517 -17.709 -21.863  0.00  0.00    +0.151 HD
ATOM     27  H   UNL     1      34.635 -15.785 -22.230  0.00  0.00    +0.178 HD
BRANCH  24  28
ATOM     28  S   UNL     1      34.251 -13.844 -20.996  0.00  0.00    +0.077 S 
ATOM     29  O   UNL     1      32.938 -13.891 -20.382  0.00  0.00    -0.150 OA
ATOM     30  O   UNL     1      35.327 -13.098 -20.373  0.00  0.00    -0.150 OA
BRANCH  28  31
ATOM     31  C   UNL     1      34.070 -13.207 -22.635  0.00  0.00    +0.125 C 
ATOM     32  C   UNL     1      33.781 -14.078 -23.671  0.00  0.00    +0.020 C 
ATOM     33  C   UNL     1      34.220 -11.849 -22.852  0.00  0.00    +0.020 C 
ATOM     34  C   UNL     1      33.786 -12.209 -25.201  0.00  0.00    -0.022 C 
ATOM     35  C   UNL     1      33.637 -13.575 -24.964  0.00  0.00    -0.003 C 
ATOM     36  C   UNL     1      34.077 -11.345 -24.145  0.00  0.00    -0.003 C 
ATOM     37  C   UNL     1      33.631 -11.671 -26.583  0.00  0.00    +0.031 C 
ENDBRANCH  28  31
ENDBRANCH  24  28
ENDBRANCH  21  23
ENDBRANCH  20  21
ENDBRANCH   2  20
TORSDOF 7
ENDMDL
MODEL 9
REMARK VINA RESULT:     -11.6      3.327      5.691
REMARK  Name = 11677589
REMARK  7 active torsions:
REMARK  status: ('A' for Active; 'I' for Inactive)
REMARK    1  A    between atoms: C_1  and  N_7
REMARK    2  A    between atoms: C_2  and  C_20
REMARK    3  A    between atoms: C_11  and  C_18
REMARK    4  A    between atoms: C_20  and  C_21
REMARK    5  A    between atoms: C_21  and  N_23
REMARK    6  A    between atoms: N_24  and  S_28
REMARK    7  A    between atoms: S_28  and  C_31
REMARK                            x       y       z     vdW  Elec       q    Type
REMARK                         _______ _______ _______ _____ _____    ______ ____
ROOT
ATOM      1  C   UNL     1      32.698  -7.954 -21.873  0.00  0.00    +0.058 C 
ATOM      2  C   UNL     1      33.028 -10.696 -22.153  0.00  0.00    -0.020 C 
ATOM      3  C   UNL     1      31.800  -8.817 -21.260  0.00  0.00    +0.015 C 
ATOM      4  C   UNL     1      33.759  -8.443 -22.625  0.00  0.00    +0.015 C 
ATOM      5  C   UNL     1      31.966 -10.195 -21.401  0.00  0.00    -0.003 C 
ATOM      6  C   UNL     1      33.925  -9.821 -22.766  0.00  0.00    -0.003 C 
ENDROOT
BRANCH   1   7
ATOM      7  N   UNL     1      32.533  -6.575 -21.733  0.00  0.00    -0.242 N 
ATOM      8  N   UNL     1      32.231  -4.603 -20.751  0.00  0.00    -0.387 NA
ATOM      9  N   UNL     1      32.373  -3.358 -24.237  0.00  0.00    -0.408 NA
ATOM     10  C   UNL     1      32.513  -5.657 -22.752  0.00  0.00    +0.091 C 
ATOM     11  C   UNL     1      32.362  -5.897 -20.558  0.00  0.00    +0.168 C 
ATOM     12  C   UNL     1      32.323  -4.436 -22.112  0.00  0.00    +0.172 C 
ATOM     13  C   UNL     1      32.638  -5.781 -24.128  0.00  0.00    +0.045 C 
ATOM     14  C   UNL     1      32.256  -3.278 -22.888  0.00  0.00    +0.140 C 
ATOM     15  C   UNL     1      32.557  -4.574 -24.808  0.00  0.00    +0.110 C 
ATOM     16  C   UNL     1      32.056  -1.918 -22.309  0.00  0.00    +0.069 C 
ATOM     17  C   UNL     1      32.679  -4.586 -26.297  0.00  0.00    +0.066 C 
BRANCH  11  18
ATOM     18  C   UNL     1      32.331  -6.575 -19.244  0.00  0.00    +0.075 C 
ATOM     19  C   UNL     1      32.333  -5.589 -18.071  0.00  0.00    +0.009 C 
ENDBRANCH  11  18
ENDBRANCH   1   7
BRANCH   2  20
ATOM     20  C   UNL     1      33.204 -12.170 -22.304  0.00  0.00    +0.048 C 
BRANCH  20  21
ATOM     21  C   UNL     1      34.581 -12.671 -21.852  0.00  0.00    +0.096 C 
BRANCH  21  23
ATOM     22  O   UNL     1      35.844 -14.913 -23.129  0.00  0.00    -0.251 OA
ATOM     23  N   UNL     1      34.549 -14.043 -21.422  0.00  0.00    -0.287 N 
ATOM     24  N   UNL     1      35.007 -16.343 -21.481  0.00  0.00    -0.169 N 
ATOM     25  C   UNL     1      35.190 -15.066 -22.102  0.00  0.00    +0.319 C 
ATOM     26  H   UNL     1      34.046 -14.266 -20.605  0.00  0.00    +0.151 HD
ATOM     27  H   UNL     1      34.462 -16.373 -20.662  0.00  0.00    +0.178 HD
BRANCH  24  28
ATOM     28  S   UNL     1      35.654 -17.820 -22.048  0.00  0.00    +0.077 S 
ATOM     29  O   UNL     1      35.061 -18.144 -23.331  0.00  0.00    -0.150 OA
ATOM     30  O   UNL     1      37.096 -17.803 -21.888  0.00  0.00    -0.150 OA
BRANCH  28  31
ATOM     31  C   UNL     1      35.021 -18.951 -20.847  0.00  0.00    +0.125 C 
ATOM     32  C   UNL     1      33.652 -19.132 -20.745  0.00  0.00    +0.020 C 
ATOM     33  C   UNL     1      35.904 -19.635 -20.031  0.00  0.00    +0.020 C 
ATOM     34  C   UNL     1      34.028 -20.722 -18.966  0.00  0.00    -0.022 C 
ATOM     35  C   UNL     1      33.152 -20.025 -19.796  0.00  0.00    -0.003 C 
ATOM     36  C   UNL     1      35.404 -20.528 -19.082  0.00  0.00    -0.003 C 
ATOM     37  C   UNL     1      33.494 -21.678 -17.953  0.00  0.00    +0.031 C 
ENDBRANCH  28  31
ENDBRANCH  24  28
ENDBRANCH  21  23
ENDBRANCH  20  21
ENDBRANCH   2  20
TORSDOF 7
ENDMDL
