MODEL 1
REMARK VINA RESULT:     -11.3      0.000      0.000
REMARK  Name = 10172943
REMARK  7 active torsions:
REMARK  status: ('A' for Active; 'I' for Inactive)
REMARK    1  A    between atoms: O_1  and  C_3
REMARK    2  A    between atoms: O_1  and  C_19
REMARK    3  A    between atoms: C_4  and  C_11
REMARK    4  A    between atoms: C_19  and  C_20
REMARK    5  A    between atoms: C_20  and  N_21
REMARK    6  A    between atoms: C_20  and  C_25
REMARK    7  A    between atoms: C_25  and  C_27
REMARK                            x       y       z     vdW  Elec       q    Type
REMARK                         _______ _______ _______ _____ _____    ______ ____
ROOT
ATOM      1  O   UNL     1      34.107  -9.049 -24.511  0.00  0.00    -0.476 OA
ENDROOT
BRANCH   1   3
ATOM      2  N   UNL     1      33.588 -12.342 -25.982  0.00  0.00    -0.239 NA
ATOM      3  C   UNL     1      34.029 -10.414 -24.615  0.00  0.00    +0.158 C 
ATOM      4  C   UNL     1      34.213 -12.598 -23.660  0.00  0.00    +0.022 C 
ATOM      5  C   UNL     1      34.298 -11.218 -23.522  0.00  0.00    +0.040 C 
ATOM      6  C   UNL     1      33.682 -11.005 -25.810  0.00  0.00    +0.136 C 
ATOM      7  C   UNL     1      33.856 -13.107 -24.899  0.00  0.00    +0.099 C 
BRANCH   4  11
ATOM      8  N   UNL     1      35.675 -17.040 -20.229  0.00  0.00    -0.280 N 
ATOM      9  N   UNL     1      35.285 -16.019 -19.440  0.00  0.00    -0.173 NA
ATOM     10  C   UNL     1      35.172 -15.491 -21.646  0.00  0.00    +0.032 A 
ATOM     11  C   UNL     1      34.486 -13.476 -22.546  0.00  0.00    +0.002 C 
ATOM     12  C   UNL     1      34.963 -15.032 -20.293  0.00  0.00    +0.102 A 
ATOM     13  C   UNL     1      34.959 -14.778 -22.819  0.00  0.00    +0.003 C 
ATOM     14  C   UNL     1      35.627 -16.777 -21.567  0.00  0.00    +0.053 A 
ATOM     15  C   UNL     1      34.265 -12.978 -21.219  0.00  0.00    +0.002 C 
ATOM     16  C   UNL     1      34.492 -13.730 -20.045  0.00  0.00    +0.021 C 
ATOM     17  C   UNL     1      36.019 -17.777 -22.574  0.00  0.00    +0.051 C 
ATOM     18  H   UNL     1      35.970 -17.907 -19.869  0.00  0.00    +0.189 HD
ENDBRANCH   4  11
ENDBRANCH   1   3
BRANCH   1  19
ATOM     19  C   UNL     1      34.611  -8.527 -23.288  0.00  0.00    +0.184 C 
BRANCH  19  20
ATOM     20  C   UNL     1      34.034  -7.140 -22.979  0.00  0.00    -0.017 C 
BRANCH  20  21
ATOM     21  N   UNL     1      33.933  -6.383 -24.233  0.00  0.00    +0.384 N 
ATOM     22  H   UNL     1      33.104  -5.789 -24.205  0.00  0.00    -0.089 HD
ATOM     23  H   UNL     1      33.860  -7.033 -25.016  0.00  0.00    -0.089 HD
ATOM     24  H   UNL     1      34.764  -5.804 -24.348  0.00  0.00    -0.089 HD
ENDBRANCH  20  21
BRANCH  20  25
ATOM     25  C   UNL     1      32.643  -7.184 -22.292  0.00  0.00    +0.009 C 
BRANCH  25  27
ATOM     26  N   UNL     1      33.022  -7.676 -18.694  0.00  0.00    -0.312 N 
ATOM     27  C   UNL     1      32.670  -7.633 -20.885  0.00  0.00    -0.008 C 
ATOM     28  C   UNL     1      32.177  -8.868 -20.379  0.00  0.00    +0.011 C 
ATOM     29  C   UNL     1      32.410  -8.870 -19.002  0.00  0.00    +0.048 C 
ATOM     30  C   UNL     1      33.185  -6.921 -19.825  0.00  0.00    +0.058 C 
ATOM     31  C   UNL     1      31.552  -9.988 -20.962  0.00  0.00    +0.001 C 
ATOM     32  C   UNL     1      32.047  -9.940 -18.176  0.00  0.00    +0.015 C 
ATOM     33  C   UNL     1      31.183 -11.065 -20.148  0.00  0.00    +0.000 C 
ATOM     34  C   UNL     1      31.428 -11.039 -18.777  0.00  0.00    +0.001 C 
ATOM     35  H   UNL     1      33.304  -7.404 -17.790  0.00  0.00    +0.152 HD
ENDBRANCH  25  27
ENDBRANCH  20  25
ENDBRANCH  19  20
ENDBRANCH   1  19
TORSDOF 7
ENDMDL
MODEL 2
REMARK VINA RESULT:     -11.3      8.103     12.038
REMARK  Name = 10172943
REMARK  7 active torsions:
REMARK  status: ('A' for Active; 'I' for Inactive)
REMARK    1  A    between atoms: O_1  and  C_3
REMARK    2  A    between atoms: O_1  and  C_19
REMARK    3  A    between atoms: C_4  and  C_11
REMARK    4  A    between atoms: C_19  and  C_20
REMARK    5  A    between atoms: C_20  and  N_21
REMARK    6  A    between atoms: C_20  and  C_25
REMARK    7  A    between atoms: C_25  and  C_27
REMARK                            x       y       z     vdW  Elec       q    Type
REMARK                         _______ _______ _______ _____ _____    ______ ____
ROOT
ATOM      1  O   UNL     1      33.063 -21.863 -18.382  0.00  0.00    -0.476 OA
ENDROOT
BRANCH   1   3
ATOM      2  N   UNL     1      31.812 -22.710 -15.066  0.00  0.00    -0.239 NA
ATOM      3  C   UNL     1      33.066 -22.213 -17.056  0.00  0.00    +0.158 C 
ATOM      4  C   UNL     1      34.229 -22.775 -15.044  0.00  0.00    +0.022 C 
ATOM      5  C   UNL     1      34.258 -22.420 -16.387  0.00  0.00    +0.040 C 
ATOM      6  C   UNL     1      31.880 -22.366 -16.371  0.00  0.00    +0.136 C 
ATOM      7  C   UNL     1      32.991 -22.906 -14.434  0.00  0.00    +0.099 C 
BRANCH   4  11
ATOM      8  N   UNL     1      38.239 -23.703 -10.959  0.00  0.00    -0.280 N 
ATOM      9  N   UNL     1      38.868 -23.648 -12.150  0.00  0.00    -0.173 NA
ATOM     10  C   UNL     1      36.624 -23.358 -12.348  0.00  0.00    +0.032 A 
ATOM     11  C   UNL     1      35.450 -23.002 -14.307  0.00  0.00    +0.002 C 
ATOM     12  C   UNL     1      37.887 -23.432 -13.043  0.00  0.00    +0.102 A 
ATOM     13  C   UNL     1      35.369 -23.147 -12.904  0.00  0.00    +0.003 C 
ATOM     14  C   UNL     1      36.887 -23.535 -11.019  0.00  0.00    +0.053 A 
ATOM     15  C   UNL     1      36.682 -23.069 -15.038  0.00  0.00    +0.002 C 
ATOM     16  C   UNL     1      37.944 -23.285 -14.441  0.00  0.00    +0.021 C 
ATOM     17  C   UNL     1      36.041 -23.569  -9.814  0.00  0.00    +0.051 C 
ATOM     18  H   UNL     1      38.718 -23.853 -10.112  0.00  0.00    +0.189 HD
ENDBRANCH   4  11
ENDBRANCH   1   3
BRANCH   1  19
ATOM     19  C   UNL     1      34.298 -21.426 -18.932  0.00  0.00    +0.184 C 
BRANCH  19  20
ATOM     20  C   UNL     1      34.096 -20.344 -20.001  0.00  0.00    -0.017 C 
BRANCH  20  21
ATOM     21  N   UNL     1      32.758 -19.764 -19.833  0.00  0.00    +0.384 N 
ATOM     22  H   UNL     1      32.429 -19.937 -18.883  0.00  0.00    -0.089 HD
ATOM     23  H   UNL     1      32.116 -20.193 -20.500  0.00  0.00    -0.089 HD
ATOM     24  H   UNL     1      32.800 -18.759 -20.001  0.00  0.00    -0.089 HD
ENDBRANCH  20  21
BRANCH  20  25
ATOM     25  C   UNL     1      35.157 -19.213 -19.949  0.00  0.00    +0.009 C 
BRANCH  25  27
ATOM     26  N   UNL     1      35.160 -17.568 -23.209  0.00  0.00    -0.312 N 
ATOM     27  C   UNL     1      35.144 -18.308 -21.116  0.00  0.00    -0.008 C 
ATOM     28  C   UNL     1      35.080 -16.887 -21.086  0.00  0.00    +0.011 C 
ATOM     29  C   UNL     1      35.092 -16.448 -22.412  0.00  0.00    +0.048 C 
ATOM     30  C   UNL     1      35.193 -18.698 -22.435  0.00  0.00    +0.058 C 
ATOM     31  C   UNL     1      35.012 -15.929 -20.055  0.00  0.00    +0.001 C 
ATOM     32  C   UNL     1      35.039 -15.093 -22.759  0.00  0.00    +0.015 C 
ATOM     33  C   UNL     1      34.958 -14.570 -20.388  0.00  0.00    +0.000 C 
ATOM     34  C   UNL     1      34.971 -14.161 -21.720  0.00  0.00    +0.001 C 
ATOM     35  H   UNL     1      35.184 -17.559 -24.193  0.00  0.00    +0.152 HD
ENDBRANCH  25  27
ENDBRANCH  20  25
ENDBRANCH  19  20
ENDBRANCH   1  19
TORSDOF 7
ENDMDL
MODEL 3
REMARK VINA RESULT:     -11.2      3.939      9.159
REMARK  Name = 10172943
REMARK  7 active torsions:
REMARK  status: ('A' for Active; 'I' for Inactive)
REMARK    1  A    between atoms: O_1  and  C_3
REMARK    2  A    between atoms: O_1  and  C_19
REMARK    3  A    between atoms: C_4  and  C_11
REMARK    4  A    between atoms: C_19  and  C_20
REMARK    5  A    between atoms: C_20  and  N_21
REMARK    6  A    between atoms: C_20  and  C_25
REMARK    7  A    between atoms: C_25  and  C_27
REMARK                            x       y       z     vdW  Elec       q    Type
REMARK                         _______ _______ _______ _____ _____    ______ ____
ROOT
ATOM      1  O   UNL     1      35.964 -16.586 -22.737  0.00  0.00    -0.476 OA
ENDROOT
BRANCH   1   3
ATOM      2  N   UNL     1      33.899 -15.308 -25.453  0.00  0.00    -0.239 NA
ATOM      3  C   UNL     1      35.171 -15.731 -23.457  0.00  0.00    +0.158 C 
ATOM      4  C   UNL     1      34.034 -13.642 -23.706  0.00  0.00    +0.022 C 
ATOM      5  C   UNL     1      34.842 -14.486 -22.954  0.00  0.00    +0.040 C 
ATOM      6  C   UNL     1      34.686 -16.101 -24.693  0.00  0.00    +0.136 C 
ATOM      7  C   UNL     1      33.593 -14.095 -24.939  0.00  0.00    +0.099 C 
BRANCH   4  11
ATOM      8  N   UNL     1      31.888  -9.151 -20.730  0.00  0.00    -0.280 N 
ATOM      9  N   UNL     1      32.582  -8.659 -21.776  0.00  0.00    -0.173 NA
ATOM     10  C   UNL     1      32.608 -10.930 -21.718  0.00  0.00    +0.032 A 
ATOM     11  C   UNL     1      33.665 -12.334 -23.218  0.00  0.00    +0.002 C 
ATOM     12  C   UNL     1      33.047  -9.746 -22.417  0.00  0.00    +0.102 A 
ATOM     13  C   UNL     1      32.873 -12.252 -22.052  0.00  0.00    +0.003 C 
ATOM     14  C   UNL     1      31.871 -10.512 -20.646  0.00  0.00    +0.053 A 
ATOM     15  C   UNL     1      34.124 -11.185 -23.944  0.00  0.00    +0.002 C 
ATOM     16  C   UNL     1      33.836  -9.851 -23.577  0.00  0.00    +0.021 C 
ATOM     17  C   UNL     1      31.162 -11.219 -19.566  0.00  0.00    +0.051 C 
ATOM     18  H   UNL     1      31.430  -8.573 -20.079  0.00  0.00    +0.189 HD
ENDBRANCH   4  11
ENDBRANCH   1   3
BRANCH   1  19
ATOM     19  C   UNL     1      35.430 -17.873 -22.455  0.00  0.00    +0.184 C 
BRANCH  19  20
ATOM     20  C   UNL     1      35.721 -18.308 -21.013  0.00  0.00    -0.017 C 
BRANCH  20  21
ATOM     21  N   UNL     1      35.525 -17.154 -20.127  0.00  0.00    +0.384 N 
ATOM     22  H   UNL     1      36.372 -16.998 -19.581  0.00  0.00    -0.089 HD
ATOM     23  H   UNL     1      34.743 -17.338 -19.498  0.00  0.00    -0.089 HD
ATOM     24  H   UNL     1      35.323 -16.326 -20.687  0.00  0.00    -0.089 HD
ENDBRANCH  20  21
BRANCH  20  25
ATOM     25  C   UNL     1      34.833 -19.485 -20.528  0.00  0.00    +0.009 C 
BRANCH  25  27
ATOM     26  N   UNL     1      36.800 -21.072 -17.893  0.00  0.00    -0.312 N 
ATOM     27  C   UNL     1      35.378 -20.226 -19.372  0.00  0.00    -0.008 C 
ATOM     28  C   UNL     1      34.637 -20.995 -18.432  0.00  0.00    +0.011 C 
ATOM     29  C   UNL     1      35.553 -21.515 -17.515  0.00  0.00    +0.048 C 
ATOM     30  C   UNL     1      36.706 -20.293 -19.015  0.00  0.00    +0.058 C 
ATOM     31  C   UNL     1      33.271 -21.299 -18.273  0.00  0.00    +0.001 C 
ATOM     32  C   UNL     1      35.168 -22.327 -16.442  0.00  0.00    +0.015 C 
ATOM     33  C   UNL     1      32.872 -22.110 -17.204  0.00  0.00    +0.000 C 
ATOM     34  C   UNL     1      33.808 -22.615 -16.304  0.00  0.00    +0.001 C 
ATOM     35  H   UNL     1      37.639 -21.286 -17.424  0.00  0.00    +0.152 HD
ENDBRANCH  25  27
ENDBRANCH  20  25
ENDBRANCH  19  20
ENDBRANCH   1  19
TORSDOF 7
ENDMDL
MODEL 4
REMARK VINA RESULT:     -11.1      7.310     12.600
REMARK  Name = 10172943
REMARK  7 active torsions:
REMARK  status: ('A' for Active; 'I' for Inactive)
REMARK    1  A    between atoms: O_1  and  C_3
REMARK    2  A    between atoms: O_1  and  C_19
REMARK    3  A    between atoms: C_4  and  C_11
REMARK    4  A    between atoms: C_19  and  C_20
REMARK    5  A    between atoms: C_20  and  N_21
REMARK    6  A    between atoms: C_20  and  C_25
REMARK    7  A    between atoms: C_25  and  C_27
REMARK                            x       y       z     vdW  Elec       q    Type
REMARK                         _______ _______ _______ _____ _____    ______ ____
ROOT
ATOM      1  O   UNL     1      33.334 -21.575 -18.190  0.00  0.00    -0.476 OA
ENDROOT
BRANCH   1   3
ATOM      2  N   UNL     1      36.805 -20.691 -18.859  0.00  0.00    -0.239 NA
ATOM      3  C   UNL     1      34.416 -20.932 -18.733  0.00  0.00    +0.158 C 
ATOM      4  C   UNL     1      35.357 -19.294 -20.199  0.00  0.00    +0.022 C 
ATOM      5  C   UNL     1      34.240 -19.925 -19.664  0.00  0.00    +0.040 C 
ATOM      6  C   UNL     1      35.696 -21.282 -18.362  0.00  0.00    +0.136 C 
ATOM      7  C   UNL     1      36.606 -19.709 -19.767  0.00  0.00    +0.099 C 
BRANCH   4  11
ATOM      8  N   UNL     1      34.838 -14.214 -22.948  0.00  0.00    -0.280 N 
ATOM      9  N   UNL     1      34.832 -15.190 -23.879  0.00  0.00    -0.173 NA
ATOM     10  C   UNL     1      35.037 -16.012 -21.771  0.00  0.00    +0.032 A 
ATOM     11  C   UNL     1      35.219 -18.237 -21.174  0.00  0.00    +0.002 C 
ATOM     12  C   UNL     1      34.954 -16.329 -23.177  0.00  0.00    +0.102 A 
ATOM     13  C   UNL     1      35.169 -16.903 -20.714  0.00  0.00    +0.003 C 
ATOM     14  C   UNL     1      34.960 -14.652 -21.663  0.00  0.00    +0.053 A 
ATOM     15  C   UNL     1      35.141 -18.598 -22.560  0.00  0.00    +0.002 C 
ATOM     16  C   UNL     1      35.006 -17.666 -23.613  0.00  0.00    +0.021 C 
ATOM     17  C   UNL     1      34.987 -13.724 -20.520  0.00  0.00    +0.051 C 
ATOM     18  H   UNL     1      34.761 -13.260 -23.179  0.00  0.00    +0.189 HD
ENDBRANCH   4  11
ENDBRANCH   1   3
BRANCH   1  19
ATOM     19  C   UNL     1      33.597 -22.758 -17.448  0.00  0.00    +0.184 C 
BRANCH  19  20
ATOM     20  C   UNL     1      33.468 -22.525 -15.937  0.00  0.00    -0.017 C 
BRANCH  20  21
ATOM     21  N   UNL     1      32.043 -22.534 -15.581  0.00  0.00    +0.384 N 
ATOM     22  H   UNL     1      31.649 -23.453 -15.784  0.00  0.00    -0.089 HD
ATOM     23  H   UNL     1      31.553 -21.824 -16.125  0.00  0.00    -0.089 HD
ATOM     24  H   UNL     1      31.941 -22.332 -14.587  0.00  0.00    -0.089 HD
ENDBRANCH  20  21
BRANCH  20  25
ATOM     25  C   UNL     1      34.220 -23.577 -15.079  0.00  0.00    +0.009 C 
BRANCH  25  27
ATOM     26  N   UNL     1      37.573 -22.183 -14.703  0.00  0.00    -0.312 N 
ATOM     27  C   UNL     1      35.650 -23.280 -14.862  0.00  0.00    -0.008 C 
ATOM     28  C   UNL     1      36.663 -24.209 -14.495  0.00  0.00    +0.011 C 
ATOM     29  C   UNL     1      37.860 -23.495 -14.402  0.00  0.00    +0.048 C 
ATOM     30  C   UNL     1      36.241 -22.042 -14.984  0.00  0.00    +0.058 C 
ATOM     31  C   UNL     1      36.676 -25.592 -14.230  0.00  0.00    +0.001 C 
ATOM     32  C   UNL     1      39.074 -24.099 -14.056  0.00  0.00    +0.015 C 
ATOM     33  C   UNL     1      37.883 -26.210 -13.883  0.00  0.00    +0.000 C 
ATOM     34  C   UNL     1      39.063 -25.473 -13.798  0.00  0.00    +0.001 C 
ATOM     35  H   UNL     1      38.232 -21.452 -14.717  0.00  0.00    +0.152 HD
ENDBRANCH  25  27
ENDBRANCH  20  25
ENDBRANCH  19  20
ENDBRANCH   1  19
TORSDOF 7
ENDMDL
MODEL 5
REMARK VINA RESULT:     -11.1      7.984     11.724
REMARK  Name = 10172943
REMARK  7 active torsions:
REMARK  status: ('A' for Active; 'I' for Inactive)
REMARK    1  A    between atoms: O_1  and  C_3
REMARK    2  A    between atoms: O_1  and  C_19
REMARK    3  A    between atoms: C_4  and  C_11
REMARK    4  A    between atoms: C_19  and  C_20
REMARK    5  A    between atoms: C_20  and  N_21
REMARK    6  A    between atoms: C_20  and  C_25
REMARK    7  A    between atoms: C_25  and  C_27
REMARK                            x       y       z     vdW  Elec       q    Type
REMARK                         _______ _______ _______ _____ _____    ______ ____
ROOT
ATOM      1  O   UNL     1      34.542 -21.759 -18.788  0.00  0.00    -0.476 OA
ENDROOT
BRANCH   1   3
ATOM      2  N   UNL     1      32.082 -22.300 -16.154  0.00  0.00    -0.239 NA
ATOM      3  C   UNL     1      34.019 -22.090 -17.565  0.00  0.00    +0.158 C 
ATOM      4  C   UNL     1      34.280 -22.860 -15.316  0.00  0.00    +0.022 C 
ATOM      5  C   UNL     1      34.841 -22.531 -16.544  0.00  0.00    +0.040 C 
ATOM      6  C   UNL     1      32.664 -21.989 -17.334  0.00  0.00    +0.136 C 
ATOM      7  C   UNL     1      32.908 -22.728 -15.172  0.00  0.00    +0.099 C 
BRANCH   4  11
ATOM      8  N   UNL     1      38.567 -24.859 -11.961  0.00  0.00    -0.280 N 
ATOM      9  N   UNL     1      37.491 -24.655 -11.177  0.00  0.00    -0.173 NA
ATOM     10  C   UNL     1      37.085 -24.126 -13.349  0.00  0.00    +0.032 A 
ATOM     11  C   UNL     1      35.102 -23.326 -14.223  0.00  0.00    +0.002 C 
ATOM     12  C   UNL     1      36.543 -24.196 -12.012  0.00  0.00    +0.102 A 
ATOM     13  C   UNL     1      36.433 -23.705 -14.500  0.00  0.00    +0.003 C 
ATOM     14  C   UNL     1      38.380 -24.557 -13.278  0.00  0.00    +0.053 A 
ATOM     15  C   UNL     1      34.522 -23.378 -12.912  0.00  0.00    +0.002 C 
ATOM     16  C   UNL     1      35.213 -23.812 -11.759  0.00  0.00    +0.021 C 
ATOM     17  C   UNL     1      39.450 -24.718 -14.276  0.00  0.00    +0.051 C 
ATOM     18  H   UNL     1      39.422 -25.200 -11.611  0.00  0.00    +0.189 HD
ENDBRANCH   4  11
ENDBRANCH   1   3
BRANCH   1  19
ATOM     19  C   UNL     1      35.485 -20.696 -18.815  0.00  0.00    +0.184 C 
BRANCH  19  20
ATOM     20  C   UNL     1      35.315 -19.815 -20.060  0.00  0.00    -0.017 C 
BRANCH  20  21
ATOM     21  N   UNL     1      33.902 -19.433 -20.176  0.00  0.00    +0.384 N 
ATOM     22  H   UNL     1      33.346 -19.992 -19.529  0.00  0.00    -0.089 HD
ATOM     23  H   UNL     1      33.583 -19.598 -21.130  0.00  0.00    -0.089 HD
ATOM     24  H   UNL     1      33.798 -18.445 -19.948  0.00  0.00    -0.089 HD
ENDBRANCH  20  21
BRANCH  20  25
ATOM     25  C   UNL     1      36.194 -18.536 -20.041  0.00  0.00    +0.009 C 
BRANCH  25  27
ATOM     26  N   UNL     1      35.716 -16.706 -23.164  0.00  0.00    -0.312 N 
ATOM     27  C   UNL     1      35.913 -17.585 -21.136  0.00  0.00    -0.008 C 
ATOM     28  C   UNL     1      35.419 -16.258 -20.999  0.00  0.00    +0.011 C 
ATOM     29  C   UNL     1      35.305 -15.728 -22.286  0.00  0.00    +0.048 C 
ATOM     30  C   UNL     1      36.086 -17.832 -22.479  0.00  0.00    +0.058 C 
ATOM     31  C   UNL     1      35.057 -15.453 -19.901  0.00  0.00    +0.001 C 
ATOM     32  C   UNL     1      34.844 -14.429 -22.531  0.00  0.00    +0.015 C 
ATOM     33  C   UNL     1      34.594 -14.152 -20.130  0.00  0.00    +0.000 C 
ATOM     34  C   UNL     1      34.490 -13.650 -21.426  0.00  0.00    +0.001 C 
ATOM     35  H   UNL     1      35.741 -16.609 -24.144  0.00  0.00    +0.152 HD
ENDBRANCH  25  27
ENDBRANCH  20  25
ENDBRANCH  19  20
ENDBRANCH   1  19
TORSDOF 7
ENDMDL
MODEL 6
REMARK VINA RESULT:     -11.0      4.152      9.399
REMARK  Name = 10172943
REMARK  7 active torsions:
REMARK  status: ('A' for Active; 'I' for Inactive)
REMARK    1  A    between atoms: O_1  and  C_3
REMARK    2  A    between atoms: O_1  and  C_19
REMARK    3  A    between atoms: C_4  and  C_11
REMARK    4  A    between atoms: C_19  and  C_20
REMARK    5  A    between atoms: C_20  and  N_21
REMARK    6  A    between atoms: C_20  and  C_25
REMARK    7  A    between atoms: C_25  and  C_27
REMARK                            x       y       z     vdW  Elec       q    Type
REMARK                         _______ _______ _______ _____ _____    ______ ____
ROOT
ATOM      1  O   UNL     1      36.077 -16.723 -22.109  0.00  0.00    -0.476 OA
ENDROOT
BRANCH   1   3
ATOM      2  N   UNL     1      34.270 -14.955 -24.734  0.00  0.00    -0.239 NA
ATOM      3  C   UNL     1      35.280 -15.787 -22.716  0.00  0.00    +0.158 C 
ATOM      4  C   UNL     1      33.893 -13.842 -22.621  0.00  0.00    +0.022 C 
ATOM      5  C   UNL     1      34.697 -14.774 -21.977  0.00  0.00    +0.040 C 
ATOM      6  C   UNL     1      35.046 -15.843 -24.073  0.00  0.00    +0.136 C 
ATOM      7  C   UNL     1      33.712 -13.974 -23.989  0.00  0.00    +0.099 C 
BRANCH   4  11
ATOM      8  N   UNL     1      31.776  -8.754 -20.814  0.00  0.00    -0.280 N 
ATOM      9  N   UNL     1      31.499  -9.675 -19.869  0.00  0.00    -0.173 NA
ATOM     10  C   UNL     1      32.621 -10.563 -21.634  0.00  0.00    +0.032 A 
ATOM     11  C   UNL     1      33.264 -12.768 -21.888  0.00  0.00    +0.002 C 
ATOM     12  C   UNL     1      32.014 -10.820 -20.349  0.00  0.00    +0.102 A 
ATOM     13  C   UNL     1      33.261 -11.477 -22.460  0.00  0.00    +0.003 C 
ATOM     14  C   UNL     1      32.449  -9.234 -21.899  0.00  0.00    +0.053 A 
ATOM     15  C   UNL     1      32.673 -13.069 -20.615  0.00  0.00    +0.002 C 
ATOM     16  C   UNL     1      32.028 -12.115 -19.798  0.00  0.00    +0.021 C 
ATOM     17  C   UNL     1      32.831  -8.367 -23.026  0.00  0.00    +0.051 C 
ATOM     18  H   UNL     1      31.512  -7.810 -20.727  0.00  0.00    +0.189 HD
ENDBRANCH   4  11
ENDBRANCH   1   3
BRANCH   1  19
ATOM     19  C   UNL     1      35.671 -17.173 -20.823  0.00  0.00    +0.184 C 
BRANCH  19  20
ATOM     20  C   UNL     1      35.024 -18.563 -20.884  0.00  0.00    -0.017 C 
BRANCH  20  21
ATOM     21  N   UNL     1      34.968 -18.994 -22.286  0.00  0.00    +0.384 N 
ATOM     22  H   UNL     1      35.014 -18.176 -22.894  0.00  0.00    -0.089 HD
ATOM     23  H   UNL     1      34.094 -19.493 -22.453  0.00  0.00    -0.089 HD
ATOM     24  H   UNL     1      35.755 -19.611 -22.484  0.00  0.00    -0.089 HD
ENDBRANCH  20  21
BRANCH  20  25
ATOM     25  C   UNL     1      35.774 -19.634 -20.047  0.00  0.00    +0.009 C 
BRANCH  25  27
ATOM     26  N   UNL     1      33.124 -21.599 -18.482  0.00  0.00    -0.312 N 
ATOM     27  C   UNL     1      34.897 -20.483 -19.215  0.00  0.00    -0.008 C 
ATOM     28  C   UNL     1      35.249 -21.126 -17.995  0.00  0.00    +0.011 C 
ATOM     29  C   UNL     1      34.119 -21.819 -17.556  0.00  0.00    +0.048 C 
ATOM     30  C   UNL     1      33.584 -20.792 -19.488  0.00  0.00    +0.058 C 
ATOM     31  C   UNL     1      36.424 -21.186 -17.221  0.00  0.00    +0.001 C 
ATOM     32  C   UNL     1      34.105 -22.572 -16.376  0.00  0.00    +0.015 C 
ATOM     33  C   UNL     1      36.426 -21.935 -16.039  0.00  0.00    +0.000 C 
ATOM     34  C   UNL     1      35.283 -22.617 -15.625  0.00  0.00    +0.001 C 
ATOM     35  H   UNL     1      32.212 -21.967 -18.427  0.00  0.00    +0.152 HD
ENDBRANCH  25  27
ENDBRANCH  20  25
ENDBRANCH  19  20
ENDBRANCH   1  19
TORSDOF 7
ENDMDL
MODEL 7
REMARK VINA RESULT:     -10.9      2.409      3.658
REMARK  Name = 10172943
REMARK  7 active torsions:
REMARK  status: ('A' for Active; 'I' for Inactive)
REMARK    1  A    between atoms: O_1  and  C_3
REMARK    2  A    between atoms: O_1  and  C_19
REMARK    3  A    between atoms: C_4  and  C_11
REMARK    4  A    between atoms: C_19  and  C_20
REMARK    5  A    between atoms: C_20  and  N_21
REMARK    6  A    between atoms: C_20  and  C_25
REMARK    7  A    between atoms: C_25  and  C_27
REMARK                            x       y       z     vdW  Elec       q    Type
REMARK                         _______ _______ _______ _____ _____    ______ ____
ROOT
ATOM      1  O   UNL     1      34.562 -12.922 -22.858  0.00  0.00    -0.476 OA
ENDROOT
BRANCH   1   3
ATOM      2  N   UNL     1      34.286 -15.952 -24.864  0.00  0.00    -0.239 NA
ATOM      3  C   UNL     1      34.621 -14.248 -23.201  0.00  0.00    +0.158 C 
ATOM      4  C   UNL     1      35.109 -16.527 -22.665  0.00  0.00    +0.022 C 
ATOM      5  C   UNL     1      35.057 -15.191 -22.287  0.00  0.00    +0.040 C 
ATOM      6  C   UNL     1      34.250 -14.662 -24.461  0.00  0.00    +0.136 C 
ATOM      7  C   UNL     1      34.715 -16.854 -23.953  0.00  0.00    +0.099 C 
BRANCH   4  11
ATOM      8  N   UNL     1      35.506 -20.871 -18.843  0.00  0.00    -0.280 N 
ATOM      9  N   UNL     1      36.756 -20.449 -19.120  0.00  0.00    -0.173 NA
ATOM     10  C   UNL     1      35.180 -19.275 -20.260  0.00  0.00    +0.032 A 
ATOM     11  C   UNL     1      35.558 -17.545 -21.743  0.00  0.00    +0.002 C 
ATOM     12  C   UNL     1      36.590 -19.450 -20.004  0.00  0.00    +0.102 A 
ATOM     13  C   UNL     1      34.587 -18.351 -21.110  0.00  0.00    +0.003 C 
ATOM     14  C   UNL     1      34.518 -20.200 -19.501  0.00  0.00    +0.053 A 
ATOM     15  C   UNL     1      36.968 -17.683 -21.520  0.00  0.00    +0.002 C 
ATOM     16  C   UNL     1      37.540 -18.635 -20.646  0.00  0.00    +0.021 C 
ATOM     17  C   UNL     1      33.095 -20.530 -19.320  0.00  0.00    +0.051 C 
ATOM     18  H   UNL     1      35.321 -21.605 -18.214  0.00  0.00    +0.189 HD
ENDBRANCH   4  11
ENDBRANCH   1   3
BRANCH   1  19
ATOM     19  C   UNL     1      34.190 -12.011 -23.884  0.00  0.00    +0.184 C 
BRANCH  19  20
ATOM     20  C   UNL     1      34.391 -10.553 -23.452  0.00  0.00    -0.017 C 
BRANCH  20  21
ATOM     21  N   UNL     1      35.363  -9.926 -24.356  0.00  0.00    +0.384 N 
ATOM     22  H   UNL     1      35.444 -10.484 -25.206  0.00  0.00    -0.089 HD
ATOM     23  H   UNL     1      36.270  -9.872 -23.895  0.00  0.00    -0.089 HD
ATOM     24  H   UNL     1      35.046  -8.986 -24.595  0.00  0.00    -0.089 HD
ENDBRANCH  20  21
BRANCH  20  25
ATOM     25  C   UNL     1      33.081  -9.720 -23.446  0.00  0.00    +0.009 C 
BRANCH  25  27
ATOM     26  N   UNL     1      32.222  -7.835 -20.439  0.00  0.00    -0.312 N 
ATOM     27  C   UNL     1      32.685  -9.213 -22.116  0.00  0.00    -0.008 C 
ATOM     28  C   UNL     1      32.293  -9.995 -20.994  0.00  0.00    +0.011 C 
ATOM     29  C   UNL     1      32.008  -9.106 -19.955  0.00  0.00    +0.048 C 
ATOM     30  C   UNL     1      32.632  -7.889 -21.744  0.00  0.00    +0.058 C 
ATOM     31  C   UNL     1      32.152 -11.377 -20.761  0.00  0.00    +0.001 C 
ATOM     32  C   UNL     1      31.587  -9.533 -18.690  0.00  0.00    +0.015 C 
ATOM     33  C   UNL     1      31.733 -11.819 -19.501  0.00  0.00    +0.000 C 
ATOM     34  C   UNL     1      31.455 -10.909 -18.483  0.00  0.00    +0.001 C 
ATOM     35  H   UNL     1      32.099  -7.007 -19.921  0.00  0.00    +0.152 HD
ENDBRANCH  25  27
ENDBRANCH  20  25
ENDBRANCH  19  20
ENDBRANCH   1  19
TORSDOF 7
ENDMDL
MODEL 8
REMARK VINA RESULT:     -10.9      7.425     11.102
REMARK  Name = 10172943
REMARK  7 active torsions:
REMARK  status: ('A' for Active; 'I' for Inactive)
REMARK    1  A    between atoms: O_1  and  C_3
REMARK    2  A    between atoms: O_1  and  C_19
REMARK    3  A    between atoms: C_4  and  C_11
REMARK    4  A    between atoms: C_19  and  C_20
REMARK    5  A    between atoms: C_20  and  N_21
REMARK    6  A    between atoms: C_20  and  C_25
REMARK    7  A    between atoms: C_25  and  C_27
REMARK                            x       y       z     vdW  Elec       q    Type
REMARK                         _______ _______ _______ _____ _____    ______ ____
ROOT
ATOM      1  O   UNL     1      35.378 -21.107 -19.243  0.00  0.00    -0.476 OA
ENDROOT
BRANCH   1   3
ATOM      2  N   UNL     1      36.670 -21.647 -15.879  0.00  0.00    -0.239 NA
ATOM      3  C   UNL     1      35.416 -21.476 -17.924  0.00  0.00    +0.158 C 
ATOM      4  C   UNL     1      34.369 -22.383 -15.975  0.00  0.00    +0.022 C 
ATOM      5  C   UNL     1      34.301 -22.021 -17.315  0.00  0.00    +0.040 C 
ATOM      6  C   UNL     1      36.565 -21.307 -17.183  0.00  0.00    +0.136 C 
ATOM      7  C   UNL     1      35.566 -22.179 -15.307  0.00  0.00    +0.099 C 
BRANCH   4  11
ATOM      8  N   UNL     1      29.065 -24.061 -14.335  0.00  0.00    -0.280 N 
ATOM      9  N   UNL     1      29.947 -24.546 -13.439  0.00  0.00    -0.173 NA
ATOM     10  C   UNL     1      30.962 -23.354 -15.085  0.00  0.00    +0.032 A 
ATOM     11  C   UNL     1      33.228 -22.955 -15.299  0.00  0.00    +0.002 C 
ATOM     12  C   UNL     1      31.145 -24.123 -13.877  0.00  0.00    +0.102 A 
ATOM     13  C   UNL     1      31.946 -22.742 -15.850  0.00  0.00    +0.003 C 
ATOM     14  C   UNL     1      29.621 -23.336 -15.348  0.00  0.00    +0.053 A 
ATOM     15  C   UNL     1      33.457 -23.712 -14.101  0.00  0.00    +0.002 C 
ATOM     16  C   UNL     1      32.432 -24.323 -13.345  0.00  0.00    +0.021 C 
ATOM     17  C   UNL     1      28.806 -22.733 -16.416  0.00  0.00    +0.051 C 
ATOM     18  H   UNL     1      28.096 -24.218 -14.265  0.00  0.00    +0.189 HD
ENDBRANCH   4  11
ENDBRANCH   1   3
BRANCH   1  19
ATOM     19  C   UNL     1      36.260 -20.067 -19.644  0.00  0.00    +0.184 C 
BRANCH  19  20
ATOM     20  C   UNL     1      35.600 -19.115 -20.650  0.00  0.00    -0.017 C 
BRANCH  20  21
ATOM     21  N   UNL     1      34.150 -19.342 -20.629  0.00  0.00    +0.384 N 
ATOM     22  H   UNL     1      33.832 -19.420 -19.663  0.00  0.00    -0.089 HD
ATOM     23  H   UNL     1      33.935 -20.205 -21.129  0.00  0.00    -0.089 HD
ATOM     24  H   UNL     1      33.678 -18.560 -21.082  0.00  0.00    -0.089 HD
ENDBRANCH  20  21
BRANCH  20  25
ATOM     25  C   UNL     1      35.890 -17.616 -20.368  0.00  0.00    +0.009 C 
BRANCH  25  27
ATOM     26  N   UNL     1      35.346 -15.922 -23.557  0.00  0.00    -0.312 N 
ATOM     27  C   UNL     1      35.586 -16.713 -21.497  0.00  0.00    -0.008 C 
ATOM     28  C   UNL     1      35.096 -15.380 -21.407  0.00  0.00    +0.011 C 
ATOM     29  C   UNL     1      34.954 -14.907 -22.714  0.00  0.00    +0.048 C 
ATOM     30  C   UNL     1      35.731 -17.017 -22.831  0.00  0.00    +0.058 C 
ATOM     31  C   UNL     1      34.757 -14.528 -20.337  0.00  0.00    +0.001 C 
ATOM     32  C   UNL     1      34.489 -13.619 -23.004  0.00  0.00    +0.015 C 
ATOM     33  C   UNL     1      34.290 -13.238 -20.612  0.00  0.00    +0.000 C 
ATOM     34  C   UNL     1      34.159 -12.792 -21.926  0.00  0.00    +0.001 C 
ATOM     35  H   UNL     1      35.351 -15.867 -24.540  0.00  0.00    +0.152 HD
ENDBRANCH  25  27
ENDBRANCH  20  25
ENDBRANCH  19  20
ENDBRANCH   1  19
TORSDOF 7
ENDMDL
MODEL 9
REMARK VINA RESULT:     -10.8      7.573     11.151
REMARK  Name = 10172943
REMARK  7 active torsions:
REMARK  status: ('A' for Active; 'I' for Inactive)
REMARK    1  A    between atoms: O_1  and  C_3
REMARK    2  A    between atoms: O_1  and  C_19
REMARK    3  A    between atoms: C_4  and  C_11
REMARK    4  A    between atoms: C_19  and  C_20
REMARK    5  A    between atoms: C_20  and  N_21
REMARK    6  A    between atoms: C_20  and  C_25
REMARK    7  A    between atoms: C_25  and  C_27
REMARK                            x       y       z     vdW  Elec       q    Type
REMARK                         _______ _______ _______ _____ _____    ______ ____
ROOT
ATOM      1  O   UNL     1      36.258 -20.381 -18.778  0.00  0.00    -0.476 OA
ENDROOT
BRANCH   1   3
ATOM      2  N   UNL     1      33.296 -22.239 -17.754  0.00  0.00    -0.239 NA
ATOM      3  C   UNL     1      35.434 -21.171 -18.020  0.00  0.00    +0.158 C 
ATOM      4  C   UNL     1      35.012 -22.489 -16.070  0.00  0.00    +0.022 C 
ATOM      5  C   UNL     1      35.870 -21.688 -16.814  0.00  0.00    +0.040 C 
ATOM      6  C   UNL     1      34.158 -21.465 -18.450  0.00  0.00    +0.136 C 
ATOM      7  C   UNL     1      33.746 -22.731 -16.577  0.00  0.00    +0.099 C 
BRANCH   4  11
ATOM      8  N   UNL     1      37.929 -24.908 -11.679  0.00  0.00    -0.280 N 
ATOM      9  N   UNL     1      36.676 -24.653 -11.252  0.00  0.00    -0.173 NA
ATOM     10  C   UNL     1      36.993 -24.022 -13.411  0.00  0.00    +0.032 A 
ATOM     11  C   UNL     1      35.427 -23.050 -14.805  0.00  0.00    +0.002 C 
ATOM     12  C   UNL     1      36.062 -24.099 -12.311  0.00  0.00    +0.102 A 
ATOM     13  C   UNL     1      36.755 -23.515 -14.682  0.00  0.00    +0.003 C 
ATOM     14  C   UNL     1      38.175 -24.548 -12.972  0.00  0.00    +0.053 A 
ATOM     15  C   UNL     1      34.469 -23.105 -13.739  0.00  0.00    +0.002 C 
ATOM     16  C   UNL     1      34.743 -23.628 -12.456  0.00  0.00    +0.021 C 
ATOM     17  C   UNL     1      39.490 -24.752 -13.602  0.00  0.00    +0.051 C 
ATOM     18  H   UNL     1      38.612 -25.321 -11.104  0.00  0.00    +0.189 HD
ENDBRANCH   4  11
ENDBRANCH   1   3
BRANCH   1  19
ATOM     19  C   UNL     1      35.722 -19.876 -19.994  0.00  0.00    +0.184 C 
BRANCH  19  20
ATOM     20  C   UNL     1      36.320 -18.510 -20.357  0.00  0.00    -0.017 C 
BRANCH  20  21
ATOM     21  N   UNL     1      37.784 -18.615 -20.323  0.00  0.00    +0.384 N 
ATOM     22  H   UNL     1      38.107 -18.541 -19.358  0.00  0.00    -0.089 HD
ATOM     23  H   UNL     1      38.192 -17.862 -20.877  0.00  0.00    -0.089 HD
ATOM     24  H   UNL     1      38.069 -19.515 -20.709  0.00  0.00    -0.089 HD
ENDBRANCH  20  21
BRANCH  20  25
ATOM     25  C   UNL     1      35.875 -17.987 -21.749  0.00  0.00    +0.009 C 
BRANCH  25  27
ATOM     26  N   UNL     1      34.821 -14.558 -21.067  0.00  0.00    -0.312 N 
ATOM     27  C   UNL     1      35.385 -16.593 -21.750  0.00  0.00    -0.008 C 
ATOM     28  C   UNL     1      34.883 -15.872 -22.869  0.00  0.00    +0.011 C 
ATOM     29  C   UNL     1      34.536 -14.598 -22.413  0.00  0.00    +0.048 C 
ATOM     30  C   UNL     1      35.334 -15.759 -20.656  0.00  0.00    +0.058 C 
ATOM     31  C   UNL     1      34.690 -16.181 -24.230  0.00  0.00    +0.001 C 
ATOM     32  C   UNL     1      34.004 -13.614 -23.255  0.00  0.00    +0.015 C 
ATOM     33  C   UNL     1      34.159 -15.207 -25.083  0.00  0.00    +0.000 C 
ATOM     34  C   UNL     1      33.822 -13.944 -24.601  0.00  0.00    +0.001 C 
ATOM     35  H   UNL     1      34.675 -13.779 -20.484  0.00  0.00    +0.152 HD
ENDBRANCH  25  27
ENDBRANCH  20  25
ENDBRANCH  19  20
ENDBRANCH   1  19
TORSDOF 7
ENDMDL
