MODEL 1
REMARK VINA RESULT:     -11.0      0.000      0.000
REMARK  Name = 10409068
REMARK  6 active torsions:
REMARK  status: ('A' for Active; 'I' for Inactive)
REMARK    1  A    between atoms: N_1  and  C_16
REMARK    2  A    between atoms: C_8  and  C_29
REMARK    3  A    between atoms: C_13  and  C_22
REMARK    4  A    between atoms: N_21  and  C_24
REMARK    5  A    between atoms: N_28  and  C_31
REMARK    6  A    between atoms: C_31  and  C_32
REMARK                            x       y       z     vdW  Elec       q    Type
REMARK                         _______ _______ _______ _____ _____    ______ ____
ROOT
ATOM      1  N   UNL     1      34.352 -13.193 -21.606  0.00  0.00    -0.297 N 
ATOM      2  N   UNL     1      34.926 -16.406 -23.351  0.00  0.00    -0.185 N 
ATOM      3  N   UNL     1      34.099 -13.884 -23.809  0.00  0.00    -0.206 NA
ATOM      4  N   UNL     1      34.578 -16.101 -24.625  0.00  0.00    -0.151 NA
ATOM      5  C   UNL     1      34.879 -15.512 -22.312  0.00  0.00    +0.102 C 
ATOM      6  C   UNL     1      35.301 -16.160 -21.172  0.00  0.00    +0.002 C 
ATOM      7  C   UNL     1      34.434 -14.164 -22.574  0.00  0.00    +0.149 C 
ATOM      8  C   UNL     1      35.613 -17.493 -21.540  0.00  0.00    +0.067 C 
ATOM      9  C   UNL     1      35.371 -17.617 -22.892  0.00  0.00    +0.094 C 
ATOM     10  C   UNL     1      35.417 -15.601 -19.809  0.00  0.00    +0.033 C 
ATOM     11  C   UNL     1      34.187 -14.867 -24.779  0.00  0.00    +0.219 C 
ATOM     12  H   UNL     1      34.990 -13.256 -20.860  0.00  0.00    +0.154 HD
ENDROOT
BRANCH   1  16
ATOM     13  C   UNL     1      32.768  -9.967 -22.407  0.00  0.00    +0.055 C 
ATOM     14  C   UNL     1      33.654 -11.044 -22.429  0.00  0.00    +0.019 C 
ATOM     15  C   UNL     1      31.685  -9.972 -21.528  0.00  0.00    +0.004 C 
ATOM     16  C   UNL     1      33.457 -12.126 -21.571  0.00  0.00    +0.045 C 
ATOM     17  C   UNL     1      32.374 -12.132 -20.692  0.00  0.00    -0.008 C 
ATOM     18  C   UNL     1      31.487 -11.055 -20.671  0.00  0.00    -0.003 C 
ATOM     19  C   UNL     1      32.138 -13.278 -19.763  0.00  0.00    +0.032 C 
BRANCH  13  22
ATOM     20  O   UNL     1      33.408  -9.011 -24.453  0.00  0.00    -0.270 OA
ATOM     21  N   UNL     1      32.679  -7.564 -22.796  0.00  0.00    -0.302 N 
ATOM     22  C   UNL     1      32.972  -8.838 -23.301  0.00  0.00    +0.246 C 
ATOM     23  H   UNL     1      32.336  -7.494 -21.876  0.00  0.00    +0.150 HD
BRANCH  21  24
ATOM     24  C   UNL     1      32.850  -6.356 -23.555  0.00  0.00    +0.072 C 
ATOM     25  C   UNL     1      32.185  -5.078 -23.141  0.00  0.00    +0.021 C 
ATOM     26  C   UNL     1      31.731  -5.794 -24.379  0.00  0.00    +0.021 C 
ENDBRANCH  21  24
ENDBRANCH  13  22
ENDBRANCH   1  16
BRANCH   8  29
ATOM     27  O   UNL     1      37.306 -18.657 -20.409  0.00  0.00    -0.270 OA
ATOM     28  N   UNL     1      35.156 -19.503 -20.245  0.00  0.00    -0.301 N 
ATOM     29  C   UNL     1      36.093 -18.558 -20.706  0.00  0.00    +0.247 C 
ATOM     30  H   UNL     1      34.213 -19.384 -20.503  0.00  0.00    +0.150 HD
BRANCH  28  31
ATOM     31  C   UNL     1      35.491 -20.631 -19.420  0.00  0.00    +0.090 C 
BRANCH  31  32
ATOM     32  C   UNL     1      34.280 -21.196 -18.688  0.00  0.00    +0.021 C 
ATOM     33  C   UNL     1      32.985 -20.489 -19.062  0.00  0.00    +0.002 C 
ENDBRANCH  31  32
ENDBRANCH  28  31
ENDBRANCH   8  29
TORSDOF 6
ENDMDL
MODEL 2
REMARK VINA RESULT:     -10.8      1.494      9.890
REMARK  Name = 10409068
REMARK  6 active torsions:
REMARK  status: ('A' for Active; 'I' for Inactive)
REMARK    1  A    between atoms: N_1  and  C_16
REMARK    2  A    between atoms: C_8  and  C_29
REMARK    3  A    between atoms: C_13  and  C_22
REMARK    4  A    between atoms: N_21  and  C_24
REMARK    5  A    between atoms: N_28  and  C_31
REMARK    6  A    between atoms: C_31  and  C_32
REMARK                            x       y       z     vdW  Elec       q    Type
REMARK                         _______ _______ _______ _____ _____    ______ ____
ROOT
ATOM      1  N   UNL     1      34.538 -13.278 -22.429  0.00  0.00    -0.297 N 
ATOM      2  N   UNL     1      32.075 -11.081 -20.755  0.00  0.00    -0.185 N 
ATOM      3  N   UNL     1      33.128 -13.555 -20.605  0.00  0.00    -0.206 NA
ATOM      4  N   UNL     1      31.617 -11.878 -19.760  0.00  0.00    -0.151 NA
ATOM      5  C   UNL     1      33.026 -11.466 -21.665  0.00  0.00    +0.102 C 
ATOM      6  C   UNL     1      33.247 -10.412 -22.524  0.00  0.00    +0.002 C 
ATOM      7  C   UNL     1      33.581 -12.795 -21.571  0.00  0.00    +0.149 C 
ATOM      8  C   UNL     1      32.397  -9.353 -22.114  0.00  0.00    +0.067 C 
ATOM      9  C   UNL     1      31.684  -9.795 -21.020  0.00  0.00    +0.094 C 
ATOM     10  C   UNL     1      34.185 -10.360 -23.665  0.00  0.00    +0.033 C 
ATOM     11  C   UNL     1      32.166 -13.060 -19.743  0.00  0.00    +0.219 C 
ATOM     12  H   UNL     1      35.161 -12.620 -22.813  0.00  0.00    +0.154 HD
ENDROOT
BRANCH   1  16
ATOM     13  C   UNL     1      35.553 -16.815 -22.312  0.00  0.00    +0.055 C 
ATOM     14  C   UNL     1      35.363 -15.484 -21.943  0.00  0.00    +0.019 C 
ATOM     15  C   UNL     1      35.098 -17.268 -23.551  0.00  0.00    +0.004 C 
ATOM     16  C   UNL     1      34.719 -14.604 -22.814  0.00  0.00    +0.045 C 
ATOM     17  C   UNL     1      34.264 -15.057 -24.052  0.00  0.00    -0.008 C 
ATOM     18  C   UNL     1      34.453 -16.389 -24.420  0.00  0.00    -0.003 C 
ATOM     19  C   UNL     1      33.570 -14.137 -25.004  0.00  0.00    +0.032 C 
BRANCH  13  22
ATOM     20  O   UNL     1      37.462 -17.865 -21.438  0.00  0.00    -0.270 OA
ATOM     21  N   UNL     1      35.417 -18.464 -20.525  0.00  0.00    -0.302 N 
ATOM     22  C   UNL     1      36.225 -17.733 -21.405  0.00  0.00    +0.246 C 
ATOM     23  H   UNL     1      34.445 -18.314 -20.549  0.00  0.00    +0.150 HD
BRANCH  21  24
ATOM     24  C   UNL     1      35.938 -19.422 -19.589  0.00  0.00    +0.072 C 
ATOM     25  C   UNL     1      36.294 -20.814 -20.018  0.00  0.00    +0.021 C 
ATOM     26  C   UNL     1      35.108 -20.584 -19.128  0.00  0.00    +0.021 C 
ENDBRANCH  21  24
ENDBRANCH  13  22
ENDBRANCH   1  16
BRANCH   8  29
ATOM     27  O   UNL     1      32.335  -7.870 -23.931  0.00  0.00    -0.270 OA
ATOM     28  N   UNL     1      32.058  -6.961 -21.818  0.00  0.00    -0.301 N 
ATOM     29  C   UNL     1      32.260  -8.046 -22.692  0.00  0.00    +0.247 C 
ATOM     30  H   UNL     1      32.005  -7.147 -20.853  0.00  0.00    +0.150 HD
BRANCH  28  31
ATOM     31  C   UNL     1      31.924  -5.597 -22.249  0.00  0.00    +0.090 C 
BRANCH  31  32
ATOM     32  C   UNL     1      32.047  -4.608 -21.095  0.00  0.00    +0.021 C 
ATOM     33  C   UNL     1      32.097  -5.293 -19.737  0.00  0.00    +0.002 C 
ENDBRANCH  31  32
ENDBRANCH  28  31
ENDBRANCH   8  29
TORSDOF 6
ENDMDL
MODEL 3
REMARK VINA RESULT:     -10.5      5.117     12.600
REMARK  Name = 10409068
REMARK  6 active torsions:
REMARK  status: ('A' for Active; 'I' for Inactive)
REMARK    1  A    between atoms: N_1  and  C_16
REMARK    2  A    between atoms: C_8  and  C_29
REMARK    3  A    between atoms: C_13  and  C_22
REMARK    4  A    between atoms: N_21  and  C_24
REMARK    5  A    between atoms: N_28  and  C_31
REMARK    6  A    between atoms: C_31  and  C_32
REMARK                            x       y       z     vdW  Elec       q    Type
REMARK                         _______ _______ _______ _____ _____    ______ ____
ROOT
ATOM      1  N   UNL     1      33.801 -22.181 -17.011  0.00  0.00    -0.297 N 
ATOM      2  N   UNL     1      36.601 -20.384 -18.633  0.00  0.00    -0.185 N 
ATOM      3  N   UNL     1      36.084 -22.071 -16.598  0.00  0.00    -0.206 NA
ATOM      4  N   UNL     1      37.659 -20.773 -17.881  0.00  0.00    -0.151 NA
ATOM      5  C   UNL     1      35.313 -20.800 -18.412  0.00  0.00    +0.102 C 
ATOM      6  C   UNL     1      34.506 -20.211 -19.360  0.00  0.00    +0.002 C 
ATOM      7  C   UNL     1      35.052 -21.704 -17.318  0.00  0.00    +0.149 C 
ATOM      8  C   UNL     1      35.340 -19.412 -20.182  0.00  0.00    +0.067 C 
ATOM      9  C   UNL     1      36.629 -19.537 -19.709  0.00  0.00    +0.094 C 
ATOM     10  C   UNL     1      33.044 -20.362 -19.518  0.00  0.00    +0.033 C 
ATOM     11  C   UNL     1      37.341 -21.588 -16.914  0.00  0.00    +0.219 C 
ATOM     12  H   UNL     1      33.170 -22.280 -17.760  0.00  0.00    +0.154 HD
ENDROOT
BRANCH   1  16
ATOM     13  C   UNL     1      33.795 -23.255 -13.489  0.00  0.00    +0.055 C 
ATOM     14  C   UNL     1      34.247 -22.893 -14.758  0.00  0.00    +0.019 C 
ATOM     15  C   UNL     1      32.428 -23.263 -13.211  0.00  0.00    +0.004 C 
ATOM     16  C   UNL     1      33.332 -22.539 -15.750  0.00  0.00    +0.045 C 
ATOM     17  C   UNL     1      31.965 -22.546 -15.472  0.00  0.00    -0.008 C 
ATOM     18  C   UNL     1      31.513 -22.908 -14.203  0.00  0.00    -0.003 C 
ATOM     19  C   UNL     1      30.962 -22.172 -16.515  0.00  0.00    +0.032 C 
BRANCH  13  22
ATOM     20  O   UNL     1      34.591 -23.242 -11.282  0.00  0.00    -0.270 OA
ATOM     21  N   UNL     1      35.846 -24.401 -12.848  0.00  0.00    -0.302 N 
ATOM     22  C   UNL     1      34.748 -23.624 -12.455  0.00  0.00    +0.246 C 
ATOM     23  H   UNL     1      35.913 -24.671 -13.792  0.00  0.00    +0.150 HD
BRANCH  21  24
ATOM     24  C   UNL     1      36.878 -24.823 -11.941  0.00  0.00    +0.072 C 
ATOM     25  C   UNL     1      38.294 -24.359 -12.106  0.00  0.00    +0.021 C 
ATOM     26  C   UNL     1      37.938 -25.793 -12.373  0.00  0.00    +0.021 C 
ENDBRANCH  21  24
ENDBRANCH  13  22
ENDBRANCH   1  16
BRANCH   8  29
ATOM     27  O   UNL     1      34.185 -19.028 -22.187  0.00  0.00    -0.270 OA
ATOM     28  N   UNL     1      35.531 -17.314 -21.403  0.00  0.00    -0.301 N 
ATOM     29  C   UNL     1      34.969 -18.602 -21.307  0.00  0.00    +0.247 C 
ATOM     30  H   UNL     1      36.142 -17.022 -20.688  0.00  0.00    +0.150 HD
BRANCH  28  31
ATOM     31  C   UNL     1      35.269 -16.401 -22.480  0.00  0.00    +0.090 C 
BRANCH  31  32
ATOM     32  C   UNL     1      34.956 -14.993 -21.985  0.00  0.00    +0.021 C 
ATOM     33  C   UNL     1      34.932 -14.896 -20.466  0.00  0.00    +0.002 C 
ENDBRANCH  31  32
ENDBRANCH  28  31
ENDBRANCH   8  29
TORSDOF 6
ENDMDL
MODEL 4
REMARK VINA RESULT:     -10.4      1.127      1.214
REMARK  Name = 10409068
REMARK  6 active torsions:
REMARK  status: ('A' for Active; 'I' for Inactive)
REMARK    1  A    between atoms: N_1  and  C_16
REMARK    2  A    between atoms: C_8  and  C_29
REMARK    3  A    between atoms: C_13  and  C_22
REMARK    4  A    between atoms: N_21  and  C_24
REMARK    5  A    between atoms: N_28  and  C_31
REMARK    6  A    between atoms: C_31  and  C_32
REMARK                            x       y       z     vdW  Elec       q    Type
REMARK                         _______ _______ _______ _____ _____    ______ ____
ROOT
ATOM      1  N   UNL     1      33.912 -12.752 -21.193  0.00  0.00    -0.297 N 
ATOM      2  N   UNL     1      34.618 -15.595 -23.455  0.00  0.00    -0.185 N 
ATOM      3  N   UNL     1      33.527 -13.133 -23.451  0.00  0.00    -0.206 NA
ATOM      4  N   UNL     1      34.131 -15.144 -24.636  0.00  0.00    -0.151 NA
ATOM      5  C   UNL     1      34.583 -14.874 -22.289  0.00  0.00    +0.102 C 
ATOM      6  C   UNL     1      35.162 -15.636 -21.298  0.00  0.00    +0.002 C 
ATOM      7  C   UNL     1      33.996 -13.556 -22.303  0.00  0.00    +0.149 C 
ATOM      8  C   UNL     1      35.560 -16.860 -21.891  0.00  0.00    +0.067 C 
ATOM      9  C   UNL     1      35.211 -16.808 -23.224  0.00  0.00    +0.094 C 
ATOM     10  C   UNL     1      35.349 -15.275 -19.877  0.00  0.00    +0.033 C 
ATOM     11  C   UNL     1      33.617 -13.948 -24.566  0.00  0.00    +0.219 C 
ATOM     12  H   UNL     1      34.618 -12.858 -20.516  0.00  0.00    +0.154 HD
ENDROOT
BRANCH   1  16
ATOM     13  C   UNL     1      32.014  -9.598 -21.312  0.00  0.00    +0.055 C 
ATOM     14  C   UNL     1      32.989 -10.563 -21.568  0.00  0.00    +0.019 C 
ATOM     15  C   UNL     1      30.981  -9.870 -20.414  0.00  0.00    +0.004 C 
ATOM     16  C   UNL     1      32.930 -11.800 -20.926  0.00  0.00    +0.045 C 
ATOM     17  C   UNL     1      31.898 -12.073 -20.028  0.00  0.00    -0.008 C 
ATOM     18  C   UNL     1      30.923 -11.108 -19.773  0.00  0.00    -0.003 C 
ATOM     19  C   UNL     1      31.811 -13.390 -19.327  0.00  0.00    +0.032 C 
BRANCH  13  22
ATOM     20  O   UNL     1      31.690  -8.185 -23.157  0.00  0.00    -0.270 OA
ATOM     21  N   UNL     1      32.599  -7.235 -21.248  0.00  0.00    -0.302 N 
ATOM     22  C   UNL     1      32.074  -8.308 -21.980  0.00  0.00    +0.246 C 
ATOM     23  H   UNL     1      32.886  -7.398 -20.321  0.00  0.00    +0.150 HD
BRANCH  21  24
ATOM     24  C   UNL     1      32.739  -5.909 -21.784  0.00  0.00    +0.072 C 
ATOM     25  C   UNL     1      32.398  -4.701 -20.963  0.00  0.00    +0.021 C 
ATOM     26  C   UNL     1      31.536  -5.083 -22.131  0.00  0.00    +0.021 C 
ENDBRANCH  21  24
ENDBRANCH  13  22
ENDBRANCH   1  16
BRANCH   8  29
ATOM     27  O   UNL     1      37.447 -18.147 -21.355  0.00  0.00    -0.270 OA
ATOM     28  N   UNL     1      35.401 -18.904 -20.577  0.00  0.00    -0.301 N 
ATOM     29  C   UNL     1      36.208 -17.981 -21.271  0.00  0.00    +0.247 C 
ATOM     30  H   UNL     1      34.432 -18.733 -20.537  0.00  0.00    +0.150 HD
BRANCH  28  31
ATOM     31  C   UNL     1      35.904 -20.081 -19.925  0.00  0.00    +0.090 C 
BRANCH  31  32
ATOM     32  C   UNL     1      34.817 -20.834 -19.167  0.00  0.00    +0.021 C 
ATOM     33  C   UNL     1      33.419 -20.327 -19.486  0.00  0.00    +0.002 C 
ENDBRANCH  31  32
ENDBRANCH  28  31
ENDBRANCH   8  29
TORSDOF 6
ENDMDL
MODEL 5
REMARK VINA RESULT:     -10.3      1.696      9.929
REMARK  Name = 10409068
REMARK  6 active torsions:
REMARK  status: ('A' for Active; 'I' for Inactive)
REMARK    1  A    between atoms: N_1  and  C_16
REMARK    2  A    between atoms: C_8  and  C_29
REMARK    3  A    between atoms: C_13  and  C_22
REMARK    4  A    between atoms: N_21  and  C_24
REMARK    5  A    between atoms: N_28  and  C_31
REMARK    6  A    between atoms: C_31  and  C_32
REMARK                            x       y       z     vdW  Elec       q    Type
REMARK                         _______ _______ _______ _____ _____    ______ ____
ROOT
ATOM      1  N   UNL     1      34.351 -12.848 -22.738  0.00  0.00    -0.297 N 
ATOM      2  N   UNL     1      32.073 -10.696 -20.768  0.00  0.00    -0.185 N 
ATOM      3  N   UNL     1      32.928 -13.244 -20.945  0.00  0.00    -0.206 NA
ATOM      4  N   UNL     1      31.556 -11.575 -19.876  0.00  0.00    -0.151 NA
ATOM      5  C   UNL     1      32.989 -11.035 -21.731  0.00  0.00    +0.102 C 
ATOM      6  C   UNL     1      33.291  -9.901 -22.452  0.00  0.00    +0.002 C 
ATOM      7  C   UNL     1      33.438 -12.404 -21.813  0.00  0.00    +0.149 C 
ATOM      8  C   UNL     1      32.527  -8.840 -21.901  0.00  0.00    +0.067 C 
ATOM      9  C   UNL     1      31.785  -9.360 -20.863  0.00  0.00    +0.094 C 
ATOM     10  C   UNL     1      34.227  -9.778 -23.589  0.00  0.00    +0.033 C 
ATOM     11  C   UNL     1      32.010 -12.789 -20.016  0.00  0.00    +0.219 C 
ATOM     12  H   UNL     1      35.023 -12.197 -23.043  0.00  0.00    +0.154 HD
ENDROOT
BRANCH   1  16
ATOM     13  C   UNL     1      35.082 -16.440 -23.081  0.00  0.00    +0.055 C 
ATOM     14  C   UNL     1      34.999 -15.155 -22.545  0.00  0.00    +0.019 C 
ATOM     15  C   UNL     1      34.591 -16.695 -24.362  0.00  0.00    +0.004 C 
ATOM     16  C   UNL     1      34.425 -14.125 -23.289  0.00  0.00    +0.045 C 
ATOM     17  C   UNL     1      33.934 -14.378 -24.570  0.00  0.00    -0.008 C 
ATOM     18  C   UNL     1      34.016 -15.664 -25.106  0.00  0.00    -0.003 C 
ATOM     19  C   UNL     1      33.314 -13.293 -25.389  0.00  0.00    +0.032 C 
BRANCH  13  22
ATOM     20  O   UNL     1      36.912 -17.573 -22.147  0.00  0.00    -0.270 OA
ATOM     21  N   UNL     1      34.811 -18.479 -21.778  0.00  0.00    -0.302 N 
ATOM     22  C   UNL     1      35.680 -17.516 -22.306  0.00  0.00    +0.246 C 
ATOM     23  H   UNL     1      33.846 -18.377 -21.940  0.00  0.00    +0.150 HD
BRANCH  21  24
ATOM     24  C   UNL     1      35.259 -19.609 -21.010  0.00  0.00    +0.072 C 
ATOM     25  C   UNL     1      34.627 -19.954 -19.695  0.00  0.00    +0.021 C 
ATOM     26  C   UNL     1      36.030 -19.423 -19.737  0.00  0.00    +0.021 C 
ENDBRANCH  21  24
ENDBRANCH  13  22
ENDBRANCH   1  16
BRANCH   8  29
ATOM     27  O   UNL     1      32.949  -6.556 -21.573  0.00  0.00    -0.270 OA
ATOM     28  N   UNL     1      31.911  -7.162 -23.553  0.00  0.00    -0.301 N 
ATOM     29  C   UNL     1      32.493  -7.463 -22.307  0.00  0.00    +0.247 C 
ATOM     30  H   UNL     1      31.566  -7.908 -24.096  0.00  0.00    +0.150 HD
BRANCH  28  31
ATOM     31  C   UNL     1      31.788  -5.831 -24.082  0.00  0.00    +0.090 C 
BRANCH  31  32
ATOM     32  C   UNL     1      33.091  -5.327 -24.691  0.00  0.00    +0.021 C 
ATOM     33  C   UNL     1      32.867  -4.271 -25.764  0.00  0.00    +0.002 C 
ENDBRANCH  31  32
ENDBRANCH  28  31
ENDBRANCH   8  29
TORSDOF 6
ENDMDL
MODEL 6
REMARK VINA RESULT:      -9.9      2.936     10.246
REMARK  Name = 10409068
REMARK  6 active torsions:
REMARK  status: ('A' for Active; 'I' for Inactive)
REMARK    1  A    between atoms: N_1  and  C_16
REMARK    2  A    between atoms: C_8  and  C_29
REMARK    3  A    between atoms: C_13  and  C_22
REMARK    4  A    between atoms: N_21  and  C_24
REMARK    5  A    between atoms: N_28  and  C_31
REMARK    6  A    between atoms: C_31  and  C_32
REMARK                            x       y       z     vdW  Elec       q    Type
REMARK                         _______ _______ _______ _____ _____    ______ ____
ROOT
ATOM      1  N   UNL     1      34.723 -17.888 -20.881  0.00  0.00    -0.297 N 
ATOM      2  N   UNL     1      34.438 -16.183 -24.154  0.00  0.00    -0.185 N 
ATOM      3  N   UNL     1      34.552 -18.646 -23.070  0.00  0.00    -0.206 NA
ATOM      4  N   UNL     1      34.377 -17.229 -25.013  0.00  0.00    -0.151 NA
ATOM      5  C   UNL     1      34.551 -16.317 -22.794  0.00  0.00    +0.102 C 
ATOM      6  C   UNL     1      34.584 -15.056 -22.241  0.00  0.00    +0.002 C 
ATOM      7  C   UNL     1      34.611 -17.644 -22.228  0.00  0.00    +0.149 C 
ATOM      8  C   UNL     1      34.487 -14.129 -23.310  0.00  0.00    +0.067 C 
ATOM      9  C   UNL     1      34.398 -14.853 -24.480  0.00  0.00    +0.094 C 
ATOM     10  C   UNL     1      34.699 -14.701 -20.811  0.00  0.00    +0.033 C 
ATOM     11  C   UNL     1      34.438 -18.392 -24.425  0.00  0.00    +0.219 C 
ATOM     12  H   UNL     1      34.324 -17.222 -20.276  0.00  0.00    +0.154 HD
ENDROOT
BRANCH   1  16
ATOM     13  C   UNL     1      35.160 -21.075 -19.090  0.00  0.00    +0.055 C 
ATOM     14  C   UNL     1      34.556 -19.973 -19.695  0.00  0.00    +0.019 C 
ATOM     15  C   UNL     1      36.550 -21.187 -19.072  0.00  0.00    +0.004 C 
ATOM     16  C   UNL     1      35.343 -18.982 -20.282  0.00  0.00    +0.045 C 
ATOM     17  C   UNL     1      36.733 -19.093 -20.265  0.00  0.00    -0.008 C 
ATOM     18  C   UNL     1      37.337 -20.196 -19.660  0.00  0.00    -0.003 C 
ATOM     19  C   UNL     1      37.600 -18.047 -20.886  0.00  0.00    +0.032 C 
BRANCH  13  22
ATOM     20  O   UNL     1      34.003 -23.117 -19.124  0.00  0.00    -0.270 OA
ATOM     21  N   UNL     1      33.941 -21.902 -17.151  0.00  0.00    -0.302 N 
ATOM     22  C   UNL     1      34.341 -22.109 -18.477  0.00  0.00    +0.246 C 
ATOM     23  H   UNL     1      34.241 -21.084 -16.694  0.00  0.00    +0.150 HD
BRANCH  21  24
ATOM     24  C   UNL     1      33.114 -22.826 -16.423  0.00  0.00    +0.072 C 
ATOM     25  C   UNL     1      31.732 -22.448 -15.980  0.00  0.00    +0.021 C 
ATOM     26  C   UNL     1      32.825 -22.623 -14.965  0.00  0.00    +0.021 C 
ENDBRANCH  21  24
ENDBRANCH  13  22
ENDBRANCH   1  16
BRANCH   8  29
ATOM     27  O   UNL     1      34.739 -12.088 -22.182  0.00  0.00    -0.270 OA
ATOM     28  N   UNL     1      34.146 -11.988 -24.419  0.00  0.00    -0.301 N 
ATOM     29  C   UNL     1      34.478 -12.695 -23.247  0.00  0.00    +0.247 C 
ATOM     30  H   UNL     1      33.948 -12.508 -25.232  0.00  0.00    +0.150 HD
BRANCH  28  31
ATOM     31  C   UNL     1      34.077 -10.556 -24.502  0.00  0.00    +0.090 C 
BRANCH  31  32
ATOM     32  C   UNL     1      35.044  -9.987 -25.533  0.00  0.00    +0.021 C 
ATOM     33  C   UNL     1      35.988  -8.948 -24.944  0.00  0.00    +0.002 C 
ENDBRANCH  31  32
ENDBRANCH  28  31
ENDBRANCH   8  29
TORSDOF 6
ENDMDL
MODEL 7
REMARK VINA RESULT:      -9.6      2.398     10.350
REMARK  Name = 10409068
REMARK  6 active torsions:
REMARK  status: ('A' for Active; 'I' for Inactive)
REMARK    1  A    between atoms: N_1  and  C_16
REMARK    2  A    between atoms: C_8  and  C_29
REMARK    3  A    between atoms: C_13  and  C_22
REMARK    4  A    between atoms: N_21  and  C_24
REMARK    5  A    between atoms: N_28  and  C_31
REMARK    6  A    between atoms: C_31  and  C_32
REMARK                            x       y       z     vdW  Elec       q    Type
REMARK                         _______ _______ _______ _____ _____    ______ ____
ROOT
ATOM      1  N   UNL     1      32.518 -10.603 -22.327  0.00  0.00    -0.297 N 
ATOM      2  N   UNL     1      34.216  -7.789 -24.030  0.00  0.00    -0.185 N 
ATOM      3  N   UNL     1      34.481 -10.427 -23.557  0.00  0.00    -0.206 NA
ATOM      4  N   UNL     1      35.311  -8.393 -24.550  0.00  0.00    -0.151 NA
ATOM      5  C   UNL     1      33.260  -8.442 -23.294  0.00  0.00    +0.102 C 
ATOM      6  C   UNL     1      32.299  -7.525 -22.931  0.00  0.00    +0.002 C 
ATOM      7  C   UNL     1      33.416  -9.856 -23.049  0.00  0.00    +0.149 C 
ATOM      8  C   UNL     1      32.692  -6.273 -23.470  0.00  0.00    +0.067 C 
ATOM      9  C   UNL     1      33.879  -6.466 -24.143  0.00  0.00    +0.094 C 
ATOM     10  C   UNL     1      31.079  -7.765 -22.133  0.00  0.00    +0.033 C 
ATOM     11  C   UNL     1      35.380  -9.668 -24.284  0.00  0.00    +0.219 C 
ATOM     12  H   UNL     1      31.579 -10.312 -22.353  0.00  0.00    +0.154 HD
ENDROOT
BRANCH   1  16
ATOM     13  C   UNL     1      34.002 -13.810 -21.290  0.00  0.00    +0.055 C 
ATOM     14  C   UNL     1      33.708 -12.674 -22.044  0.00  0.00    +0.019 C 
ATOM     15  C   UNL     1      33.387 -14.005 -20.053  0.00  0.00    +0.004 C 
ATOM     16  C   UNL     1      32.800 -11.732 -21.561  0.00  0.00    +0.045 C 
ATOM     17  C   UNL     1      32.185 -11.926 -20.324  0.00  0.00    -0.008 C 
ATOM     18  C   UNL     1      32.479 -13.062 -19.570  0.00  0.00    -0.003 C 
ATOM     19  C   UNL     1      31.208 -10.933 -19.782  0.00  0.00    +0.032 C 
BRANCH  13  22
ATOM     20  O   UNL     1      35.614 -14.565 -22.819  0.00  0.00    -0.270 OA
ATOM     21  N   UNL     1      35.052 -15.997 -21.086  0.00  0.00    -0.302 N 
ATOM     22  C   UNL     1      34.949 -14.793 -21.793  0.00  0.00    +0.246 C 
ATOM     23  H   UNL     1      34.497 -16.116 -20.281  0.00  0.00    +0.150 HD
BRANCH  21  24
ATOM     24  C   UNL     1      35.928 -17.068 -21.475  0.00  0.00    +0.072 C 
ATOM     25  C   UNL     1      35.415 -18.256 -22.232  0.00  0.00    +0.021 C 
ATOM     26  C   UNL     1      35.857 -18.409 -20.806  0.00  0.00    +0.021 C 
ENDBRANCH  21  24
ENDBRANCH  13  22
ENDBRANCH   1  16
BRANCH   8  29
ATOM     27  O   UNL     1      31.221  -4.620 -24.250  0.00  0.00    -0.270 OA
ATOM     28  N   UNL     1      32.303  -4.206 -22.244  0.00  0.00    -0.301 N 
ATOM     29  C   UNL     1      32.020  -5.008 -23.366  0.00  0.00    +0.247 C 
ATOM     30  H   UNL     1      32.938  -4.552 -21.575  0.00  0.00    +0.150 HD
BRANCH  28  31
ATOM     31  C   UNL     1      31.724  -2.911 -22.015  0.00  0.00    +0.090 C 
BRANCH  31  32
ATOM     32  C   UNL     1      32.740  -1.786 -22.165  0.00  0.00    +0.021 C 
ATOM     33  C   UNL     1      33.424  -1.788 -23.525  0.00  0.00    +0.002 C 
ENDBRANCH  31  32
ENDBRANCH  28  31
ENDBRANCH   8  29
TORSDOF 6
ENDMDL
MODEL 8
REMARK VINA RESULT:      -9.4      1.767      2.463
REMARK  Name = 10409068
REMARK  6 active torsions:
REMARK  status: ('A' for Active; 'I' for Inactive)
REMARK    1  A    between atoms: N_1  and  C_16
REMARK    2  A    between atoms: C_8  and  C_29
REMARK    3  A    between atoms: C_13  and  C_22
REMARK    4  A    between atoms: N_21  and  C_24
REMARK    5  A    between atoms: N_28  and  C_31
REMARK    6  A    between atoms: C_31  and  C_32
REMARK                            x       y       z     vdW  Elec       q    Type
REMARK                         _______ _______ _______ _____ _____    ______ ____
ROOT
ATOM      1  N   UNL     1      34.232 -11.070 -22.488  0.00  0.00    -0.297 N 
ATOM      2  N   UNL     1      34.386 -14.549 -23.741  0.00  0.00    -0.185 N 
ATOM      3  N   UNL     1      33.763 -12.054 -24.539  0.00  0.00    -0.206 NA
ATOM      4  N   UNL     1      33.979 -14.405 -25.025  0.00  0.00    -0.151 NA
ATOM      5  C   UNL     1      34.494 -13.510 -22.853  0.00  0.00    +0.102 C 
ATOM      6  C   UNL     1      34.933 -14.020 -21.651  0.00  0.00    +0.002 C 
ATOM      7  C   UNL     1      34.157 -12.178 -23.296  0.00  0.00    +0.149 C 
ATOM      8  C   UNL     1      35.095 -15.418 -21.824  0.00  0.00    +0.067 C 
ATOM      9  C   UNL     1      34.749 -15.717 -23.124  0.00  0.00    +0.094 C 
ATOM     10  C   UNL     1      35.195 -13.278 -20.399  0.00  0.00    +0.033 C 
ATOM     11  C   UNL     1      33.692 -13.174 -25.347  0.00  0.00    +0.219 C 
ATOM     12  H   UNL     1      34.913 -11.086 -21.777  0.00  0.00    +0.154 HD
ENDROOT
BRANCH   1  16
ATOM     13  C   UNL     1      33.138  -7.669 -23.378  0.00  0.00    +0.055 C 
ATOM     14  C   UNL     1      33.914  -8.825 -23.286  0.00  0.00    +0.019 C 
ATOM     15  C   UNL     1      31.891  -7.615 -22.754  0.00  0.00    +0.004 C 
ATOM     16  C   UNL     1      33.443  -9.925 -22.569  0.00  0.00    +0.045 C 
ATOM     17  C   UNL     1      32.197  -9.871 -21.946  0.00  0.00    -0.008 C 
ATOM     18  C   UNL     1      31.420  -8.716 -22.039  0.00  0.00    -0.003 C 
ATOM     19  C   UNL     1      31.668 -11.035 -21.172  0.00  0.00    +0.032 C 
BRANCH  13  22
ATOM     20  O   UNL     1      34.756  -6.538 -24.645  0.00  0.00    -0.270 OA
ATOM     21  N   UNL     1      32.782  -5.406 -24.204  0.00  0.00    -0.302 N 
ATOM     22  C   UNL     1      33.627  -6.521 -24.124  0.00  0.00    +0.246 C 
ATOM     23  H   UNL     1      31.901  -5.456 -23.770  0.00  0.00    +0.150 HD
BRANCH  21  24
ATOM     24  C   UNL     1      33.139  -4.194 -24.889  0.00  0.00    +0.072 C 
ATOM     25  C   UNL     1      32.090  -3.289 -25.462  0.00  0.00    +0.021 C 
ATOM     26  C   UNL     1      32.987  -4.072 -26.376  0.00  0.00    +0.021 C 
ENDBRANCH  21  24
ENDBRANCH  13  22
ENDBRANCH   1  16
BRANCH   8  29
ATOM     27  O   UNL     1      35.445 -16.172 -19.630  0.00  0.00    -0.270 OA
ATOM     28  N   UNL     1      36.084 -17.591 -21.346  0.00  0.00    -0.301 N 
ATOM     29  C   UNL     1      35.533 -16.389 -20.861  0.00  0.00    +0.247 C 
ATOM     30  H   UNL     1      36.132 -17.718 -22.322  0.00  0.00    +0.150 HD
BRANCH  28  31
ATOM     31  C   UNL     1      36.581 -18.644 -20.505  0.00  0.00    +0.090 C 
BRANCH  31  32
ATOM     32  C   UNL     1      35.502 -19.658 -20.146  0.00  0.00    +0.021 C 
ATOM     33  C   UNL     1      36.002 -20.740 -19.200  0.00  0.00    +0.002 C 
ENDBRANCH  31  32
ENDBRANCH  28  31
ENDBRANCH   8  29
TORSDOF 6
ENDMDL
MODEL 9
REMARK VINA RESULT:      -9.1      3.364      6.718
REMARK  Name = 10409068
REMARK  6 active torsions:
REMARK  status: ('A' for Active; 'I' for Inactive)
REMARK    1  A    between atoms: N_1  and  C_16
REMARK    2  A    between atoms: C_8  and  C_29
REMARK    3  A    between atoms: C_13  and  C_22
REMARK    4  A    between atoms: N_21  and  C_24
REMARK    5  A    between atoms: N_28  and  C_31
REMARK    6  A    between atoms: C_31  and  C_32
REMARK                            x       y       z     vdW  Elec       q    Type
REMARK                         _______ _______ _______ _____ _____    ______ ____
ROOT
ATOM      1  N   UNL     1      35.673 -18.948 -20.602  0.00  0.00    -0.297 N 
ATOM      2  N   UNL     1      34.097 -21.286 -18.204  0.00  0.00    -0.185 N 
ATOM      3  N   UNL     1      33.537 -19.839 -20.405  0.00  0.00    -0.206 NA
ATOM      4  N   UNL     1      32.833 -21.372 -18.683  0.00  0.00    -0.151 NA
ATOM      5  C   UNL     1      35.080 -20.517 -18.774  0.00  0.00    +0.102 C 
ATOM      6  C   UNL     1      36.228 -20.671 -18.030  0.00  0.00    +0.002 C 
ATOM      7  C   UNL     1      34.764 -19.748 -19.954  0.00  0.00    +0.149 C 
ATOM      8  C   UNL     1      35.924 -21.566 -16.973  0.00  0.00    +0.067 C 
ATOM      9  C   UNL     1      34.601 -21.929 -17.105  0.00  0.00    +0.094 C 
ATOM     10  C   UNL     1      37.544 -20.038 -18.261  0.00  0.00    +0.033 C 
ATOM     11  C   UNL     1      32.628 -20.648 -19.748  0.00  0.00    +0.219 C 
ATOM     12  H   UNL     1      36.617 -19.224 -20.555  0.00  0.00    +0.154 HD
ENDROOT
BRANCH   1  16
ATOM     13  C   UNL     1      34.897 -15.423 -21.329  0.00  0.00    +0.055 C 
ATOM     14  C   UNL     1      35.173 -16.596 -20.627  0.00  0.00    +0.019 C 
ATOM     15  C   UNL     1      34.846 -15.440 -22.723  0.00  0.00    +0.004 C 
ATOM     16  C   UNL     1      35.399 -17.786 -21.319  0.00  0.00    +0.045 C 
ATOM     17  C   UNL     1      35.348 -17.804 -22.713  0.00  0.00    -0.008 C 
ATOM     18  C   UNL     1      35.072 -16.630 -23.415  0.00  0.00    -0.003 C 
ATOM     19  C   UNL     1      35.586 -19.064 -23.480  0.00  0.00    +0.032 C 
BRANCH  13  22
ATOM     20  O   UNL     1      35.457 -13.795 -19.735  0.00  0.00    -0.270 OA
ATOM     21  N   UNL     1      33.499 -13.470 -20.930  0.00  0.00    -0.302 N 
ATOM     22  C   UNL     1      34.661 -14.182 -20.609  0.00  0.00    +0.246 C 
ATOM     23  H   UNL     1      32.909 -13.829 -21.632  0.00  0.00    +0.150 HD
BRANCH  21  24
ATOM     24  C   UNL     1      33.124 -12.240 -20.289  0.00  0.00    +0.072 C 
ATOM     25  C   UNL     1      31.944 -12.173 -19.366  0.00  0.00    +0.021 C 
ATOM     26  C   UNL     1      31.890 -11.494 -20.703  0.00  0.00    +0.021 C 
ENDBRANCH  21  24
ENDBRANCH  13  22
ENDBRANCH   1  16
BRANCH   8  29
ATOM     27  O   UNL     1      37.978 -21.649 -15.841  0.00  0.00    -0.270 OA
ATOM     28  N   UNL     1      36.269 -22.978 -15.019  0.00  0.00    -0.301 N 
ATOM     29  C   UNL     1      36.791 -22.040 -15.930  0.00  0.00    +0.247 C 
ATOM     30  H   UNL     1      35.330 -23.256 -15.128  0.00  0.00    +0.150 HD
BRANCH  28  31
ATOM     31  C   UNL     1      37.021 -23.554 -13.940  0.00  0.00    +0.090 C 
BRANCH  31  32
ATOM     32  C   UNL     1      37.659 -24.885 -14.323  0.00  0.00    +0.021 C 
ATOM     33  C   UNL     1      38.691 -25.356 -13.308  0.00  0.00    +0.002 C 
ENDBRANCH  31  32
ENDBRANCH  28  31
ENDBRANCH   8  29
TORSDOF 6
ENDMDL
