MODEL 1
REMARK VINA RESULT:     -11.7      0.000      0.000
REMARK  Name = 11998575
REMARK  7 active torsions:
REMARK  status: ('A' for Active; 'I' for Inactive)
REMARK    1  A    between atoms: C_6  and  C_18
REMARK    2  A    between atoms: C_14  and  O_22
REMARK    3  A    between atoms: C_15  and  O_16
REMARK    4  A    between atoms: C_18  and  O_20
REMARK    5  A    between atoms: O_22  and  C_23
REMARK    6  A    between atoms: C_23  and  C_24
REMARK    7  A    between atoms: C_29  and  O_30
REMARK                            x       y       z     vdW  Elec       q    Type
REMARK                         _______ _______ _______ _____ _____    ______ ____
ROOT
ATOM      1  O   UNL     1      32.832 -21.413 -18.454  0.00  0.00    -0.421 OA
ATOM      2  O   UNL     1      32.272 -20.216 -20.312  0.00  0.00    -0.244 OA
ATOM      3  C   UNL     1      35.510 -20.534 -18.693  0.00  0.00    +0.009 A 
ATOM      4  C   UNL     1      35.119 -21.430 -17.597  0.00  0.00    +0.038 A 
ATOM      5  C   UNL     1      34.540 -20.117 -19.622  0.00  0.00    +0.076 A 
ATOM      6  C   UNL     1      36.179 -18.806 -20.834  0.00  0.00    +0.004 C 
ATOM      7  C   UNL     1      33.788 -21.844 -17.510  0.00  0.00    +0.152 A 
ATOM      8  C   UNL     1      34.873 -19.260 -20.683  0.00  0.00    +0.004 C 
ATOM      9  C   UNL     1      36.823 -20.058 -18.872  0.00  0.00    +0.000 C 
ATOM     10  C   UNL     1      35.993 -21.915 -16.611  0.00  0.00    +0.043 C 
ATOM     11  C   UNL     1      37.154 -19.205 -19.930  0.00  0.00    -0.002 C 
ATOM     12  C   UNL     1      33.132 -20.567 -19.514  0.00  0.00    +0.346 A 
ATOM     13  C   UNL     1      33.321 -22.696 -16.506  0.00  0.00    +0.078 C 
ATOM     14  C   UNL     1      34.209 -23.160 -15.544  0.00  0.00    +0.176 C 
ATOM     15  C   UNL     1      35.544 -22.771 -15.596  0.00  0.00    +0.173 C 
ENDROOT
BRANCH  15  16
ATOM     16  O   UNL     1      36.429 -23.218 -14.660  0.00  0.00    -0.468 OA
ATOM     17  C   UNL     1      37.758 -22.708 -14.732  0.00  0.00    +0.253 C 
ENDBRANCH  15  16
BRANCH   6  18
ATOM     18  C   UNL     1      36.531 -17.898 -21.962  0.00  0.00    +0.133 C 
ATOM     19  C   UNL     1      35.773 -16.567 -21.911  0.00  0.00    +0.037 C 
BRANCH  18  20
ATOM     20  O   UNL     1      37.937 -17.620 -21.948  0.00  0.00    -0.380 OA
ATOM     21  H   UNL     1      38.165 -17.156 -21.127  0.00  0.00    +0.211 HD
ENDBRANCH  18  20
ENDBRANCH   6  18
BRANCH  14  22
ATOM     22  O   UNL     1      33.764 -23.992 -14.563  0.00  0.00    -0.467 OA
BRANCH  22  23
ATOM     23  C   UNL     1      32.964 -23.411 -13.533  0.00  0.00    +0.232 C 
BRANCH  23  24
ATOM     24  C   UNL     1      31.545 -23.318 -14.011  0.00  0.00    +0.021 C 
ATOM     25  C   UNL     1      30.947 -22.072 -14.155  0.00  0.00    +0.002 C 
ATOM     26  C   UNL     1      30.839 -24.481 -14.304  0.00  0.00    +0.002 C 
ATOM     27  C   UNL     1      29.627 -21.985 -14.599  0.00  0.00    +0.037 C 
ATOM     28  C   UNL     1      29.519 -24.395 -14.747  0.00  0.00    +0.037 C 
ATOM     29  C   UNL     1      28.914 -23.147 -14.895  0.00  0.00    +0.139 C 
BRANCH  29  30
ATOM     30  O   UNL     1      27.626 -23.062 -15.328  0.00  0.00    -0.471 OA
ATOM     31  C   UNL     1      27.051 -21.759 -15.405  0.00  0.00    +0.252 C 
ENDBRANCH  29  30
ENDBRANCH  23  24
ENDBRANCH  22  23
ENDBRANCH  14  22
TORSDOF 7
ENDMDL
MODEL 2
REMARK VINA RESULT:     -11.3      2.924      9.076
REMARK  Name = 11998575
REMARK  7 active torsions:
REMARK  status: ('A' for Active; 'I' for Inactive)
REMARK    1  A    between atoms: C_6  and  C_18
REMARK    2  A    between atoms: C_14  and  O_22
REMARK    3  A    between atoms: C_15  and  O_16
REMARK    4  A    between atoms: C_18  and  O_20
REMARK    5  A    between atoms: O_22  and  C_23
REMARK    6  A    between atoms: C_23  and  C_24
REMARK    7  A    between atoms: C_29  and  O_30
REMARK                            x       y       z     vdW  Elec       q    Type
REMARK                         _______ _______ _______ _____ _____    ______ ____
ROOT
ATOM      1  O   UNL     1      37.498 -21.311 -16.997  0.00  0.00    -0.421 OA
ATOM      2  O   UNL     1      38.703 -21.982 -15.182  0.00  0.00    -0.244 OA
ATOM      3  C   UNL     1      35.143 -22.339 -15.817  0.00  0.00    +0.009 A 
ATOM      4  C   UNL     1      35.090 -21.696 -17.136  0.00  0.00    +0.038 A 
ATOM      5  C   UNL     1      36.374 -22.438 -15.146  0.00  0.00    +0.076 A 
ATOM      6  C   UNL     1      35.331 -23.563 -13.270  0.00  0.00    +0.004 C 
ATOM      7  C   UNL     1      36.273 -21.200 -17.688  0.00  0.00    +0.152 A 
ATOM      8  C   UNL     1      36.467 -23.045 -13.883  0.00  0.00    +0.004 C 
ATOM      9  C   UNL     1      34.010 -22.872 -15.171  0.00  0.00    +0.000 C 
ATOM     10  C   UNL     1      33.924 -21.537 -17.902  0.00  0.00    +0.043 C 
ATOM     11  C   UNL     1      34.103 -23.476 -13.913  0.00  0.00    -0.002 C 
ATOM     12  C   UNL     1      37.620 -21.906 -15.748  0.00  0.00    +0.346 A 
ATOM     13  C   UNL     1      36.326 -20.574 -18.937  0.00  0.00    +0.078 C 
ATOM     14  C   UNL     1      35.156 -20.432 -19.672  0.00  0.00    +0.176 C 
ATOM     15  C   UNL     1      33.956 -20.913 -19.156  0.00  0.00    +0.173 C 
ENDROOT
BRANCH  15  16
ATOM     16  O   UNL     1      32.799 -20.782 -19.866  0.00  0.00    -0.468 OA
ATOM     17  C   UNL     1      32.377 -19.456 -20.175  0.00  0.00    +0.253 C 
ENDBRANCH  15  16
BRANCH   6  18
ATOM     18  C   UNL     1      35.430 -24.208 -11.930  0.00  0.00    +0.133 C 
ATOM     19  C   UNL     1      36.848 -24.692 -11.609  0.00  0.00    +0.037 C 
BRANCH  18  20
ATOM     20  O   UNL     1      35.022 -23.287 -10.911  0.00  0.00    -0.380 OA
ATOM     21  H   UNL     1      34.492 -22.580 -11.309  0.00  0.00    +0.211 HD
ENDBRANCH  18  20
ENDBRANCH   6  18
BRANCH  14  22
ATOM     22  O   UNL     1      35.196 -19.824 -20.890  0.00  0.00    -0.467 OA
BRANCH  22  23
ATOM     23  C   UNL     1      35.913 -18.594 -20.978  0.00  0.00    +0.232 C 
BRANCH  23  24
ATOM     24  C   UNL     1      35.419 -17.825 -22.169  0.00  0.00    +0.021 C 
ATOM     25  C   UNL     1      34.778 -18.495 -23.204  0.00  0.00    +0.002 C 
ATOM     26  C   UNL     1      35.612 -16.448 -22.227  0.00  0.00    +0.002 C 
ATOM     27  C   UNL     1      34.319 -17.780 -24.311  0.00  0.00    +0.037 C 
ATOM     28  C   UNL     1      35.154 -15.733 -23.334  0.00  0.00    +0.037 C 
ATOM     29  C   UNL     1      34.508 -16.399 -24.376  0.00  0.00    +0.139 C 
BRANCH  29  30
ATOM     30  O   UNL     1      34.061 -15.702 -25.456  0.00  0.00    -0.471 OA
ATOM     31  C   UNL     1      33.705 -14.336 -25.246  0.00  0.00    +0.252 C 
ENDBRANCH  29  30
ENDBRANCH  23  24
ENDBRANCH  22  23
ENDBRANCH  14  22
TORSDOF 7
ENDMDL
MODEL 3
REMARK VINA RESULT:     -10.9      2.152      5.451
REMARK  Name = 11998575
REMARK  7 active torsions:
REMARK  status: ('A' for Active; 'I' for Inactive)
REMARK    1  A    between atoms: C_6  and  C_18
REMARK    2  A    between atoms: C_14  and  O_22
REMARK    3  A    between atoms: C_15  and  O_16
REMARK    4  A    between atoms: C_18  and  O_20
REMARK    5  A    between atoms: O_22  and  C_23
REMARK    6  A    between atoms: C_23  and  C_24
REMARK    7  A    between atoms: C_29  and  O_30
REMARK                            x       y       z     vdW  Elec       q    Type
REMARK                         _______ _______ _______ _____ _____    ______ ____
ROOT
ATOM      1  O   UNL     1      36.315 -21.655 -17.377  0.00  0.00    -0.421 OA
ATOM      2  O   UNL     1      37.651 -20.555 -18.862  0.00  0.00    -0.244 OA
ATOM      3  C   UNL     1      34.024 -20.763 -18.773  0.00  0.00    +0.009 A 
ATOM      4  C   UNL     1      33.882 -21.608 -17.581  0.00  0.00    +0.038 A 
ATOM      5  C   UNL     1      35.308 -20.401 -19.214  0.00  0.00    +0.076 A 
ATOM      6  C   UNL     1      34.385 -19.136 -21.062  0.00  0.00    +0.004 C 
ATOM      7  C   UNL     1      35.035 -22.030 -16.917  0.00  0.00    +0.152 A 
ATOM      8  C   UNL     1      35.487 -19.595 -20.349  0.00  0.00    +0.004 C 
ATOM      9  C   UNL     1      32.927 -20.283 -19.515  0.00  0.00    +0.000 C 
ATOM     10  C   UNL     1      32.656 -22.034 -17.044  0.00  0.00    +0.043 C 
ATOM     11  C   UNL     1      33.105 -19.479 -20.646  0.00  0.00    -0.002 C 
ATOM     12  C   UNL     1      36.522 -20.858 -18.495  0.00  0.00    +0.346 A 
ATOM     13  C   UNL     1      35.004 -22.835 -15.774  0.00  0.00    +0.078 C 
ATOM     14  C   UNL     1      33.776 -23.240 -15.265  0.00  0.00    +0.176 C 
ATOM     15  C   UNL     1      32.603 -22.841 -15.899  0.00  0.00    +0.173 C 
ENDROOT
BRANCH  15  16
ATOM     16  O   UNL     1      31.391 -23.229 -15.412  0.00  0.00    -0.468 OA
ATOM     17  C   UNL     1      30.760 -22.359 -14.476  0.00  0.00    +0.253 C 
ENDBRANCH  15  16
BRANCH   6  18
ATOM     18  C   UNL     1      34.575 -18.278 -22.267  0.00  0.00    +0.133 C 
ATOM     19  C   UNL     1      35.638 -17.194 -22.061  0.00  0.00    +0.037 C 
BRANCH  18  20
ATOM     20  O   UNL     1      34.959 -19.085 -23.388  0.00  0.00    -0.380 OA
ATOM     21  H   UNL     1      35.664 -19.694 -23.119  0.00  0.00    +0.211 HD
ENDBRANCH  18  20
ENDBRANCH   6  18
BRANCH  14  22
ATOM     22  O   UNL     1      33.734 -24.023 -14.152  0.00  0.00    -0.467 OA
BRANCH  22  23
ATOM     23  C   UNL     1      34.220 -23.451 -12.938  0.00  0.00    +0.232 C 
BRANCH  23  24
ATOM     24  C   UNL     1      35.702 -23.670 -12.853  0.00  0.00    +0.021 C 
ATOM     25  C   UNL     1      36.506 -22.712 -12.248  0.00  0.00    +0.002 C 
ATOM     26  C   UNL     1      36.258 -24.830 -13.383  0.00  0.00    +0.002 C 
ATOM     27  C   UNL     1      37.885 -22.916 -12.169  0.00  0.00    +0.037 C 
ATOM     28  C   UNL     1      37.636 -25.034 -13.305  0.00  0.00    +0.037 C 
ATOM     29  C   UNL     1      38.448 -24.077 -12.698  0.00  0.00    +0.139 C 
BRANCH  29  30
ATOM     30  O   UNL     1      39.793 -24.276 -12.621  0.00  0.00    -0.471 OA
ATOM     31  C   UNL     1      40.406 -24.995 -13.689  0.00  0.00    +0.252 C 
ENDBRANCH  29  30
ENDBRANCH  23  24
ENDBRANCH  22  23
ENDBRANCH  14  22
TORSDOF 7
ENDMDL
MODEL 4
REMARK VINA RESULT:     -10.5      5.692      9.634
REMARK  Name = 11998575
REMARK  7 active torsions:
REMARK  status: ('A' for Active; 'I' for Inactive)
REMARK    1  A    between atoms: C_6  and  C_18
REMARK    2  A    between atoms: C_14  and  O_22
REMARK    3  A    between atoms: C_15  and  O_16
REMARK    4  A    between atoms: C_18  and  O_20
REMARK    5  A    between atoms: O_22  and  C_23
REMARK    6  A    between atoms: C_23  and  C_24
REMARK    7  A    between atoms: C_29  and  O_30
REMARK                            x       y       z     vdW  Elec       q    Type
REMARK                         _______ _______ _______ _____ _____    ______ ____
ROOT
ATOM      1  O   UNL     1      32.648 -12.834 -19.361  0.00  0.00    -0.421 OA
ATOM      2  O   UNL     1      31.346 -11.091 -18.679  0.00  0.00    -0.244 OA
ATOM      3  C   UNL     1      33.183 -11.488 -21.789  0.00  0.00    +0.009 A 
ATOM      4  C   UNL     1      33.766 -12.811 -21.532  0.00  0.00    +0.038 A 
ATOM      5  C   UNL     1      32.356 -10.898 -20.818  0.00  0.00    +0.076 A 
ATOM      6  C   UNL     1      32.020  -8.941 -22.207  0.00  0.00    +0.004 C 
ATOM      7  C   UNL     1      33.480 -13.446 -20.322  0.00  0.00    +0.152 A 
ATOM      8  C   UNL     1      31.780  -9.634 -21.025  0.00  0.00    +0.004 C 
ATOM      9  C   UNL     1      33.407 -10.762 -22.975  0.00  0.00    +0.000 C 
ATOM     10  C   UNL     1      34.604 -13.503 -22.422  0.00  0.00    +0.043 C 
ATOM     11  C   UNL     1      32.832  -9.504 -23.182  0.00  0.00    -0.002 C 
ATOM     12  C   UNL     1      32.063 -11.587 -19.539  0.00  0.00    +0.346 A 
ATOM     13  C   UNL     1      33.986 -14.705 -19.985  0.00  0.00    +0.078 C 
ATOM     14  C   UNL     1      34.811 -15.366 -20.886  0.00  0.00    +0.176 C 
ATOM     15  C   UNL     1      35.121 -14.766 -22.103  0.00  0.00    +0.173 C 
ENDROOT
BRANCH  15  16
ATOM     16  O   UNL     1      35.929 -15.401 -22.998  0.00  0.00    -0.468 OA
ATOM     17  C   UNL     1      35.357 -15.741 -24.259  0.00  0.00    +0.253 C 
ENDBRANCH  15  16
BRANCH   6  18
ATOM     18  C   UNL     1      31.406  -7.600 -22.427  0.00  0.00    +0.133 C 
ATOM     19  C   UNL     1      31.899  -6.551 -21.425  0.00  0.00    +0.037 C 
BRANCH  18  20
ATOM     20  O   UNL     1      31.701  -7.137 -23.751  0.00  0.00    -0.380 OA
ATOM     21  H   UNL     1      32.252  -6.341 -23.699  0.00  0.00    +0.211 HD
ENDBRANCH  18  20
ENDBRANCH   6  18
BRANCH  14  22
ATOM     22  O   UNL     1      35.308 -16.593 -20.569  0.00  0.00    -0.467 OA
BRANCH  22  23
ATOM     23  C   UNL     1      34.821 -17.704 -21.320  0.00  0.00    +0.232 C 
BRANCH  23  24
ATOM     24  C   UNL     1      34.811 -18.922 -20.442  0.00  0.00    +0.021 C 
ATOM     25  C   UNL     1      33.602 -19.515 -20.101  0.00  0.00    +0.002 C 
ATOM     26  C   UNL     1      36.014 -19.444 -19.976  0.00  0.00    +0.002 C 
ATOM     27  C   UNL     1      33.593 -20.646 -19.284  0.00  0.00    +0.037 C 
ATOM     28  C   UNL     1      36.005 -20.575 -19.160  0.00  0.00    +0.037 C 
ATOM     29  C   UNL     1      34.795 -21.175 -18.814  0.00  0.00    +0.139 C 
BRANCH  29  30
ATOM     30  O   UNL     1      34.786 -22.279 -18.018  0.00  0.00    -0.471 OA
ATOM     31  C   UNL     1      33.713 -22.400 -17.085  0.00  0.00    +0.252 C 
ENDBRANCH  29  30
ENDBRANCH  23  24
ENDBRANCH  22  23
ENDBRANCH  14  22
TORSDOF 7
ENDMDL
MODEL 5
REMARK VINA RESULT:     -10.5      7.880     12.676
REMARK  Name = 11998575
REMARK  7 active torsions:
REMARK  status: ('A' for Active; 'I' for Inactive)
REMARK    1  A    between atoms: C_6  and  C_18
REMARK    2  A    between atoms: C_14  and  O_22
REMARK    3  A    between atoms: C_15  and  O_16
REMARK    4  A    between atoms: C_18  and  O_20
REMARK    5  A    between atoms: O_22  and  C_23
REMARK    6  A    between atoms: C_23  and  C_24
REMARK    7  A    between atoms: C_29  and  O_30
REMARK                            x       y       z     vdW  Elec       q    Type
REMARK                         _______ _______ _______ _____ _____    ______ ____
ROOT
ATOM      1  O   UNL     1      34.198  -9.225 -24.039  0.00  0.00    -0.421 OA
ATOM      2  O   UNL     1      34.549  -7.024 -24.521  0.00  0.00    -0.244 OA
ATOM      3  C   UNL     1      32.750  -8.490 -21.724  0.00  0.00    +0.009 A 
ATOM      4  C   UNL     1      32.935  -9.906 -22.063  0.00  0.00    +0.038 A 
ATOM      5  C   UNL     1      33.300  -7.503 -22.560  0.00  0.00    +0.076 A 
ATOM      6  C   UNL     1      32.440  -5.736 -21.142  0.00  0.00    +0.004 C 
ATOM      7  C   UNL     1      33.655 -10.233 -23.214  0.00  0.00    +0.152 A 
ATOM      8  C   UNL     1      33.145  -6.137 -22.272  0.00  0.00    +0.004 C 
ATOM      9  C   UNL     1      32.041  -8.053 -20.588  0.00  0.00    +0.000 C 
ATOM     10  C   UNL     1      32.436 -10.981 -21.309  0.00  0.00    +0.043 C 
ATOM     11  C   UNL     1      31.889  -6.693 -20.301  0.00  0.00    -0.002 C 
ATOM     12  C   UNL     1      34.062  -7.868 -23.778  0.00  0.00    +0.346 A 
ATOM     13  C   UNL     1      33.885 -11.550 -23.620  0.00  0.00    +0.078 C 
ATOM     14  C   UNL     1      33.380 -12.592 -22.853  0.00  0.00    +0.176 C 
ATOM     15  C   UNL     1      32.656 -12.309 -21.698  0.00  0.00    +0.173 C 
ENDROOT
BRANCH  15  16
ATOM     16  O   UNL     1      32.154 -13.320 -20.934  0.00  0.00    -0.468 OA
ATOM     17  C   UNL     1      32.218 -13.155 -19.520  0.00  0.00    +0.253 C 
ENDBRANCH  15  16
BRANCH   6  18
ATOM     18  C   UNL     1      32.278  -4.286 -20.835  0.00  0.00    +0.133 C 
ATOM     19  C   UNL     1      32.261  -3.412 -22.094  0.00  0.00    +0.037 C 
BRANCH  18  20
ATOM     20  O   UNL     1      31.057  -4.071 -20.116  0.00  0.00    -0.380 OA
ATOM     21  H   UNL     1      30.670  -3.223 -20.385  0.00  0.00    +0.211 HD
ENDBRANCH  18  20
ENDBRANCH   6  18
BRANCH  14  22
ATOM     22  O   UNL     1      33.599 -13.880 -23.238  0.00  0.00    -0.467 OA
BRANCH  22  23
ATOM     23  C   UNL     1      34.958 -14.307 -23.329  0.00  0.00    +0.232 C 
BRANCH  23  24
ATOM     24  C   UNL     1      35.165 -15.476 -22.410  0.00  0.00    +0.021 C 
ATOM     25  C   UNL     1      35.370 -16.743 -22.943  0.00  0.00    +0.002 C 
ATOM     26  C   UNL     1      35.149 -15.280 -21.033  0.00  0.00    +0.002 C 
ATOM     27  C   UNL     1      35.562 -17.829 -22.089  0.00  0.00    +0.037 C 
ATOM     28  C   UNL     1      35.341 -16.366 -20.179  0.00  0.00    +0.037 C 
ATOM     29  C   UNL     1      35.548 -17.640 -20.707  0.00  0.00    +0.139 C 
BRANCH  29  30
ATOM     30  O   UNL     1      35.736 -18.700 -19.874  0.00  0.00    -0.471 OA
ATOM     31  C   UNL     1      34.790 -19.765 -19.954  0.00  0.00    +0.252 C 
ENDBRANCH  29  30
ENDBRANCH  23  24
ENDBRANCH  22  23
ENDBRANCH  14  22
TORSDOF 7
ENDMDL
MODEL 6
REMARK VINA RESULT:     -10.5      7.595     12.372
REMARK  Name = 11998575
REMARK  7 active torsions:
REMARK  status: ('A' for Active; 'I' for Inactive)
REMARK    1  A    between atoms: C_6  and  C_18
REMARK    2  A    between atoms: C_14  and  O_22
REMARK    3  A    between atoms: C_15  and  O_16
REMARK    4  A    between atoms: C_18  and  O_20
REMARK    5  A    between atoms: O_22  and  C_23
REMARK    6  A    between atoms: C_23  and  C_24
REMARK    7  A    between atoms: C_29  and  O_30
REMARK                            x       y       z     vdW  Elec       q    Type
REMARK                         _______ _______ _______ _____ _____    ______ ____
ROOT
ATOM      1  O   UNL     1      32.226 -11.195 -19.889  0.00  0.00    -0.421 OA
ATOM      2  O   UNL     1      31.531  -9.893 -18.152  0.00  0.00    -0.244 OA
ATOM      3  C   UNL     1      32.714  -8.878 -21.434  0.00  0.00    +0.009 A 
ATOM      4  C   UNL     1      32.972 -10.210 -21.996  0.00  0.00    +0.038 A 
ATOM      5  C   UNL     1      32.222  -8.765 -20.123  0.00  0.00    +0.076 A 
ATOM      6  C   UNL     1      32.191  -6.347 -20.277  0.00  0.00    +0.004 C 
ATOM      7  C   UNL     1      32.719 -11.332 -21.204  0.00  0.00    +0.152 A 
ATOM      8  C   UNL     1      31.963  -7.510 -19.549  0.00  0.00    +0.004 C 
ATOM      9  C   UNL     1      32.935  -7.683 -22.147  0.00  0.00    +0.000 C 
ATOM     10  C   UNL     1      33.462 -10.451 -23.290  0.00  0.00    +0.043 C 
ATOM     11  C   UNL     1      32.676  -6.433 -21.575  0.00  0.00    -0.002 C 
ATOM     12  C   UNL     1      31.959  -9.968 -19.297  0.00  0.00    +0.346 A 
ATOM     13  C   UNL     1      32.932 -12.640 -21.649  0.00  0.00    +0.078 C 
ATOM     14  C   UNL     1      33.416 -12.848 -22.934  0.00  0.00    +0.176 C 
ATOM     15  C   UNL     1      33.681 -11.755 -23.754  0.00  0.00    +0.173 C 
ENDROOT
BRANCH  15  16
ATOM     16  O   UNL     1      34.156 -11.942 -25.018  0.00  0.00    -0.468 OA
ATOM     17  C   UNL     1      34.219 -10.794 -25.862  0.00  0.00    +0.253 C 
ENDBRANCH  15  16
BRANCH   6  18
ATOM     18  C   UNL     1      31.914  -5.015 -19.668  0.00  0.00    +0.133 C 
ATOM     19  C   UNL     1      32.615  -4.823 -18.319  0.00  0.00    +0.037 C 
BRANCH  18  20
ATOM     20  O   UNL     1      32.340  -3.973 -20.554  0.00  0.00    -0.380 OA
ATOM     21  H   UNL     1      32.880  -3.333 -20.064  0.00  0.00    +0.211 HD
ENDBRANCH  18  20
ENDBRANCH   6  18
BRANCH  14  22
ATOM     22  O   UNL     1      33.625 -14.118 -23.378  0.00  0.00    -0.467 OA
BRANCH  22  23
ATOM     23  C   UNL     1      34.976 -14.577 -23.420  0.00  0.00    +0.232 C 
BRANCH  23  24
ATOM     24  C   UNL     1      35.128 -15.737 -22.481  0.00  0.00    +0.021 C 
ATOM     25  C   UNL     1      35.207 -15.510 -21.112  0.00  0.00    +0.002 C 
ATOM     26  C   UNL     1      35.190 -17.031 -22.990  0.00  0.00    +0.002 C 
ATOM     27  C   UNL     1      35.349 -16.590 -20.239  0.00  0.00    +0.037 C 
ATOM     28  C   UNL     1      35.332 -18.110 -22.118  0.00  0.00    +0.037 C 
ATOM     29  C   UNL     1      35.411 -17.889 -20.743  0.00  0.00    +0.139 C 
BRANCH  29  30
ATOM     30  O   UNL     1      35.549 -18.942 -19.891  0.00  0.00    -0.471 OA
ATOM     31  C   UNL     1      34.465 -19.866 -19.819  0.00  0.00    +0.252 C 
ENDBRANCH  29  30
ENDBRANCH  23  24
ENDBRANCH  22  23
ENDBRANCH  14  22
TORSDOF 7
ENDMDL
MODEL 7
REMARK VINA RESULT:     -10.3      2.829      8.970
REMARK  Name = 11998575
REMARK  7 active torsions:
REMARK  status: ('A' for Active; 'I' for Inactive)
REMARK    1  A    between atoms: C_6  and  C_18
REMARK    2  A    between atoms: C_14  and  O_22
REMARK    3  A    between atoms: C_15  and  O_16
REMARK    4  A    between atoms: C_18  and  O_20
REMARK    5  A    between atoms: O_22  and  C_23
REMARK    6  A    between atoms: C_23  and  C_24
REMARK    7  A    between atoms: C_29  and  O_30
REMARK                            x       y       z     vdW  Elec       q    Type
REMARK                         _______ _______ _______ _____ _____    ______ ____
ROOT
ATOM      1  O   UNL     1      33.082 -21.458 -18.388  0.00  0.00    -0.421 OA
ATOM      2  O   UNL     1      32.550 -22.805 -16.628  0.00  0.00    -0.244 OA
ATOM      3  C   UNL     1      35.747 -21.291 -17.457  0.00  0.00    +0.009 A 
ATOM      4  C   UNL     1      35.345 -20.585 -18.680  0.00  0.00    +0.038 A 
ATOM      5  C   UNL     1      34.796 -22.050 -16.754  0.00  0.00    +0.076 A 
ATOM      6  C   UNL     1      36.441 -22.682 -15.091  0.00  0.00    +0.004 C 
ATOM      7  C   UNL     1      34.021 -20.690 -19.111  0.00  0.00    +0.152 A 
ATOM      8  C   UNL     1      35.141 -22.740 -15.580  0.00  0.00    +0.004 C 
ATOM      9  C   UNL     1      37.056 -21.251 -16.937  0.00  0.00    +0.000 C 
ATOM     10  C   UNL     1      36.200 -19.797 -19.467  0.00  0.00    +0.043 C 
ATOM     11  C   UNL     1      37.398 -21.938 -15.768  0.00  0.00    -0.002 C 
ATOM     12  C   UNL     1      33.394 -22.149 -17.225  0.00  0.00    +0.346 A 
ATOM     13  C   UNL     1      33.541 -20.055 -20.260  0.00  0.00    +0.078 C 
ATOM     14  C   UNL     1      34.411 -19.282 -21.018  0.00  0.00    +0.176 C 
ATOM     15  C   UNL     1      35.739 -19.152 -20.623  0.00  0.00    +0.173 C 
ENDROOT
BRANCH  15  16
ATOM     16  O   UNL     1      36.605 -18.397 -21.356  0.00  0.00    -0.468 OA
ATOM     17  C   UNL     1      37.950 -18.319 -20.889  0.00  0.00    +0.253 C 
ENDBRANCH  15  16
BRANCH   6  18
ATOM     18  C   UNL     1      36.807 -23.414 -13.844  0.00  0.00    +0.133 C 
ATOM     19  C   UNL     1      36.909 -24.928 -14.054  0.00  0.00    +0.037 C 
BRANCH  18  20
ATOM     20  O   UNL     1      38.063 -22.938 -13.346  0.00  0.00    -0.380 OA
ATOM     21  H   UNL     1      38.420 -22.273 -13.955  0.00  0.00    +0.211 HD
ENDBRANCH  18  20
ENDBRANCH   6  18
BRANCH  14  22
ATOM     22  O   UNL     1      33.955 -18.658 -22.139  0.00  0.00    -0.467 OA
BRANCH  22  23
ATOM     23  C   UNL     1      34.930 -18.253 -23.099  0.00  0.00    +0.232 C 
BRANCH  23  24
ATOM     24  C   UNL     1      34.617 -16.857 -23.553  0.00  0.00    +0.021 C 
ATOM     25  C   UNL     1      34.001 -16.654 -24.782  0.00  0.00    +0.002 C 
ATOM     26  C   UNL     1      34.951 -15.778 -22.740  0.00  0.00    +0.002 C 
ATOM     27  C   UNL     1      33.711 -15.356 -25.204  0.00  0.00    +0.037 C 
ATOM     28  C   UNL     1      34.661 -14.480 -23.162  0.00  0.00    +0.037 C 
ATOM     29  C   UNL     1      34.042 -14.270 -24.394  0.00  0.00    +0.139 C 
BRANCH  29  30
ATOM     30  O   UNL     1      33.759 -13.004 -24.806  0.00  0.00    -0.471 OA
ATOM     31  C   UNL     1      34.017 -11.947 -23.883  0.00  0.00    +0.252 C 
ENDBRANCH  29  30
ENDBRANCH  23  24
ENDBRANCH  22  23
ENDBRANCH  14  22
TORSDOF 7
ENDMDL
MODEL 8
REMARK VINA RESULT:     -10.2      2.302      5.797
REMARK  Name = 11998575
REMARK  7 active torsions:
REMARK  status: ('A' for Active; 'I' for Inactive)
REMARK    1  A    between atoms: C_6  and  C_18
REMARK    2  A    between atoms: C_14  and  O_22
REMARK    3  A    between atoms: C_15  and  O_16
REMARK    4  A    between atoms: C_18  and  O_20
REMARK    5  A    between atoms: O_22  and  C_23
REMARK    6  A    between atoms: C_23  and  C_24
REMARK    7  A    between atoms: C_29  and  O_30
REMARK                            x       y       z     vdW  Elec       q    Type
REMARK                         _______ _______ _______ _____ _____    ______ ____
ROOT
ATOM      1  O   UNL     1      37.033 -19.806 -19.093  0.00  0.00    -0.421 OA
ATOM      2  O   UNL     1      38.256 -18.402 -20.409  0.00  0.00    -0.244 OA
ATOM      3  C   UNL     1      34.762 -19.354 -20.716  0.00  0.00    +0.009 A 
ATOM      4  C   UNL     1      34.677 -20.252 -19.558  0.00  0.00    +0.038 A 
ATOM      5  C   UNL     1      35.982 -18.720 -21.010  0.00  0.00    +0.076 A 
ATOM      6  C   UNL     1      35.010 -17.606 -22.930  0.00  0.00    +0.004 C 
ATOM      7  C   UNL     1      35.819 -20.452 -18.779  0.00  0.00    +0.152 A 
ATOM      8  C   UNL     1      36.104 -17.854 -22.109  0.00  0.00    +0.004 C 
ATOM      9  C   UNL     1      33.672 -19.083 -21.566  0.00  0.00    +0.000 C 
ATOM     10  C   UNL     1      33.519 -20.940 -19.163  0.00  0.00    +0.043 C 
ATOM     11  C   UNL     1      33.795 -18.220 -22.660  0.00  0.00    -0.002 C 
ATOM     12  C   UNL     1      37.184 -18.943 -20.171  0.00  0.00    +0.346 A 
ATOM     13  C   UNL     1      35.838 -21.286 -17.658  0.00  0.00    +0.078 C 
ATOM     14  C   UNL     1      34.676 -21.954 -17.290  0.00  0.00    +0.176 C 
ATOM     15  C   UNL     1      33.517 -21.781 -18.041  0.00  0.00    +0.173 C 
ENDROOT
BRANCH  15  16
ATOM     16  O   UNL     1      32.369 -22.428 -17.694  0.00  0.00    -0.468 OA
ATOM     17  C   UNL     1      31.786 -22.083 -16.440  0.00  0.00    +0.253 C 
ENDBRANCH  15  16
BRANCH   6  18
ATOM     18  C   UNL     1      35.141 -16.685 -24.096  0.00  0.00    +0.133 C 
ATOM     19  C   UNL     1      33.838 -16.547 -24.890  0.00  0.00    +0.037 C 
BRANCH  18  20
ATOM     20  O   UNL     1      35.541 -15.384 -23.650  0.00  0.00    -0.380 OA
ATOM     21  H   UNL     1      35.134 -15.198 -22.789  0.00  0.00    +0.211 HD
ENDBRANCH  18  20
ENDBRANCH   6  18
BRANCH  14  22
ATOM     22  O   UNL     1      34.684 -22.768 -16.199  0.00  0.00    -0.467 OA
BRANCH  22  23
ATOM     23  C   UNL     1      35.431 -22.327 -15.066  0.00  0.00    +0.232 C 
BRANCH  23  24
ATOM     24  C   UNL     1      36.488 -23.346 -14.752  0.00  0.00    +0.021 C 
ATOM     25  C   UNL     1      37.807 -22.940 -14.584  0.00  0.00    +0.002 C 
ATOM     26  C   UNL     1      36.138 -24.687 -14.633  0.00  0.00    +0.002 C 
ATOM     27  C   UNL     1      38.789 -23.887 -14.292  0.00  0.00    +0.037 C 
ATOM     28  C   UNL     1      37.120 -25.633 -14.341  0.00  0.00    +0.037 C 
ATOM     29  C   UNL     1      38.445 -25.233 -14.171  0.00  0.00    +0.139 C 
BRANCH  29  30
ATOM     30  O   UNL     1      39.403 -26.157 -13.886  0.00  0.00    -0.471 OA
ATOM     31  C   UNL     1      40.759 -25.781 -14.122  0.00  0.00    +0.252 C 
ENDBRANCH  29  30
ENDBRANCH  23  24
ENDBRANCH  22  23
ENDBRANCH  14  22
TORSDOF 7
ENDMDL
MODEL 9
REMARK VINA RESULT:     -10.1      2.519      8.862
REMARK  Name = 11998575
REMARK  7 active torsions:
REMARK  status: ('A' for Active; 'I' for Inactive)
REMARK    1  A    between atoms: C_6  and  C_18
REMARK    2  A    between atoms: C_14  and  O_22
REMARK    3  A    between atoms: C_15  and  O_16
REMARK    4  A    between atoms: C_18  and  O_20
REMARK    5  A    between atoms: O_22  and  C_23
REMARK    6  A    between atoms: C_23  and  C_24
REMARK    7  A    between atoms: C_29  and  O_30
REMARK                            x       y       z     vdW  Elec       q    Type
REMARK                         _______ _______ _______ _____ _____    ______ ____
ROOT
ATOM      1  O   UNL     1      32.717 -21.818 -17.774  0.00  0.00    -0.421 OA
ATOM      2  O   UNL     1      32.078 -23.140 -16.030  0.00  0.00    -0.244 OA
ATOM      3  C   UNL     1      35.371 -21.810 -16.798  0.00  0.00    +0.009 A 
ATOM      4  C   UNL     1      35.030 -21.076 -18.023  0.00  0.00    +0.038 A 
ATOM      5  C   UNL     1      34.366 -22.516 -16.115  0.00  0.00    +0.076 A 
ATOM      6  C   UNL     1      35.944 -23.251 -14.429  0.00  0.00    +0.004 C 
ATOM      7  C   UNL     1      33.710 -21.102 -18.476  0.00  0.00    +0.152 A 
ATOM      8  C   UNL     1      34.651 -23.231 -14.940  0.00  0.00    +0.004 C 
ATOM      9  C   UNL     1      36.671 -21.849 -16.257  0.00  0.00    +0.000 C 
ATOM     10  C   UNL     1      35.943 -20.335 -18.792  0.00  0.00    +0.043 C 
ATOM     11  C   UNL     1      36.953 -22.560 -15.086  0.00  0.00    -0.002 C 
ATOM     12  C   UNL     1      32.968 -22.532 -16.609  0.00  0.00    +0.346 A 
ATOM     13  C   UNL     1      33.287 -20.435 -19.629  0.00  0.00    +0.078 C 
ATOM     14  C   UNL     1      34.213 -19.710 -20.369  0.00  0.00    +0.176 C 
ATOM     15  C   UNL     1      35.539 -19.659 -19.951  0.00  0.00    +0.173 C 
ENDROOT
BRANCH  15  16
ATOM     16  O   UNL     1      36.460 -18.952 -20.665  0.00  0.00    -0.468 OA
ATOM     17  C   UNL     1      37.783 -18.896 -20.138  0.00  0.00    +0.253 C 
ENDBRANCH  15  16
BRANCH   6  18
ATOM     18  C   UNL     1      36.245 -24.008 -13.181  0.00  0.00    +0.133 C 
ATOM     19  C   UNL     1      37.744 -24.262 -12.989  0.00  0.00    +0.037 C 
BRANCH  18  20
ATOM     20  O   UNL     1      35.756 -23.291 -12.041  0.00  0.00    -0.380 OA
ATOM     21  H   UNL     1      35.315 -23.908 -11.437  0.00  0.00    +0.211 HD
ENDBRANCH  18  20
ENDBRANCH   6  18
BRANCH  14  22
ATOM     22  O   UNL     1      33.812 -19.055 -21.493  0.00  0.00    -0.467 OA
BRANCH  22  23
ATOM     23  C   UNL     1      34.670 -19.132 -22.630  0.00  0.00    +0.232 C 
BRANCH  23  24
ATOM     24  C   UNL     1      34.536 -17.870 -23.431  0.00  0.00    +0.021 C 
ATOM     25  C   UNL     1      33.780 -17.872 -24.597  0.00  0.00    +0.002 C 
ATOM     26  C   UNL     1      35.172 -16.710 -23.000  0.00  0.00    +0.002 C 
ATOM     27  C   UNL     1      33.655 -16.698 -25.342  0.00  0.00    +0.037 C 
ATOM     28  C   UNL     1      35.048 -15.538 -23.745  0.00  0.00    +0.037 C 
ATOM     29  C   UNL     1      34.290 -15.532 -24.916  0.00  0.00    +0.139 C 
BRANCH  29  30
ATOM     30  O   UNL     1      34.168 -14.387 -25.642  0.00  0.00    -0.471 OA
ATOM     31  C   UNL     1      33.508 -13.288 -25.017  0.00  0.00    +0.252 C 
ENDBRANCH  29  30
ENDBRANCH  23  24
ENDBRANCH  22  23
ENDBRANCH  14  22
TORSDOF 7
ENDMDL
