MODEL 1
REMARK VINA RESULT:     -12.5      0.000      0.000
REMARK  Name = 10200813
REMARK  4 active torsions:
REMARK  status: ('A' for Active; 'I' for Inactive)
REMARK    1  A    between atoms: C_3  and  C_24
REMARK    2  A    between atoms: C_8  and  C_11
REMARK    3  A    between atoms: N_10  and  C_16
REMARK    4  A    between atoms: C_24  and  C_26
REMARK                            x       y       z     vdW  Elec       q    Type
REMARK                         _______ _______ _______ _____ _____    ______ ____
ROOT
ATOM      1  O   UNL     1      32.028 -21.605 -17.200  0.00  0.00    -0.265 OA
ATOM      2  N   UNL     1      33.728 -21.338 -18.802  0.00  0.00    -0.272 N 
ATOM      3  C   UNL     1      35.120 -19.455 -20.507  0.00  0.00    +0.008 C 
ATOM      4  C   UNL     1      33.706 -19.174 -19.976  0.00  0.00    +0.022 C 
ATOM      5  C   UNL     1      35.875 -20.382 -19.542  0.00  0.00    +0.022 C 
ATOM      6  C   UNL     1      32.955 -20.473 -19.691  0.00  0.00    +0.094 C 
ATOM      7  C   UNL     1      35.083 -21.657 -19.262  0.00  0.00    +0.094 C 
ATOM      8  C   UNL     1      33.148 -21.830 -17.642  0.00  0.00    +0.303 C 
ENDROOT
BRANCH   8  11
ATOM      9  O   UNL     1      33.870 -23.939 -17.047  0.00  0.00    -0.265 OA
ATOM     10  N   UNL     1      34.784 -22.065 -15.926  0.00  0.00    -0.277 N 
ATOM     11  C   UNL     1      33.985 -22.740 -16.827  0.00  0.00    +0.303 C 
ATOM     12  H   UNL     1      34.710 -21.083 -15.926  0.00  0.00    +0.155 HD
BRANCH  10  16
ATOM     13  O   UNL     1      39.245 -23.495 -14.581  0.00  0.00    -0.407 OA
ATOM     14  O   UNL     1      40.755 -24.408 -13.086  0.00  0.00    -0.223 OA
ATOM     15  N   UNL     1      38.503 -24.203 -12.523  0.00  0.00    -0.287 N 
ATOM     16  C   UNL     1      35.697 -22.627 -15.004  0.00  0.00    +0.054 C 
ATOM     17  C   UNL     1      37.034 -22.739 -15.364  0.00  0.00    +0.054 C 
ATOM     18  C   UNL     1      35.221 -23.052 -13.756  0.00  0.00    +0.016 C 
ATOM     19  C   UNL     1      37.882 -23.292 -14.429  0.00  0.00    +0.167 A 
ATOM     20  C   UNL     1      37.419 -23.711 -13.200  0.00  0.00    +0.096 A 
ATOM     21  C   UNL     1      36.098 -23.609 -12.823  0.00  0.00    +0.022 C 
ATOM     22  C   UNL     1      39.607 -24.075 -13.351  0.00  0.00    +0.419 A 
ATOM     23  H   UNL     1      38.499 -24.579 -11.613  0.00  0.00    +0.172 HD
ENDBRANCH  10  16
ENDBRANCH   8  11
BRANCH   3  24
ATOM     24  C   UNL     1      35.888 -18.153 -20.723  0.00  0.00    +0.026 C 
BRANCH  24  26
ATOM     25  F   UNL     1      34.196 -15.502 -25.382  0.00  0.00    -0.204 F 
ATOM     26  C   UNL     1      35.436 -17.443 -21.970  0.00  0.00    -0.022 C 
ATOM     27  C   UNL     1      35.547 -16.062 -22.050  0.00  0.00    -0.002 C 
ATOM     28  C   UNL     1      34.912 -18.180 -23.024  0.00  0.00    -0.002 C 
ATOM     29  C   UNL     1      35.127 -15.405 -23.206  0.00  0.00    +0.029 C 
ATOM     30  C   UNL     1      34.492 -17.522 -24.181  0.00  0.00    +0.029 C 
ATOM     31  C   UNL     1      34.600 -16.135 -24.272  0.00  0.00    +0.140 C 
ENDBRANCH  24  26
ENDBRANCH   3  24
TORSDOF 4
ENDMDL
MODEL 2
REMARK VINA RESULT:     -12.3      1.800      2.317
REMARK  Name = 10200813
REMARK  4 active torsions:
REMARK  status: ('A' for Active; 'I' for Inactive)
REMARK    1  A    between atoms: C_3  and  C_24
REMARK    2  A    between atoms: C_8  and  C_11
REMARK    3  A    between atoms: N_10  and  C_16
REMARK    4  A    between atoms: C_24  and  C_26
REMARK                            x       y       z     vdW  Elec       q    Type
REMARK                         _______ _______ _______ _____ _____    ______ ____
ROOT
ATOM      1  O   UNL     1      31.997 -21.349 -17.822  0.00  0.00    -0.265 OA
ATOM      2  N   UNL     1      33.947 -21.079 -19.108  0.00  0.00    -0.272 N 
ATOM      3  C   UNL     1      35.622 -19.190 -20.528  0.00  0.00    +0.008 C 
ATOM      4  C   UNL     1      34.140 -18.902 -20.242  0.00  0.00    +0.022 C 
ATOM      5  C   UNL     1      36.195 -20.134 -19.459  0.00  0.00    +0.022 C 
ATOM      6  C   UNL     1      33.343 -20.198 -20.104  0.00  0.00    +0.094 C 
ATOM      7  C   UNL     1      35.358 -21.405 -19.334  0.00  0.00    +0.094 C 
ATOM      8  C   UNL     1      33.175 -21.578 -18.069  0.00  0.00    +0.303 C 
ENDROOT
BRANCH   8  11
ATOM      9  O   UNL     1      33.883 -23.686 -17.454  0.00  0.00    -0.265 OA
ATOM     10  N   UNL     1      34.362 -21.863 -16.024  0.00  0.00    -0.277 N 
ATOM     11  C   UNL     1      33.854 -22.505 -17.135  0.00  0.00    +0.303 C 
ATOM     12  H   UNL     1      34.220 -20.889 -15.977  0.00  0.00    +0.155 HD
BRANCH  10  16
ATOM     13  O   UNL     1      34.612 -23.698 -11.516  0.00  0.00    -0.407 OA
ATOM     14  O   UNL     1      35.739 -24.657  -9.739  0.00  0.00    -0.223 OA
ATOM     15  N   UNL     1      36.861 -24.131 -11.713  0.00  0.00    -0.287 N 
ATOM     16  C   UNL     1      35.064 -22.447 -14.944  0.00  0.00    +0.054 C 
ATOM     17  C   UNL     1      34.372 -22.751 -13.778  0.00  0.00    +0.054 C 
ATOM     18  C   UNL     1      36.435 -22.702 -15.087  0.00  0.00    +0.016 C 
ATOM     19  C   UNL     1      35.102 -23.320 -12.756  0.00  0.00    +0.167 A 
ATOM     20  C   UNL     1      36.449 -23.572 -12.892  0.00  0.00    +0.096 A 
ATOM     21  C   UNL     1      37.155 -23.280 -14.038  0.00  0.00    +0.022 C 
ATOM     22  C   UNL     1      35.757 -24.210 -10.879  0.00  0.00    +0.419 A 
ATOM     23  H   UNL     1      37.776 -24.425 -11.495  0.00  0.00    +0.172 HD
ENDBRANCH  10  16
ENDBRANCH   8  11
BRANCH   3  24
ATOM     24  C   UNL     1      36.425 -17.893 -20.594  0.00  0.00    +0.026 C 
BRANCH  24  26
ATOM     25  F   UNL     1      34.053 -14.164 -24.067  0.00  0.00    -0.204 F 
ATOM     26  C   UNL     1      35.790 -16.896 -21.523  0.00  0.00    -0.022 C 
ATOM     27  C   UNL     1      35.606 -17.225 -22.859  0.00  0.00    -0.002 C 
ATOM     28  C   UNL     1      35.396 -15.657 -21.033  0.00  0.00    -0.002 C 
ATOM     29  C   UNL     1      35.017 -16.300 -23.721  0.00  0.00    +0.029 C 
ATOM     30  C   UNL     1      34.807 -14.732 -21.894  0.00  0.00    +0.029 C 
ATOM     31  C   UNL     1      34.618 -15.053 -23.238  0.00  0.00    +0.140 C 
ENDBRANCH  24  26
ENDBRANCH   3  24
TORSDOF 4
ENDMDL
MODEL 3
REMARK VINA RESULT:     -12.3      4.991      7.635
REMARK  Name = 10200813
REMARK  4 active torsions:
REMARK  status: ('A' for Active; 'I' for Inactive)
REMARK    1  A    between atoms: C_3  and  C_24
REMARK    2  A    between atoms: C_8  and  C_11
REMARK    3  A    between atoms: N_10  and  C_16
REMARK    4  A    between atoms: C_24  and  C_26
REMARK                            x       y       z     vdW  Elec       q    Type
REMARK                         _______ _______ _______ _____ _____    ______ ____
ROOT
ATOM      1  O   UNL     1      35.268 -16.734 -23.785  0.00  0.00    -0.265 OA
ATOM      2  N   UNL     1      34.994 -15.152 -22.069  0.00  0.00    -0.272 N 
ATOM      3  C   UNL     1      33.323 -13.024 -21.034  0.00  0.00    +0.008 C 
ATOM      4  C   UNL     1      33.289 -13.432 -22.515  0.00  0.00    +0.022 C 
ATOM      5  C   UNL     1      33.741 -14.219 -20.164  0.00  0.00    +0.022 C 
ATOM      6  C   UNL     1      34.619 -14.047 -22.949  0.00  0.00    +0.094 C 
ATOM      7  C   UNL     1      35.060 -14.821 -20.642  0.00  0.00    +0.094 C 
ATOM      8  C   UNL     1      35.301 -16.391 -22.610  0.00  0.00    +0.303 C 
ENDROOT
BRANCH   8  11
ATOM      9  O   UNL     1      36.920 -17.522 -21.416  0.00  0.00    -0.265 OA
ATOM     10  N   UNL     1      34.658 -18.171 -21.162  0.00  0.00    -0.277 N 
ATOM     11  C   UNL     1      35.722 -17.439 -21.651  0.00  0.00    +0.303 C 
ATOM     12  H   UNL     1      33.766 -17.922 -21.497  0.00  0.00    +0.155 HD
BRANCH  10  16
ATOM     13  O   UNL     1      32.577 -21.331 -18.092  0.00  0.00    -0.407 OA
ATOM     14  O   UNL     1      32.635 -23.078 -16.577  0.00  0.00    -0.223 OA
ATOM     15  N   UNL     1      34.597 -22.288 -17.555  0.00  0.00    -0.287 N 
ATOM     16  C   UNL     1      34.708 -19.238 -20.236  0.00  0.00    +0.054 C 
ATOM     17  C   UNL     1      33.523 -19.689 -19.667  0.00  0.00    +0.054 C 
ATOM     18  C   UNL     1      35.951 -19.806 -19.924  0.00  0.00    +0.016 C 
ATOM     19  C   UNL     1      33.626 -20.732 -18.771  0.00  0.00    +0.167 A 
ATOM     20  C   UNL     1      34.846 -21.293 -18.461  0.00  0.00    +0.096 A 
ATOM     21  C   UNL     1      36.032 -20.862 -19.014  0.00  0.00    +0.022 C 
ATOM     22  C   UNL     1      33.230 -22.316 -17.329  0.00  0.00    +0.419 A 
ATOM     23  H   UNL     1      35.267 -22.879 -17.139  0.00  0.00    +0.172 HD
ENDBRANCH  10  16
ENDBRANCH   8  11
BRANCH   3  24
ATOM     24  C   UNL     1      31.969 -12.475 -20.592  0.00  0.00    +0.026 C 
BRANCH  24  26
ATOM     25  F   UNL     1      32.346  -7.114 -18.946  0.00  0.00    -0.204 F 
ATOM     26  C   UNL     1      32.069 -11.040 -20.152  0.00  0.00    -0.022 C 
ATOM     27  C   UNL     1      32.150 -10.036 -21.106  0.00  0.00    -0.002 C 
ATOM     28  C   UNL     1      32.081 -10.740 -18.796  0.00  0.00    -0.002 C 
ATOM     29  C   UNL     1      32.243  -8.705 -20.697  0.00  0.00    +0.029 C 
ATOM     30  C   UNL     1      32.174  -9.409 -18.387  0.00  0.00    +0.029 C 
ATOM     31  C   UNL     1      32.255  -8.392 -19.338  0.00  0.00    +0.140 C 
ENDBRANCH  24  26
ENDBRANCH   3  24
TORSDOF 4
ENDMDL
MODEL 4
REMARK VINA RESULT:     -12.1      4.337      7.325
REMARK  Name = 10200813
REMARK  4 active torsions:
REMARK  status: ('A' for Active; 'I' for Inactive)
REMARK    1  A    between atoms: C_3  and  C_24
REMARK    2  A    between atoms: C_8  and  C_11
REMARK    3  A    between atoms: N_10  and  C_16
REMARK    4  A    between atoms: C_24  and  C_26
REMARK                            x       y       z     vdW  Elec       q    Type
REMARK                         _______ _______ _______ _____ _____    ______ ____
ROOT
ATOM      1  O   UNL     1      34.153 -18.001 -24.403  0.00  0.00    -0.265 OA
ATOM      2  N   UNL     1      34.846 -15.941 -23.506  0.00  0.00    -0.272 N 
ATOM      3  C   UNL     1      34.121 -13.172 -23.058  0.00  0.00    +0.008 C 
ATOM      4  C   UNL     1      33.462 -14.013 -24.162  0.00  0.00    +0.022 C 
ATOM      5  C   UNL     1      34.594 -14.079 -21.911  0.00  0.00    +0.022 C 
ATOM      6  C   UNL     1      34.390 -15.131 -24.634  0.00  0.00    +0.094 C 
ATOM      7  C   UNL     1      35.499 -15.197 -22.425  0.00  0.00    +0.094 C 
ATOM      8  C   UNL     1      34.686 -17.319 -23.536  0.00  0.00    +0.303 C 
ENDROOT
BRANCH   8  11
ATOM      9  O   UNL     1      36.424 -17.962 -22.162  0.00  0.00    -0.265 OA
ATOM     10  N   UNL     1      34.250 -18.777 -21.704  0.00  0.00    -0.277 N 
ATOM     11  C   UNL     1      35.223 -18.066 -22.376  0.00  0.00    +0.303 C 
ATOM     12  H   UNL     1      33.334 -18.710 -22.061  0.00  0.00    +0.155 HD
BRANCH  10  16
ATOM     13  O   UNL     1      32.545 -21.525 -18.058  0.00  0.00    -0.407 OA
ATOM     14  O   UNL     1      32.801 -22.862 -16.189  0.00  0.00    -0.223 OA
ATOM     15  N   UNL     1      34.659 -21.957 -17.267  0.00  0.00    -0.287 N 
ATOM     16  C   UNL     1      34.420 -19.591 -20.560  0.00  0.00    +0.054 C 
ATOM     17  C   UNL     1      33.296 -20.117 -19.936  0.00  0.00    +0.054 C 
ATOM     18  C   UNL     1      35.719 -19.841 -20.096  0.00  0.00    +0.016 C 
ATOM     19  C   UNL     1      33.518 -20.905 -18.826  0.00  0.00    +0.167 A 
ATOM     20  C   UNL     1      34.792 -21.153 -18.366  0.00  0.00    +0.096 A 
ATOM     21  C   UNL     1      35.920 -20.642 -18.970  0.00  0.00    +0.022 C 
ATOM     22  C   UNL     1      33.306 -22.185 -17.076  0.00  0.00    +0.419 A 
ATOM     23  H   UNL     1      35.392 -22.311 -16.711  0.00  0.00    +0.172 HD
ENDBRANCH  10  16
ENDBRANCH   8  11
BRANCH   3  24
ATOM     24  C   UNL     1      33.160 -12.103 -22.544  0.00  0.00    +0.026 C 
BRANCH  24  26
ATOM     25  F   UNL     1      34.794  -6.947 -24.075  0.00  0.00    -0.204 F 
ATOM     26  C   UNL     1      33.598 -10.723 -22.953  0.00  0.00    -0.022 C 
ATOM     27  C   UNL     1      32.983  -9.614 -22.388  0.00  0.00    -0.002 C 
ATOM     28  C   UNL     1      34.610 -10.577 -23.892  0.00  0.00    -0.002 C 
ATOM     29  C   UNL     1      33.389  -8.335 -22.768  0.00  0.00    +0.029 C 
ATOM     30  C   UNL     1      35.017  -9.297 -24.272  0.00  0.00    +0.029 C 
ATOM     31  C   UNL     1      34.406  -8.176 -23.709  0.00  0.00    +0.140 C 
ENDBRANCH  24  26
ENDBRANCH   3  24
TORSDOF 4
ENDMDL
MODEL 5
REMARK VINA RESULT:     -11.2      4.101      9.793
REMARK  Name = 10200813
REMARK  4 active torsions:
REMARK  status: ('A' for Active; 'I' for Inactive)
REMARK    1  A    between atoms: C_3  and  C_24
REMARK    2  A    between atoms: C_8  and  C_11
REMARK    3  A    between atoms: N_10  and  C_16
REMARK    4  A    between atoms: C_24  and  C_26
REMARK                            x       y       z     vdW  Elec       q    Type
REMARK                         _______ _______ _______ _____ _____    ______ ____
ROOT
ATOM      1  O   UNL     1      33.588 -23.239 -17.485  0.00  0.00    -0.265 OA
ATOM      2  N   UNL     1      34.489 -22.543 -15.428  0.00  0.00    -0.272 N 
ATOM      3  C   UNL     1      35.369 -23.393 -12.802  0.00  0.00    +0.008 C 
ATOM      4  C   UNL     1      34.380 -24.225 -13.633  0.00  0.00    +0.022 C 
ATOM      5  C   UNL     1      36.272 -22.562 -13.727  0.00  0.00    +0.022 C 
ATOM      6  C   UNL     1      33.591 -23.343 -14.598  0.00  0.00    +0.094 C 
ATOM      7  C   UNL     1      35.448 -21.713 -14.692  0.00  0.00    +0.094 C 
ATOM      8  C   UNL     1      34.363 -22.573 -16.809  0.00  0.00    +0.303 C 
ENDROOT
BRANCH   8  11
ATOM      9  O   UNL     1      36.455 -21.695 -17.228  0.00  0.00    -0.265 OA
ATOM     10  N   UNL     1      34.637 -20.995 -18.572  0.00  0.00    -0.277 N 
ATOM     11  C   UNL     1      35.279 -21.693 -17.570  0.00  0.00    +0.303 C 
ATOM     12  H   UNL     1      33.669 -21.155 -18.666  0.00  0.00    +0.155 HD
BRANCH  10  16
ATOM     13  O   UNL     1      34.398 -17.904 -22.332  0.00  0.00    -0.407 OA
ATOM     14  O   UNL     1      35.318 -16.394 -23.823  0.00  0.00    -0.223 OA
ATOM     15  N   UNL     1      36.636 -17.402 -22.187  0.00  0.00    -0.287 N 
ATOM     16  C   UNL     1      35.212 -20.075 -19.479  0.00  0.00    +0.054 C 
ATOM     17  C   UNL     1      34.404 -19.488 -20.445  0.00  0.00    +0.054 C 
ATOM     18  C   UNL     1      36.579 -19.784 -19.371  0.00  0.00    +0.016 C 
ATOM     19  C   UNL     1      35.014 -18.598 -21.302  0.00  0.00    +0.167 A 
ATOM     20  C   UNL     1      36.357 -18.309 -21.200  0.00  0.00    +0.096 A 
ATOM     21  C   UNL     1      37.176 -18.879 -20.250  0.00  0.00    +0.022 C 
ATOM     22  C   UNL     1      35.459 -17.154 -22.873  0.00  0.00    +0.419 A 
ATOM     23  H   UNL     1      37.515 -16.998 -22.376  0.00  0.00    +0.172 HD
ENDBRANCH  10  16
ENDBRANCH   8  11
BRANCH   3  24
ATOM     24  C   UNL     1      36.203 -24.291 -11.892  0.00  0.00    +0.026 C 
BRANCH  24  26
ATOM     25  F   UNL     1      41.031 -25.810 -14.336  0.00  0.00    -0.204 F 
ATOM     26  C   UNL     1      37.495 -24.698 -12.547  0.00  0.00    -0.022 C 
ATOM     27  C   UNL     1      37.512 -25.785 -13.409  0.00  0.00    -0.002 C 
ATOM     28  C   UNL     1      38.653 -23.980 -12.279  0.00  0.00    -0.002 C 
ATOM     29  C   UNL     1      38.711 -26.162 -14.016  0.00  0.00    +0.029 C 
ATOM     30  C   UNL     1      39.851 -24.356 -12.886  0.00  0.00    +0.029 C 
ATOM     31  C   UNL     1      39.880 -25.447 -13.754  0.00  0.00    +0.140 C 
ENDBRANCH  24  26
ENDBRANCH   3  24
TORSDOF 4
ENDMDL
MODEL 6
REMARK VINA RESULT:     -11.2      8.036     12.433
REMARK  Name = 10200813
REMARK  4 active torsions:
REMARK  status: ('A' for Active; 'I' for Inactive)
REMARK    1  A    between atoms: C_3  and  C_24
REMARK    2  A    between atoms: C_8  and  C_11
REMARK    3  A    between atoms: N_10  and  C_16
REMARK    4  A    between atoms: C_24  and  C_26
REMARK                            x       y       z     vdW  Elec       q    Type
REMARK                         _______ _______ _______ _____ _____    ______ ____
ROOT
ATOM      1  O   UNL     1      33.715 -12.131 -25.376  0.00  0.00    -0.265 OA
ATOM      2  N   UNL     1      33.844 -13.681 -23.613  0.00  0.00    -0.272 N 
ATOM      3  C   UNL     1      34.981 -16.194 -22.728  0.00  0.00    +0.008 C 
ATOM      4  C   UNL     1      34.839 -15.851 -24.219  0.00  0.00    +0.022 C 
ATOM      5  C   UNL     1      35.118 -14.909 -21.898  0.00  0.00    +0.022 C 
ATOM      6  C   UNL     1      33.693 -14.868 -24.452  0.00  0.00    +0.094 C 
ATOM      7  C   UNL     1      33.969 -13.943 -22.176  0.00  0.00    +0.094 C 
ATOM      8  C   UNL     1      33.816 -12.420 -24.190  0.00  0.00    +0.303 C 
ENDROOT
BRANCH   8  11
ATOM      9  O   UNL     1      34.929 -10.579 -23.355  0.00  0.00    -0.265 OA
ATOM     10  N   UNL     1      32.838 -11.168 -22.415  0.00  0.00    -0.277 N 
ATOM     11  C   UNL     1      33.924 -11.272 -23.260  0.00  0.00    +0.303 C 
ATOM     12  H   UNL     1      32.134 -11.849 -22.521  0.00  0.00    +0.155 HD
BRANCH  10  16
ATOM     13  O   UNL     1      32.703  -6.566 -20.818  0.00  0.00    -0.407 OA
ATOM     14  O   UNL     1      32.355  -4.955 -19.196  0.00  0.00    -0.223 OA
ATOM     15  N   UNL     1      32.066  -7.215 -18.707  0.00  0.00    -0.287 N 
ATOM     16  C   UNL     1      32.624 -10.193 -21.413  0.00  0.00    +0.054 C 
ATOM     17  C   UNL     1      32.805  -8.852 -21.731  0.00  0.00    +0.054 C 
ATOM     18  C   UNL     1      32.236 -10.613 -20.134  0.00  0.00    +0.016 C 
ATOM     19  C   UNL     1      32.582  -7.943 -20.719  0.00  0.00    +0.167 A 
ATOM     20  C   UNL     1      32.200  -8.351 -19.460  0.00  0.00    +0.096 A 
ATOM     21  C   UNL     1      32.015  -9.674 -19.124  0.00  0.00    +0.022 C 
ATOM     22  C   UNL     1      32.368  -6.135 -19.521  0.00  0.00    +0.419 A 
ATOM     23  H   UNL     1      31.801  -7.172 -17.759  0.00  0.00    +0.172 HD
ENDBRANCH  10  16
ENDBRANCH   8  11
BRANCH   3  24
ATOM     24  C   UNL     1      36.172 -17.121 -22.496  0.00  0.00    +0.026 C 
BRANCH  24  26
ATOM     25  F   UNL     1      35.061 -20.972 -18.555  0.00  0.00    -0.204 F 
ATOM     26  C   UNL     1      35.875 -18.152 -21.442  0.00  0.00    -0.022 C 
ATOM     27  C   UNL     1      34.582 -18.642 -21.309  0.00  0.00    -0.002 C 
ATOM     28  C   UNL     1      36.896 -18.599 -20.615  0.00  0.00    -0.002 C 
ATOM     29  C   UNL     1      34.307 -19.598 -20.331  0.00  0.00    +0.029 C 
ATOM     30  C   UNL     1      36.621 -19.555 -19.637  0.00  0.00    +0.029 C 
ATOM     31  C   UNL     1      35.326 -20.055 -19.495  0.00  0.00    +0.140 C 
ENDBRANCH  24  26
ENDBRANCH   3  24
TORSDOF 4
ENDMDL
MODEL 7
REMARK VINA RESULT:     -11.1      2.791      4.695
REMARK  Name = 10200813
REMARK  4 active torsions:
REMARK  status: ('A' for Active; 'I' for Inactive)
REMARK    1  A    between atoms: C_3  and  C_24
REMARK    2  A    between atoms: C_8  and  C_11
REMARK    3  A    between atoms: N_10  and  C_16
REMARK    4  A    between atoms: C_24  and  C_26
REMARK                            x       y       z     vdW  Elec       q    Type
REMARK                         _______ _______ _______ _____ _____    ______ ____
ROOT
ATOM      1  O   UNL     1      37.129 -21.414 -18.050  0.00  0.00    -0.265 OA
ATOM      2  N   UNL     1      35.632 -19.994 -19.176  0.00  0.00    -0.272 N 
ATOM      3  C   UNL     1      35.146 -18.481 -21.598  0.00  0.00    +0.008 C 
ATOM      4  C   UNL     1      36.565 -18.878 -21.163  0.00  0.00    +0.022 C 
ATOM      5  C   UNL     1      34.123 -19.492 -21.058  0.00  0.00    +0.022 C 
ATOM      6  C   UNL     1      36.648 -19.056 -19.648  0.00  0.00    +0.094 C 
ATOM      7  C   UNL     1      34.252 -19.661 -19.546  0.00  0.00    +0.094 C 
ATOM      8  C   UNL     1      36.003 -21.079 -18.396  0.00  0.00    +0.303 C 
ENDROOT
BRANCH   8  11
ATOM      9  O   UNL     1      34.315 -22.608 -18.765  0.00  0.00    -0.265 OA
ATOM     10  N   UNL     1      34.719 -21.872 -16.553  0.00  0.00    -0.277 N 
ATOM     11  C   UNL     1      34.903 -21.949 -17.918  0.00  0.00    +0.303 C 
ATOM     12  H   UNL     1      35.321 -21.265 -16.063  0.00  0.00    +0.155 HD
BRANCH  10  16
ATOM     13  O   UNL     1      30.168 -23.318 -15.580  0.00  0.00    -0.407 OA
ATOM     14  O   UNL     1      28.587 -24.450 -14.329  0.00  0.00    -0.223 OA
ATOM     15  N   UNL     1      30.835 -24.486 -13.716  0.00  0.00    -0.287 N 
ATOM     16  C   UNL     1      33.762 -22.567 -15.778  0.00  0.00    +0.054 C 
ATOM     17  C   UNL     1      32.428 -22.529 -16.165  0.00  0.00    +0.054 C 
ATOM     18  C   UNL     1      34.192 -23.273 -14.646  0.00  0.00    +0.016 C 
ATOM     19  C   UNL     1      31.536 -23.224 -15.376  0.00  0.00    +0.167 A 
ATOM     20  C   UNL     1      31.954 -23.918 -14.262  0.00  0.00    +0.096 A 
ATOM     21  C   UNL     1      33.270 -23.970 -13.861  0.00  0.00    +0.022 C 
ATOM     22  C   UNL     1      29.755 -24.127 -14.506  0.00  0.00    +0.419 A 
ATOM     23  H   UNL     1      30.802 -25.048 -12.907  0.00  0.00    +0.172 HD
ENDBRANCH  10  16
ENDBRANCH   8  11
BRANCH   3  24
ATOM     24  C   UNL     1      35.055 -18.374 -23.119  0.00  0.00    +0.026 C 
BRANCH  24  26
ATOM     25  F   UNL     1      33.825 -13.140 -24.757  0.00  0.00    -0.204 F 
ATOM     26  C   UNL     1      34.725 -16.974 -23.557  0.00  0.00    -0.022 C 
ATOM     27  C   UNL     1      34.034 -16.773 -24.744  0.00  0.00    -0.002 C 
ATOM     28  C   UNL     1      35.118 -15.900 -22.769  0.00  0.00    -0.002 C 
ATOM     29  C   UNL     1      33.728 -15.474 -25.150  0.00  0.00    +0.029 C 
ATOM     30  C   UNL     1      34.812 -14.601 -23.175  0.00  0.00    +0.029 C 
ATOM     31  C   UNL     1      34.117 -14.388 -24.365  0.00  0.00    +0.140 C 
ENDBRANCH  24  26
ENDBRANCH   3  24
TORSDOF 4
ENDMDL
MODEL 8
REMARK VINA RESULT:     -10.8      5.052     10.834
REMARK  Name = 10200813
REMARK  4 active torsions:
REMARK  status: ('A' for Active; 'I' for Inactive)
REMARK    1  A    between atoms: C_3  and  C_24
REMARK    2  A    between atoms: C_8  and  C_11
REMARK    3  A    between atoms: N_10  and  C_16
REMARK    4  A    between atoms: C_24  and  C_26
REMARK                            x       y       z     vdW  Elec       q    Type
REMARK                         _______ _______ _______ _____ _____    ______ ____
ROOT
ATOM      1  O   UNL     1      37.317 -18.722 -19.250  0.00  0.00    -0.265 OA
ATOM      2  N   UNL     1      35.990 -20.610 -18.806  0.00  0.00    -0.272 N 
ATOM      3  C   UNL     1      34.987 -22.388 -16.750  0.00  0.00    +0.008 C 
ATOM      4  C   UNL     1      36.260 -21.552 -16.547  0.00  0.00    +0.022 C 
ATOM      5  C   UNL     1      34.046 -21.689 -17.743  0.00  0.00    +0.022 C 
ATOM      6  C   UNL     1      36.933 -21.236 -17.881  0.00  0.00    +0.094 C 
ATOM      7  C   UNL     1      34.760 -21.368 -19.054  0.00  0.00    +0.094 C 
ATOM      8  C   UNL     1      36.313 -19.405 -19.411  0.00  0.00    +0.303 C 
ENDROOT
BRANCH   8  11
ATOM      9  O   UNL     1      34.148 -19.140 -20.163  0.00  0.00    -0.265 OA
ATOM     10  N   UNL     1      35.907 -18.123 -21.377  0.00  0.00    -0.277 N 
ATOM     11  C   UNL     1      35.323 -18.868 -20.372  0.00  0.00    +0.303 C 
ATOM     12  H   UNL     1      36.887 -18.035 -21.343  0.00  0.00    +0.155 HD
BRANCH  10  16
ATOM     13  O   UNL     1      34.424 -14.140 -23.761  0.00  0.00    -0.407 OA
ATOM     14  O   UNL     1      33.364 -13.056 -25.507  0.00  0.00    -0.223 OA
ATOM     15  N   UNL     1      33.443 -15.383 -25.426  0.00  0.00    -0.287 N 
ATOM     16  C   UNL     1      35.254 -17.473 -22.450  0.00  0.00    +0.054 C 
ATOM     17  C   UNL     1      35.221 -16.084 -22.474  0.00  0.00    +0.054 C 
ATOM     18  C   UNL     1      34.663 -18.252 -23.454  0.00  0.00    +0.016 C 
ATOM     19  C   UNL     1      34.573 -15.500 -23.541  0.00  0.00    +0.167 A 
ATOM     20  C   UNL     1      33.991 -16.262 -24.531  0.00  0.00    +0.096 A 
ATOM     21  C   UNL     1      34.012 -17.639 -24.527  0.00  0.00    +0.022 C 
ATOM     22  C   UNL     1      33.701 -14.102 -24.967  0.00  0.00    +0.419 A 
ATOM     23  H   UNL     1      32.954 -15.619 -26.249  0.00  0.00    +0.172 HD
ENDBRANCH  10  16
ENDBRANCH   8  11
BRANCH   3  24
ATOM     24  C   UNL     1      34.284 -22.639 -15.418  0.00  0.00    +0.026 C 
BRANCH  24  26
ATOM     25  F   UNL     1      37.598 -25.395 -11.811  0.00  0.00    -0.204 F 
ATOM     26  C   UNL     1      35.171 -23.376 -14.453  0.00  0.00    -0.022 C 
ATOM     27  C   UNL     1      35.794 -24.550 -14.856  0.00  0.00    -0.002 C 
ATOM     28  C   UNL     1      35.354 -22.874 -13.172  0.00  0.00    -0.002 C 
ATOM     29  C   UNL     1      36.617 -25.233 -13.961  0.00  0.00    +0.029 C 
ATOM     30  C   UNL     1      36.177 -23.558 -12.276  0.00  0.00    +0.029 C 
ATOM     31  C   UNL     1      36.809 -24.737 -12.671  0.00  0.00    +0.140 C 
ENDBRANCH  24  26
ENDBRANCH   3  24
TORSDOF 4
ENDMDL
MODEL 9
REMARK VINA RESULT:     -10.7      8.405     13.031
REMARK  Name = 10200813
REMARK  4 active torsions:
REMARK  status: ('A' for Active; 'I' for Inactive)
REMARK    1  A    between atoms: C_3  and  C_24
REMARK    2  A    between atoms: C_8  and  C_11
REMARK    3  A    between atoms: N_10  and  C_16
REMARK    4  A    between atoms: C_24  and  C_26
REMARK                            x       y       z     vdW  Elec       q    Type
REMARK                         _______ _______ _______ _____ _____    ______ ____
ROOT
ATOM      1  O   UNL     1      33.514 -11.862 -26.037  0.00  0.00    -0.265 OA
ATOM      2  N   UNL     1      33.787 -13.200 -24.124  0.00  0.00    -0.272 N 
ATOM      3  C   UNL     1      34.866 -15.680 -23.084  0.00  0.00    +0.008 C 
ATOM      4  C   UNL     1      34.536 -15.503 -24.575  0.00  0.00    +0.022 C 
ATOM      5  C   UNL     1      35.207 -14.322 -22.451  0.00  0.00    +0.022 C 
ATOM      6  C   UNL     1      33.438 -14.460 -24.777  0.00  0.00    +0.094 C 
ATOM      7  C   UNL     1      34.098 -13.301 -22.695  0.00  0.00    +0.094 C 
ATOM      8  C   UNL     1      33.763 -12.018 -24.848  0.00  0.00    +0.303 C 
ENDROOT
BRANCH   8  11
ATOM      9  O   UNL     1      35.255 -10.440 -24.069  0.00  0.00    -0.265 OA
ATOM     10  N   UNL     1      32.963 -10.200 -23.533  0.00  0.00    -0.277 N 
ATOM     11  C   UNL     1      34.080 -10.782 -24.096  0.00  0.00    +0.303 C 
ATOM     12  H   UNL     1      32.105 -10.659 -23.689  0.00  0.00    +0.155 HD
BRANCH  10  16
ATOM     13  O   UNL     1      32.441  -7.822 -19.311  0.00  0.00    -0.407 OA
ATOM     14  O   UNL     1      32.357  -5.905 -18.021  0.00  0.00    -0.223 OA
ATOM     15  N   UNL     1      32.729  -5.775 -20.318  0.00  0.00    -0.287 N 
ATOM     16  C   UNL     1      32.912  -9.020 -22.755  0.00  0.00    +0.054 C 
ATOM     17  C   UNL     1      32.689  -9.125 -21.388  0.00  0.00    +0.054 C 
ATOM     18  C   UNL     1      33.091  -7.784 -23.391  0.00  0.00    +0.016 C 
ATOM     19  C   UNL     1      32.650  -7.945 -20.676  0.00  0.00    +0.167 A 
ATOM     20  C   UNL     1      32.824  -6.728 -21.296  0.00  0.00    +0.096 A 
ATOM     21  C   UNL     1      33.048  -6.601 -22.650  0.00  0.00    +0.022 C 
ATOM     22  C   UNL     1      32.498  -6.429 -19.118  0.00  0.00    +0.419 A 
ATOM     23  H   UNL     1      32.810  -4.802 -20.442  0.00  0.00    +0.172 HD
ENDBRANCH  10  16
ENDBRANCH   8  11
BRANCH   3  24
ATOM     24  C   UNL     1      36.012 -16.671 -22.896  0.00  0.00    +0.026 C 
BRANCH  24  26
ATOM     25  F   UNL     1      34.795 -20.530 -18.996  0.00  0.00    -0.204 F 
ATOM     26  C   UNL     1      35.686 -17.703 -21.852  0.00  0.00    -0.022 C 
ATOM     27  C   UNL     1      36.625 -18.008 -20.876  0.00  0.00    -0.002 C 
ATOM     28  C   UNL     1      34.452 -18.338 -21.880  0.00  0.00    -0.002 C 
ATOM     29  C   UNL     1      36.322 -18.966 -19.907  0.00  0.00    +0.029 C 
ATOM     30  C   UNL     1      34.149 -19.296 -20.912  0.00  0.00    +0.029 C 
ATOM     31  C   UNL     1      35.084 -19.609 -19.925  0.00  0.00    +0.140 C 
ENDBRANCH  24  26
ENDBRANCH   3  24
TORSDOF 4
ENDMDL
