MODEL 1
REMARK VINA RESULT:     -11.8      0.000      0.000
REMARK  Name = 24779674
REMARK  2 active torsions:
REMARK  status: ('A' for Active; 'I' for Inactive)
REMARK    1  A    between atoms: N_2  and  C_14
REMARK    2  A    between atoms: N_5  and  C_20
REMARK                            x       y       z     vdW  Elec       q    Type
REMARK                         _______ _______ _______ _____ _____    ______ ____
ROOT
ATOM      1  N   UNL     1      32.305 -22.948 -15.652  0.00  0.00    -0.124 N 
ATOM      2  N   UNL     1      32.841 -21.661 -17.558  0.00  0.00    -0.274 N 
ATOM      3  N   UNL     1      34.508 -22.655 -16.198  0.00  0.00    -0.295 NA
ATOM      4  N   UNL     1      33.929 -23.950 -14.276  0.00  0.00    -0.315 NA
ATOM      5  N   UNL     1      36.162 -23.650 -14.835  0.00  0.00    -0.238 N 
ATOM      6  N   UNL     1      30.983 -22.777 -15.829  0.00  0.00    -0.171 NA
ATOM      7  C   UNL     1      33.265 -22.408 -16.491  0.00  0.00    +0.279 C 
ATOM      8  C   UNL     1      32.631 -23.705 -14.564  0.00  0.00    +0.206 C 
ATOM      9  C   UNL     1      34.826 -23.430 -15.085  0.00  0.00    +0.207 C 
ATOM     10  C   UNL     1      31.432 -24.056 -13.988  0.00  0.00    +0.127 C 
ATOM     11  C   UNL     1      30.454 -23.458 -14.808  0.00  0.00    +0.101 C 
ATOM     12  H   UNL     1      31.868 -21.555 -17.660  0.00  0.00    +0.156 HD
ATOM     13  H   UNL     1      36.759 -23.670 -15.618  0.00  0.00    +0.166 HD
ENDROOT
BRANCH   2  14
ATOM     14  C   UNL     1      33.641 -21.036 -18.516  0.00  0.00    +0.051 C 
ATOM     15  C   UNL     1      33.069 -20.160 -19.439  0.00  0.00    +0.015 C 
ATOM     16  C   UNL     1      35.013 -21.285 -18.549  0.00  0.00    +0.015 C 
ATOM     17  C   UNL     1      33.868 -19.536 -20.396  0.00  0.00    +0.001 C 
ATOM     18  C   UNL     1      35.812 -20.661 -19.506  0.00  0.00    +0.001 C 
ATOM     19  C   UNL     1      35.240 -19.786 -20.430  0.00  0.00    +0.000 C 
ENDBRANCH   2  14
BRANCH   5  20
ATOM     20  C   UNL     1      36.755 -23.846 -13.592  0.00  0.00    +0.058 C 
ATOM     21  C   UNL     1      36.855 -22.786 -12.692  0.00  0.00    +0.015 C 
ATOM     22  C   UNL     1      37.248 -25.105 -13.246  0.00  0.00    +0.015 C 
ATOM     23  C   UNL     1      37.450 -22.983 -11.445  0.00  0.00    +0.001 C 
ATOM     24  C   UNL     1      37.843 -25.301 -12.000  0.00  0.00    +0.001 C 
ATOM     25  C   UNL     1      37.944 -24.240 -11.100  0.00  0.00    +0.000 C 
ENDBRANCH   5  20
TORSDOF 2
ENDMDL
MODEL 2
REMARK VINA RESULT:     -11.4      1.576      6.762
REMARK  Name = 24779674
REMARK  2 active torsions:
REMARK  status: ('A' for Active; 'I' for Inactive)
REMARK    1  A    between atoms: N_2  and  C_14
REMARK    2  A    between atoms: N_5  and  C_20
REMARK                            x       y       z     vdW  Elec       q    Type
REMARK                         _______ _______ _______ _____ _____    ______ ____
ROOT
ATOM      1  N   UNL     1      35.149 -22.719 -14.545  0.00  0.00    -0.124 N 
ATOM      2  N   UNL     1      32.901 -23.260 -14.059  0.00  0.00    -0.274 N 
ATOM      3  N   UNL     1      33.571 -22.445 -16.181  0.00  0.00    -0.295 NA
ATOM      4  N   UNL     1      35.854 -21.907 -16.638  0.00  0.00    -0.315 NA
ATOM      5  N   UNL     1      34.250 -21.631 -18.293  0.00  0.00    -0.238 N 
ATOM      6  N   UNL     1      35.564 -23.057 -13.312  0.00  0.00    -0.171 NA
ATOM      7  C   UNL     1      33.829 -22.806 -14.959  0.00  0.00    +0.279 C 
ATOM      8  C   UNL     1      36.142 -22.277 -15.370  0.00  0.00    +0.206 C 
ATOM      9  C   UNL     1      34.596 -21.997 -17.012  0.00  0.00    +0.207 C 
ATOM     10  C   UNL     1      37.294 -22.332 -14.619  0.00  0.00    +0.127 C 
ATOM     11  C   UNL     1      36.878 -22.818 -13.364  0.00  0.00    +0.101 C 
ATOM     12  H   UNL     1      33.237 -23.499 -13.166  0.00  0.00    +0.156 HD
ATOM     13  H   UNL     1      33.481 -22.099 -18.693  0.00  0.00    +0.166 HD
ENDROOT
BRANCH   2  14
ATOM     14  C   UNL     1      31.533 -23.422 -14.276  0.00  0.00    +0.051 C 
ATOM     15  C   UNL     1      30.931 -24.659 -14.044  0.00  0.00    +0.015 C 
ATOM     16  C   UNL     1      30.765 -22.347 -14.724  0.00  0.00    +0.015 C 
ATOM     17  C   UNL     1      29.563 -24.821 -14.260  0.00  0.00    +0.001 C 
ATOM     18  C   UNL     1      29.397 -22.509 -14.941  0.00  0.00    +0.001 C 
ATOM     19  C   UNL     1      28.795 -23.746 -14.708  0.00  0.00    +0.000 C 
ENDBRANCH   2  14
BRANCH   5  20
ATOM     20  C   UNL     1      34.874 -20.668 -19.081  0.00  0.00    +0.058 C 
ATOM     21  C   UNL     1      36.262 -20.535 -19.050  0.00  0.00    +0.015 C 
ATOM     22  C   UNL     1      34.110 -19.837 -19.901  0.00  0.00    +0.015 C 
ATOM     23  C   UNL     1      36.887 -19.570 -19.841  0.00  0.00    +0.001 C 
ATOM     24  C   UNL     1      34.736 -18.872 -20.690  0.00  0.00    +0.001 C 
ATOM     25  C   UNL     1      36.124 -18.739 -20.660  0.00  0.00    +0.000 C 
ENDBRANCH   5  20
TORSDOF 2
ENDMDL
MODEL 3
REMARK VINA RESULT:     -11.4      1.579      6.688
REMARK  Name = 24779674
REMARK  2 active torsions:
REMARK  status: ('A' for Active; 'I' for Inactive)
REMARK    1  A    between atoms: N_2  and  C_14
REMARK    2  A    between atoms: N_5  and  C_20
REMARK                            x       y       z     vdW  Elec       q    Type
REMARK                         _______ _______ _______ _____ _____    ______ ____
ROOT
ATOM      1  N   UNL     1      35.184 -22.706 -14.526  0.00  0.00    -0.124 N 
ATOM      2  N   UNL     1      32.939 -23.260 -14.044  0.00  0.00    -0.274 N 
ATOM      3  N   UNL     1      33.608 -22.446 -16.167  0.00  0.00    -0.295 NA
ATOM      4  N   UNL     1      35.889 -21.895 -16.619  0.00  0.00    -0.315 NA
ATOM      5  N   UNL     1      34.287 -21.634 -18.279  0.00  0.00    -0.238 N 
ATOM      6  N   UNL     1      35.598 -23.038 -13.291  0.00  0.00    -0.171 NA
ATOM      7  C   UNL     1      33.866 -22.802 -14.943  0.00  0.00    +0.279 C 
ATOM      8  C   UNL     1      36.177 -22.260 -15.350  0.00  0.00    +0.206 C 
ATOM      9  C   UNL     1      34.633 -21.994 -16.997  0.00  0.00    +0.207 C 
ATOM     10  C   UNL     1      37.327 -22.306 -14.596  0.00  0.00    +0.127 C 
ATOM     11  C   UNL     1      36.911 -22.791 -13.340  0.00  0.00    +0.101 C 
ATOM     12  H   UNL     1      33.274 -23.494 -13.149  0.00  0.00    +0.156 HD
ATOM     13  H   UNL     1      33.523 -22.108 -18.679  0.00  0.00    +0.166 HD
ENDROOT
BRANCH   2  14
ATOM     14  C   UNL     1      31.571 -23.430 -14.263  0.00  0.00    +0.051 C 
ATOM     15  C   UNL     1      30.792 -22.352 -14.684  0.00  0.00    +0.015 C 
ATOM     16  C   UNL     1      30.983 -24.679 -14.063  0.00  0.00    +0.015 C 
ATOM     17  C   UNL     1      29.426 -22.522 -14.903  0.00  0.00    +0.001 C 
ATOM     18  C   UNL     1      29.616 -24.849 -14.282  0.00  0.00    +0.001 C 
ATOM     19  C   UNL     1      28.837 -23.771 -14.703  0.00  0.00    +0.000 C 
ENDBRANCH   2  14
BRANCH   5  20
ATOM     20  C   UNL     1      34.907 -20.670 -19.069  0.00  0.00    +0.058 C 
ATOM     21  C   UNL     1      34.140 -19.840 -19.886  0.00  0.00    +0.015 C 
ATOM     22  C   UNL     1      36.295 -20.535 -19.042  0.00  0.00    +0.015 C 
ATOM     23  C   UNL     1      34.762 -18.873 -20.678  0.00  0.00    +0.001 C 
ATOM     24  C   UNL     1      36.916 -19.569 -19.834  0.00  0.00    +0.001 C 
ATOM     25  C   UNL     1      36.149 -18.739 -20.652  0.00  0.00    +0.000 C 
ENDBRANCH   5  20
TORSDOF 2
ENDMDL
MODEL 4
REMARK VINA RESULT:     -11.4      1.394      6.847
REMARK  Name = 24779674
REMARK  2 active torsions:
REMARK  status: ('A' for Active; 'I' for Inactive)
REMARK    1  A    between atoms: N_2  and  C_14
REMARK    2  A    between atoms: N_5  and  C_20
REMARK                            x       y       z     vdW  Elec       q    Type
REMARK                         _______ _______ _______ _____ _____    ______ ____
ROOT
ATOM      1  N   UNL     1      35.508 -21.926 -16.794  0.00  0.00    -0.124 N 
ATOM      2  N   UNL     1      37.004 -22.436 -15.039  0.00  0.00    -0.274 N 
ATOM      3  N   UNL     1      34.715 -23.046 -14.962  0.00  0.00    -0.295 NA
ATOM      4  N   UNL     1      33.230 -22.513 -16.756  0.00  0.00    -0.315 NA
ATOM      5  N   UNL     1      32.432 -23.649 -14.897  0.00  0.00    -0.238 N 
ATOM      6  N   UNL     1      36.465 -21.321 -17.520  0.00  0.00    -0.171 NA
ATOM      7  C   UNL     1      35.735 -22.495 -15.552  0.00  0.00    +0.279 C 
ATOM      8  C   UNL     1      34.278 -21.935 -17.385  0.00  0.00    +0.206 C 
ATOM      9  C   UNL     1      33.465 -23.049 -15.579  0.00  0.00    +0.207 C 
ATOM     10  C   UNL     1      34.444 -21.289 -18.589  0.00  0.00    +0.127 C 
ATOM     11  C   UNL     1      35.808 -20.934 -18.617  0.00  0.00    +0.101 C 
ATOM     12  H   UNL     1      37.681 -21.987 -15.594  0.00  0.00    +0.156 HD
ATOM     13  H   UNL     1      32.672 -24.396 -14.300  0.00  0.00    +0.166 HD
ENDROOT
BRANCH   2  14
ATOM     14  C   UNL     1      37.438 -22.945 -13.815  0.00  0.00    +0.051 C 
ATOM     15  C   UNL     1      36.987 -22.377 -12.623  0.00  0.00    +0.015 C 
ATOM     16  C   UNL     1      38.323 -24.024 -13.782  0.00  0.00    +0.015 C 
ATOM     17  C   UNL     1      37.421 -22.886 -11.399  0.00  0.00    +0.001 C 
ATOM     18  C   UNL     1      38.756 -24.532 -12.558  0.00  0.00    +0.001 C 
ATOM     19  C   UNL     1      38.305 -23.964 -11.366  0.00  0.00    +0.000 C 
ENDBRANCH   2  14
BRANCH   5  20
ATOM     20  C   UNL     1      31.083 -23.312 -14.963  0.00  0.00    +0.058 C 
ATOM     21  C   UNL     1      30.172 -24.193 -15.545  0.00  0.00    +0.015 C 
ATOM     22  C   UNL     1      30.644 -22.092 -14.448  0.00  0.00    +0.015 C 
ATOM     23  C   UNL     1      28.820 -23.854 -15.612  0.00  0.00    +0.001 C 
ATOM     24  C   UNL     1      29.292 -21.754 -14.515  0.00  0.00    +0.001 C 
ATOM     25  C   UNL     1      28.381 -22.635 -15.097  0.00  0.00    +0.000 C 
ENDBRANCH   5  20
TORSDOF 2
ENDMDL
MODEL 5
REMARK VINA RESULT:     -11.2      1.383      4.673
REMARK  Name = 24779674
REMARK  2 active torsions:
REMARK  status: ('A' for Active; 'I' for Inactive)
REMARK    1  A    between atoms: N_2  and  C_14
REMARK    2  A    between atoms: N_5  and  C_20
REMARK                            x       y       z     vdW  Elec       q    Type
REMARK                         _______ _______ _______ _____ _____    ______ ____
ROOT
ATOM      1  N   UNL     1      34.284 -21.835 -17.196  0.00  0.00    -0.124 N 
ATOM      2  N   UNL     1      32.059 -22.401 -16.641  0.00  0.00    -0.274 N 
ATOM      3  N   UNL     1      33.886 -22.939 -15.231  0.00  0.00    -0.295 NA
ATOM      4  N   UNL     1      36.124 -22.351 -15.824  0.00  0.00    -0.315 NA
ATOM      5  N   UNL     1      35.716 -23.471 -13.833  0.00  0.00    -0.238 N 
ATOM      6  N   UNL     1      33.916 -21.257 -18.353  0.00  0.00    -0.171 NA
ATOM      7  C   UNL     1      33.389 -22.417 -16.313  0.00  0.00    +0.279 C 
ATOM      8  C   UNL     1      35.627 -21.803 -16.956  0.00  0.00    +0.206 C 
ATOM      9  C   UNL     1      35.260 -22.898 -14.998  0.00  0.00    +0.207 C 
ATOM     10  C   UNL     1      36.178 -21.154 -18.036  0.00  0.00    +0.127 C 
ATOM     11  C   UNL     1      35.079 -20.841 -18.862  0.00  0.00    +0.101 C 
ATOM     12  H   UNL     1      31.823 -21.971 -17.493  0.00  0.00    +0.156 HD
ATOM     13  H   UNL     1      35.100 -23.455 -13.064  0.00  0.00    +0.166 HD
ENDROOT
BRANCH   2  14
ATOM     14  C   UNL     1      31.005 -22.928 -15.894  0.00  0.00    +0.051 C 
ATOM     15  C   UNL     1      29.751 -22.318 -15.930  0.00  0.00    +0.015 C 
ATOM     16  C   UNL     1      31.205 -24.066 -15.111  0.00  0.00    +0.015 C 
ATOM     17  C   UNL     1      28.697 -22.845 -15.183  0.00  0.00    +0.001 C 
ATOM     18  C   UNL     1      30.151 -24.592 -14.365  0.00  0.00    +0.001 C 
ATOM     19  C   UNL     1      28.897 -23.982 -14.401  0.00  0.00    +0.000 C 
ENDBRANCH   2  14
BRANCH   5  20
ATOM     20  C   UNL     1      36.955 -24.070 -13.629  0.00  0.00    +0.058 C 
ATOM     21  C   UNL     1      37.291 -25.232 -14.323  0.00  0.00    +0.015 C 
ATOM     22  C   UNL     1      37.862 -23.506 -12.731  0.00  0.00    +0.015 C 
ATOM     23  C   UNL     1      38.534 -25.833 -14.118  0.00  0.00    +0.001 C 
ATOM     24  C   UNL     1      39.104 -24.107 -12.526  0.00  0.00    +0.001 C 
ATOM     25  C   UNL     1      39.440 -25.270 -13.220  0.00  0.00    +0.000 C 
ENDBRANCH   5  20
TORSDOF 2
ENDMDL
MODEL 6
REMARK VINA RESULT:     -10.4      1.278      6.641
REMARK  Name = 24779674
REMARK  2 active torsions:
REMARK  status: ('A' for Active; 'I' for Inactive)
REMARK    1  A    between atoms: N_2  and  C_14
REMARK    2  A    between atoms: N_5  and  C_20
REMARK                            x       y       z     vdW  Elec       q    Type
REMARK                         _______ _______ _______ _____ _____    ______ ____
ROOT
ATOM      1  N   UNL     1      33.822 -23.783 -14.397  0.00  0.00    -0.124 N 
ATOM      2  N   UNL     1      35.855 -24.732 -13.659  0.00  0.00    -0.274 N 
ATOM      3  N   UNL     1      35.782 -23.043 -15.320  0.00  0.00    -0.295 NA
ATOM      4  N   UNL     1      33.707 -22.106 -16.043  0.00  0.00    -0.315 NA
ATOM      5  N   UNL     1      35.697 -21.360 -16.975  0.00  0.00    -0.238 N 
ATOM      6  N   UNL     1      33.090 -24.549 -13.570  0.00  0.00    -0.171 NA
ATOM      7  C   UNL     1      35.204 -23.843 -14.473  0.00  0.00    +0.279 C 
ATOM      8  C   UNL     1      33.087 -22.930 -15.169  0.00  0.00    +0.206 C 
ATOM      9  C   UNL     1      35.019 -22.177 -16.100  0.00  0.00    +0.207 C 
ATOM     10  C   UNL     1      31.776 -23.154 -14.818  0.00  0.00    +0.127 C 
ATOM     11  C   UNL     1      31.838 -24.159 -13.831  0.00  0.00    +0.101 C 
ATOM     12  H   UNL     1      35.291 -25.277 -13.065  0.00  0.00    +0.156 HD
ATOM     13  H   UNL     1      36.607 -21.089 -16.710  0.00  0.00    +0.166 HD
ENDROOT
BRANCH   2  14
ATOM     14  C   UNL     1      37.231 -24.945 -13.581  0.00  0.00    +0.051 C 
ATOM     15  C   UNL     1      37.828 -25.944 -14.352  0.00  0.00    +0.015 C 
ATOM     16  C   UNL     1      38.012 -24.159 -12.733  0.00  0.00    +0.015 C 
ATOM     17  C   UNL     1      39.203 -26.157 -14.274  0.00  0.00    +0.001 C 
ATOM     18  C   UNL     1      39.388 -24.373 -12.656  0.00  0.00    +0.001 C 
ATOM     19  C   UNL     1      39.984 -25.371 -13.426  0.00  0.00    +0.000 C 
ENDBRANCH   2  14
BRANCH   5  20
ATOM     20  C   UNL     1      35.232 -20.877 -18.194  0.00  0.00    +0.058 C 
ATOM     21  C   UNL     1      36.118 -20.286 -19.094  0.00  0.00    +0.015 C 
ATOM     22  C   UNL     1      33.878 -20.983 -18.515  0.00  0.00    +0.015 C 
ATOM     23  C   UNL     1      35.651 -19.800 -20.317  0.00  0.00    +0.001 C 
ATOM     24  C   UNL     1      33.412 -20.498 -19.737  0.00  0.00    +0.001 C 
ATOM     25  C   UNL     1      34.298 -19.907 -20.637  0.00  0.00    +0.000 C 
ENDBRANCH   5  20
TORSDOF 2
ENDMDL
MODEL 7
REMARK VINA RESULT:     -10.0      9.401     12.937
REMARK  Name = 24779674
REMARK  2 active torsions:
REMARK  status: ('A' for Active; 'I' for Inactive)
REMARK    1  A    between atoms: N_2  and  C_14
REMARK    2  A    between atoms: N_5  and  C_20
REMARK                            x       y       z     vdW  Elec       q    Type
REMARK                         _______ _______ _______ _____ _____    ______ ____
ROOT
ATOM      1  N   UNL     1      32.628 -11.002 -21.375  0.00  0.00    -0.124 N 
ATOM      2  N   UNL     1      33.650  -9.483 -22.867  0.00  0.00    -0.274 N 
ATOM      3  N   UNL     1      34.110 -11.807 -22.923  0.00  0.00    -0.295 NA
ATOM      4  N   UNL     1      33.058 -13.315 -21.397  0.00  0.00    -0.315 NA
ATOM      5  N   UNL     1      34.562 -14.125 -22.968  0.00  0.00    -0.238 N 
ATOM      6  N   UNL     1      31.927 -10.030 -20.765  0.00  0.00    -0.171 NA
ATOM      7  C   UNL     1      33.498 -10.771 -22.428  0.00  0.00    +0.279 C 
ATOM      8  C   UNL     1      32.412 -12.251 -20.869  0.00  0.00    +0.206 C 
ATOM      9  C   UNL     1      33.879 -13.077 -22.396  0.00  0.00    +0.207 C 
ATOM     10  C   UNL     1      31.500 -12.083 -19.852  0.00  0.00    +0.127 C 
ATOM     11  C   UNL     1      31.238 -10.698 -19.834  0.00  0.00    +0.101 C 
ATOM     12  H   UNL     1      33.123  -8.795 -22.400  0.00  0.00    +0.156 HD
ATOM     13  H   UNL     1      34.785 -14.038 -23.924  0.00  0.00    +0.166 HD
ENDROOT
BRANCH   2  14
ATOM     14  C   UNL     1      34.470  -9.042 -23.907  0.00  0.00    +0.051 C 
ATOM     15  C   UNL     1      34.872  -9.932 -24.903  0.00  0.00    +0.015 C 
ATOM     16  C   UNL     1      34.887  -7.712 -23.951  0.00  0.00    +0.015 C 
ATOM     17  C   UNL     1      35.691  -9.492 -25.942  0.00  0.00    +0.001 C 
ATOM     18  C   UNL     1      35.706  -7.272 -24.990  0.00  0.00    +0.001 C 
ATOM     19  C   UNL     1      36.108  -8.162 -25.986  0.00  0.00    +0.000 C 
ENDBRANCH   2  14
BRANCH   5  20
ATOM     20  C   UNL     1      34.969 -15.297 -22.337  0.00  0.00    +0.058 C 
ATOM     21  C   UNL     1      35.255 -16.433 -23.094  0.00  0.00    +0.015 C 
ATOM     22  C   UNL     1      35.090 -15.334 -20.948  0.00  0.00    +0.015 C 
ATOM     23  C   UNL     1      35.663 -17.608 -22.460  0.00  0.00    +0.001 C 
ATOM     24  C   UNL     1      35.497 -16.509 -20.315  0.00  0.00    +0.001 C 
ATOM     25  C   UNL     1      35.783 -17.645 -21.072  0.00  0.00    +0.000 C 
ENDBRANCH   5  20
TORSDOF 2
ENDMDL
MODEL 8
REMARK VINA RESULT:      -9.9      7.053     10.695
REMARK  Name = 24779674
REMARK  2 active torsions:
REMARK  status: ('A' for Active; 'I' for Inactive)
REMARK    1  A    between atoms: N_2  and  C_14
REMARK    2  A    between atoms: N_5  and  C_20
REMARK                            x       y       z     vdW  Elec       q    Type
REMARK                         _______ _______ _______ _____ _____    ______ ____
ROOT
ATOM      1  N   UNL     1      33.955 -14.264 -23.616  0.00  0.00    -0.124 N 
ATOM      2  N   UNL     1      32.917 -12.605 -22.294  0.00  0.00    -0.274 N 
ATOM      3  N   UNL     1      34.116 -14.412 -21.337  0.00  0.00    -0.295 NA
ATOM      4  N   UNL     1      35.153 -16.073 -22.705  0.00  0.00    -0.315 NA
ATOM      5  N   UNL     1      35.312 -16.218 -20.395  0.00  0.00    -0.238 N 
ATOM      6  N   UNL     1      33.552 -13.692 -24.764  0.00  0.00    -0.171 NA
ATOM      7  C   UNL     1      33.660 -13.754 -22.362  0.00  0.00    +0.279 C 
ATOM      8  C   UNL     1      34.688 -15.403 -23.784  0.00  0.00    +0.206 C 
ATOM      9  C   UNL     1      34.864 -15.573 -21.524  0.00  0.00    +0.207 C 
ATOM     10  C   UNL     1      34.771 -15.589 -25.145  0.00  0.00    +0.127 C 
ATOM     11  C   UNL     1      34.055 -14.507 -25.696  0.00  0.00    +0.101 C 
ATOM     12  H   UNL     1      32.638 -12.212 -23.151  0.00  0.00    +0.156 HD
ATOM     13  H   UNL     1      35.495 -15.654 -19.608  0.00  0.00    +0.166 HD
ENDROOT
BRANCH   2  14
ATOM     14  C   UNL     1      32.516 -11.933 -21.138  0.00  0.00    +0.051 C 
ATOM     15  C   UNL     1      32.324 -10.552 -21.166  0.00  0.00    +0.015 C 
ATOM     16  C   UNL     1      32.307 -12.643 -19.956  0.00  0.00    +0.015 C 
ATOM     17  C   UNL     1      31.924  -9.880 -20.011  0.00  0.00    +0.001 C 
ATOM     18  C   UNL     1      31.906 -11.971 -18.801  0.00  0.00    +0.001 C 
ATOM     19  C   UNL     1      31.714 -10.590 -18.828  0.00  0.00    +0.000 C 
ENDBRANCH   2  14
BRANCH   5  20
ATOM     20  C   UNL     1      35.536 -17.584 -20.249  0.00  0.00    +0.058 C 
ATOM     21  C   UNL     1      34.456 -18.464 -20.184  0.00  0.00    +0.015 C 
ATOM     22  C   UNL     1      36.840 -18.072 -20.169  0.00  0.00    +0.015 C 
ATOM     23  C   UNL     1      34.680 -19.834 -20.037  0.00  0.00    +0.001 C 
ATOM     24  C   UNL     1      37.064 -19.441 -20.022  0.00  0.00    +0.001 C 
ATOM     25  C   UNL     1      35.984 -20.321 -19.956  0.00  0.00    +0.000 C 
ENDBRANCH   5  20
TORSDOF 2
ENDMDL
MODEL 9
REMARK VINA RESULT:      -9.7     10.865     13.997
REMARK  Name = 24779674
REMARK  2 active torsions:
REMARK  status: ('A' for Active; 'I' for Inactive)
REMARK    1  A    between atoms: N_2  and  C_14
REMARK    2  A    between atoms: N_5  and  C_20
REMARK                            x       y       z     vdW  Elec       q    Type
REMARK                         _______ _______ _______ _____ _____    ______ ____
ROOT
ATOM      1  N   UNL     1      32.305 -10.489 -20.674  0.00  0.00    -0.124 N 
ATOM      2  N   UNL     1      32.949  -8.519 -21.807  0.00  0.00    -0.274 N 
ATOM      3  N   UNL     1      33.306 -10.675 -22.724  0.00  0.00    -0.295 NA
ATOM      4  N   UNL     1      32.642 -12.646 -21.550  0.00  0.00    -0.315 NA
ATOM      5  N   UNL     1      33.657 -12.829 -23.628  0.00  0.00    -0.238 N 
ATOM      6  N   UNL     1      31.818  -9.803 -19.625  0.00  0.00    -0.171 NA
ATOM      7  C   UNL     1      32.877  -9.887 -21.783  0.00  0.00    +0.279 C 
ATOM      8  C   UNL     1      32.190 -11.844 -20.560  0.00  0.00    +0.206 C 
ATOM      9  C   UNL     1      33.181 -12.057 -22.594  0.00  0.00    +0.207 C 
ATOM     10  C   UNL     1      31.581 -12.060 -19.345  0.00  0.00    +0.127 C 
ATOM     11  C   UNL     1      31.376 -10.770 -18.815  0.00  0.00    +0.101 C 
ATOM     12  H   UNL     1      32.584  -8.047 -21.025  0.00  0.00    +0.156 HD
ATOM     13  H   UNL     1      33.626 -12.429 -24.528  0.00  0.00    +0.166 HD
ENDROOT
BRANCH   2  14
ATOM     14  C   UNL     1      33.482  -7.725 -22.823  0.00  0.00    +0.051 C 
ATOM     15  C   UNL     1      34.757  -7.994 -23.322  0.00  0.00    +0.015 C 
ATOM     16  C   UNL     1      32.741  -6.664 -23.341  0.00  0.00    +0.015 C 
ATOM     17  C   UNL     1      35.291  -7.201 -24.337  0.00  0.00    +0.001 C 
ATOM     18  C   UNL     1      33.274  -5.870 -24.356  0.00  0.00    +0.001 C 
ATOM     19  C   UNL     1      34.550  -6.139 -24.855  0.00  0.00    +0.000 C 
ENDBRANCH   2  14
BRANCH   5  20
ATOM     20  C   UNL     1      34.178 -14.116 -23.535  0.00  0.00    +0.058 C 
ATOM     21  C   UNL     1      33.967 -15.030 -24.567  0.00  0.00    +0.015 C 
ATOM     22  C   UNL     1      34.910 -14.492 -22.408  0.00  0.00    +0.015 C 
ATOM     23  C   UNL     1      34.489 -16.321 -24.473  0.00  0.00    +0.001 C 
ATOM     24  C   UNL     1      35.431 -15.782 -22.315  0.00  0.00    +0.001 C 
ATOM     25  C   UNL     1      35.221 -16.697 -23.347  0.00  0.00    +0.000 C 
ENDBRANCH   5  20
TORSDOF 2
ENDMDL
