MODEL 1
REMARK VINA RESULT:     -12.3      0.000      0.000
REMARK  Name = 24771824
REMARK  4 active torsions:
REMARK  status: ('A' for Active; 'I' for Inactive)
REMARK    1  A    between atoms: C_11  and  C_18
REMARK    2  A    between atoms: C_21  and  O_24
REMARK    3  A    between atoms: O_24  and  C_26
REMARK    4  A    between atoms: C_28  and  C_34
REMARK                            x       y       z     vdW  Elec       q    Type
REMARK                         _______ _______ _______ _____ _____    ______ ____
ROOT
ATOM      1  O   UNL     1      34.020 -22.807 -16.331  0.00  0.00    -0.252 OA
ATOM      2  N   UNL     1      34.060 -21.147 -17.942  0.00  0.00    -0.263 N 
ATOM      3  N   UNL     1      32.008 -21.919 -17.067  0.00  0.00    -0.252 N 
ATOM      4  N   UNL     1      31.552 -23.561 -15.400  0.00  0.00    -0.133 NA
ATOM      5  N   UNL     1      30.668 -24.262 -14.638  0.00  0.00    -0.145 NA
ATOM      6  C   UNL     1      36.045 -21.313 -19.423  0.00  0.00    +0.044 C 
ATOM      7  C   UNL     1      33.908 -20.253 -20.260  0.00  0.00    +0.044 C 
ATOM      8  C   UNL     1      35.529 -21.156 -17.994  0.00  0.00    +0.099 C 
ATOM      9  C   UNL     1      33.413 -20.146 -18.813  0.00  0.00    +0.099 C 
ATOM     10  C   UNL     1      35.412 -20.280 -20.315  0.00  0.00    -0.041 C 
ATOM     11  C   UNL     1      36.126 -19.438 -21.076  0.00  0.00    -0.008 C 
ATOM     12  C   UNL     1      33.397 -22.029 -17.060  0.00  0.00    +0.309 C 
ATOM     13  C   UNL     1      31.084 -22.646 -16.275  0.00  0.00    +0.157 C 
ATOM     14  C   UNL     1      29.739 -22.383 -16.439  0.00  0.00    +0.038 C 
ATOM     15  C   UNL     1      28.840 -23.096 -15.664  0.00  0.00    +0.025 C 
ATOM     16  C   UNL     1      29.348 -24.025 -14.778  0.00  0.00    +0.122 C 
ATOM     17  H   UNL     1      31.625 -21.262 -17.693  0.00  0.00    +0.158 HD
ENDROOT
BRANCH  11  18
ATOM     18  C   UNL     1      35.573 -18.408 -21.968  0.00  0.00    +0.002 C 
ATOM     19  C   UNL     1      35.911 -17.068 -21.778  0.00  0.00    +0.038 C 
ATOM     20  C   UNL     1      34.712 -18.770 -23.004  0.00  0.00    +0.000 C 
ATOM     21  C   UNL     1      35.388 -16.090 -22.625  0.00  0.00    +0.147 C 
ATOM     22  C   UNL     1      34.188 -17.793 -23.850  0.00  0.00    +0.003 C 
ATOM     23  C   UNL     1      34.527 -16.452 -23.660  0.00  0.00    +0.038 C 
BRANCH  21  24
ATOM     24  O   UNL     1      35.717 -14.783 -22.439  0.00  0.00    -0.436 OA
BRANCH  24  26
ATOM     25  N   UNL     1      34.348 -12.914 -22.712  0.00  0.00    -0.210 NA
ATOM     26  C   UNL     1      34.745 -13.940 -21.927  0.00  0.00    +0.230 C 
ATOM     27  C   UNL     1      34.240 -14.189 -20.661  0.00  0.00    +0.058 C 
ATOM     28  C   UNL     1      32.830 -12.262 -20.948  0.00  0.00    +0.091 C 
ATOM     29  C   UNL     1      33.264 -13.329 -20.169  0.00  0.00    +0.010 C 
ATOM     30  C   UNL     1      33.398 -12.099 -22.201  0.00  0.00    +0.106 C 
BRANCH  28  34
ATOM     31  F   UNL     1      30.984 -10.818 -21.432  0.00  0.00    -0.166 F 
ATOM     32  F   UNL     1      30.932 -11.882 -19.542  0.00  0.00    -0.166 F 
ATOM     33  F   UNL     1      32.320 -10.232 -19.820  0.00  0.00    -0.166 F 
ATOM     34  C   UNL     1      31.789 -11.323 -20.448  0.00  0.00    +0.420 C 
ENDBRANCH  28  34
ENDBRANCH  24  26
ENDBRANCH  21  24
ENDBRANCH  11  18
TORSDOF 4
ENDMDL
MODEL 2
REMARK VINA RESULT:     -11.9      6.467     11.393
REMARK  Name = 24771824
REMARK  4 active torsions:
REMARK  status: ('A' for Active; 'I' for Inactive)
REMARK    1  A    between atoms: C_11  and  C_18
REMARK    2  A    between atoms: C_21  and  O_24
REMARK    3  A    between atoms: O_24  and  C_26
REMARK    4  A    between atoms: C_28  and  C_34
REMARK                            x       y       z     vdW  Elec       q    Type
REMARK                         _______ _______ _______ _____ _____    ______ ____
ROOT
ATOM      1  O   UNL     1      35.679 -14.800 -23.466  0.00  0.00    -0.252 OA
ATOM      2  N   UNL     1      35.350 -16.496 -21.928  0.00  0.00    -0.263 N 
ATOM      3  N   UNL     1      34.293 -14.403 -21.649  0.00  0.00    -0.252 N 
ATOM      4  N   UNL     1      34.348 -12.444 -23.008  0.00  0.00    -0.133 NA
ATOM      5  N   UNL     1      33.958 -11.165 -23.257  0.00  0.00    -0.145 NA
ATOM      6  C   UNL     1      37.289 -18.040 -21.792  0.00  0.00    +0.044 C 
ATOM      7  C   UNL     1      35.765 -17.719 -19.801  0.00  0.00    +0.044 C 
ATOM      8  C   UNL     1      36.211 -17.420 -22.679  0.00  0.00    +0.099 C 
ATOM      9  C   UNL     1      34.724 -17.072 -20.721  0.00  0.00    +0.099 C 
ATOM     10  C   UNL     1      36.659 -18.653 -20.571  0.00  0.00    -0.041 C 
ATOM     11  C   UNL     1      36.859 -19.929 -20.211  0.00  0.00    -0.008 C 
ATOM     12  C   UNL     1      35.150 -15.187 -22.421  0.00  0.00    +0.309 C 
ATOM     13  C   UNL     1      33.884 -13.071 -21.905  0.00  0.00    +0.157 C 
ATOM     14  C   UNL     1      33.024 -12.471 -21.007  0.00  0.00    +0.038 C 
ATOM     15  C   UNL     1      32.627 -11.169 -21.261  0.00  0.00    +0.025 C 
ATOM     16  C   UNL     1      33.118 -10.554 -22.396  0.00  0.00    +0.122 C 
ATOM     17  H   UNL     1      33.932 -14.822 -20.835  0.00  0.00    +0.158 HD
ENDROOT
BRANCH  11  18
ATOM     18  C   UNL     1      36.276 -20.591 -19.033  0.00  0.00    +0.002 C 
ATOM     19  C   UNL     1      36.904 -20.483 -17.793  0.00  0.00    +0.038 C 
ATOM     20  C   UNL     1      35.096 -21.324 -19.157  0.00  0.00    +0.000 C 
ATOM     21  C   UNL     1      36.351 -21.109 -16.675  0.00  0.00    +0.147 C 
ATOM     22  C   UNL     1      34.543 -21.949 -18.040  0.00  0.00    +0.003 C 
ATOM     23  C   UNL     1      35.171 -21.842 -16.798  0.00  0.00    +0.038 C 
BRANCH  21  24
ATOM     24  O   UNL     1      36.963 -21.004 -15.464  0.00  0.00    -0.436 OA
BRANCH  24  26
ATOM     25  N   UNL     1      38.441 -22.756 -15.029  0.00  0.00    -0.210 NA
ATOM     26  C   UNL     1      37.246 -22.176 -14.782  0.00  0.00    +0.230 C 
ATOM     27  C   UNL     1      36.306 -22.681 -13.897  0.00  0.00    +0.058 C 
ATOM     28  C   UNL     1      37.835 -24.484 -13.451  0.00  0.00    +0.091 C 
ATOM     29  C   UNL     1      36.613 -23.858 -13.224  0.00  0.00    +0.010 C 
ATOM     30  C   UNL     1      38.705 -23.898 -14.356  0.00  0.00    +0.106 C 
BRANCH  28  34
ATOM     31  F   UNL     1      39.471 -26.165 -12.984  0.00  0.00    -0.166 F 
ATOM     32  F   UNL     1      38.092 -25.664 -11.387  0.00  0.00    -0.166 F 
ATOM     33  F   UNL     1      37.393 -26.795 -13.108  0.00  0.00    -0.166 F 
ATOM     34  C   UNL     1      38.191 -25.745 -12.748  0.00  0.00    +0.420 C 
ENDBRANCH  28  34
ENDBRANCH  24  26
ENDBRANCH  21  24
ENDBRANCH  11  18
TORSDOF 4
ENDMDL
MODEL 3
REMARK VINA RESULT:     -11.4      4.531     10.283
REMARK  Name = 24771824
REMARK  4 active torsions:
REMARK  status: ('A' for Active; 'I' for Inactive)
REMARK    1  A    between atoms: C_11  and  C_18
REMARK    2  A    between atoms: C_21  and  O_24
REMARK    3  A    between atoms: O_24  and  C_26
REMARK    4  A    between atoms: C_28  and  C_34
REMARK                            x       y       z     vdW  Elec       q    Type
REMARK                         _______ _______ _______ _____ _____    ______ ____
ROOT
ATOM      1  O   UNL     1      33.551 -12.127 -22.512  0.00  0.00    -0.252 OA
ATOM      2  N   UNL     1      33.842 -14.220 -21.571  0.00  0.00    -0.263 N 
ATOM      3  N   UNL     1      32.975 -12.438 -20.288  0.00  0.00    -0.252 N 
ATOM      4  N   UNL     1      32.500 -10.180 -20.889  0.00  0.00    -0.133 NA
ATOM      5  N   UNL     1      32.044  -8.940 -20.566  0.00  0.00    -0.145 NA
ATOM      6  C   UNL     1      35.683 -15.493 -22.644  0.00  0.00    +0.044 C 
ATOM      7  C   UNL     1      35.047 -15.942 -20.239  0.00  0.00    +0.044 C 
ATOM      8  C   UNL     1      34.346 -14.779 -22.833  0.00  0.00    +0.099 C 
ATOM      9  C   UNL     1      33.731 -15.188 -20.462  0.00  0.00    +0.099 C 
ATOM     10  C   UNL     1      35.575 -16.502 -21.533  0.00  0.00    -0.041 C 
ATOM     11  C   UNL     1      35.898 -17.794 -21.688  0.00  0.00    -0.008 C 
ATOM     12  C   UNL     1      33.467 -12.858 -21.522  0.00  0.00    +0.309 C 
ATOM     13  C   UNL     1      32.498 -11.148 -19.947  0.00  0.00    +0.157 C 
ATOM     14  C   UNL     1      32.051 -10.939 -18.658  0.00  0.00    +0.038 C 
ATOM     15  C   UNL     1      31.587  -9.677 -18.329  0.00  0.00    +0.025 C 
ATOM     16  C   UNL     1      31.602  -8.708 -19.313  0.00  0.00    +0.122 C 
ATOM     17  H   UNL     1      32.956 -13.114 -19.571  0.00  0.00    +0.158 HD
ENDROOT
BRANCH  11  18
ATOM     18  C   UNL     1      35.815 -18.830 -20.648  0.00  0.00    +0.002 C 
ATOM     19  C   UNL     1      34.593 -19.443 -20.370  0.00  0.00    +0.038 C 
ATOM     20  C   UNL     1      36.958 -19.201 -19.940  0.00  0.00    +0.000 C 
ATOM     21  C   UNL     1      34.515 -20.428 -19.385  0.00  0.00    +0.147 C 
ATOM     22  C   UNL     1      36.880 -20.185 -18.955  0.00  0.00    +0.003 C 
ATOM     23  C   UNL     1      35.658 -20.798 -18.677  0.00  0.00    +0.038 C 
BRANCH  21  24
ATOM     24  O   UNL     1      33.323 -21.025 -19.114  0.00  0.00    -0.436 OA
BRANCH  24  26
ATOM     25  N   UNL     1      31.928 -21.672 -17.360  0.00  0.00    -0.210 NA
ATOM     26  C   UNL     1      33.175 -21.638 -17.881  0.00  0.00    +0.230 C 
ATOM     27  C   UNL     1      34.291 -22.175 -17.260  0.00  0.00    +0.058 C 
ATOM     28  C   UNL     1      32.848 -22.841 -15.454  0.00  0.00    +0.091 C 
ATOM     29  C   UNL     1      34.116 -22.786 -16.023  0.00  0.00    +0.010 C 
ATOM     30  C   UNL     1      31.797 -22.274 -16.157  0.00  0.00    +0.106 C 
BRANCH  28  34
ATOM     31  F   UNL     1      32.313 -22.605 -13.134  0.00  0.00    -0.166 F 
ATOM     32  F   UNL     1      31.617 -24.404 -14.126  0.00  0.00    -0.166 F 
ATOM     33  F   UNL     1      33.732 -24.159 -13.684  0.00  0.00    -0.166 F 
ATOM     34  C   UNL     1      32.630 -23.486 -14.131  0.00  0.00    +0.420 C 
ENDBRANCH  28  34
ENDBRANCH  24  26
ENDBRANCH  21  24
ENDBRANCH  11  18
TORSDOF 4
ENDMDL
MODEL 4
REMARK VINA RESULT:     -11.3      4.670     11.031
REMARK  Name = 24771824
REMARK  4 active torsions:
REMARK  status: ('A' for Active; 'I' for Inactive)
REMARK    1  A    between atoms: C_11  and  C_18
REMARK    2  A    between atoms: C_21  and  O_24
REMARK    3  A    between atoms: O_24  and  C_26
REMARK    4  A    between atoms: C_28  and  C_34
REMARK                            x       y       z     vdW  Elec       q    Type
REMARK                         _______ _______ _______ _____ _____    ______ ____
ROOT
ATOM      1  O   UNL     1      33.449 -11.709 -25.237  0.00  0.00    -0.252 OA
ATOM      2  N   UNL     1      33.790 -13.511 -23.826  0.00  0.00    -0.263 N 
ATOM      3  N   UNL     1      33.567 -11.329 -22.953  0.00  0.00    -0.252 N 
ATOM      4  N   UNL     1      33.177  -9.250 -24.053  0.00  0.00    -0.133 NA
ATOM      5  N   UNL     1      32.982  -7.904 -24.007  0.00  0.00    -0.145 NA
ATOM      6  C   UNL     1      35.054 -15.346 -24.921  0.00  0.00    +0.044 C 
ATOM      7  C   UNL     1      35.156 -15.039 -22.415  0.00  0.00    +0.044 C 
ATOM      8  C   UNL     1      33.811 -14.458 -24.950  0.00  0.00    +0.099 C 
ATOM      9  C   UNL     1      33.927 -14.126 -22.492  0.00  0.00    +0.099 C 
ATOM     10  C   UNL     1      35.188 -15.999 -23.573  0.00  0.00    -0.041 C 
ATOM     11  C   UNL     1      35.304 -17.325 -23.415  0.00  0.00    -0.008 C 
ATOM     12  C   UNL     1      33.600 -12.136 -24.089  0.00  0.00    +0.309 C 
ATOM     13  C   UNL     1      33.364  -9.927 -22.900  0.00  0.00    +0.157 C 
ATOM     14  C   UNL     1      33.368  -9.316 -21.663  0.00  0.00    +0.038 C 
ATOM     15  C   UNL     1      33.170  -7.947 -21.616  0.00  0.00    +0.025 C 
ATOM     16  C   UNL     1      32.982  -7.281 -22.811  0.00  0.00    +0.122 C 
ATOM     17  H   UNL     1      33.699 -11.784 -22.090  0.00  0.00    +0.158 HD
ENDROOT
BRANCH  11  18
ATOM     18  C   UNL     1      35.438 -18.028 -22.129  0.00  0.00    +0.002 C 
ATOM     19  C   UNL     1      34.395 -18.825 -21.659  0.00  0.00    +0.038 C 
ATOM     20  C   UNL     1      36.608 -17.899 -21.382  0.00  0.00    +0.000 C 
ATOM     21  C   UNL     1      34.522 -19.493 -20.441  0.00  0.00    +0.147 C 
ATOM     22  C   UNL     1      36.736 -18.566 -20.164  0.00  0.00    +0.003 C 
ATOM     23  C   UNL     1      35.693 -19.364 -19.693  0.00  0.00    +0.038 C 
BRANCH  21  24
ATOM     24  O   UNL     1      33.504 -20.271 -19.981  0.00  0.00    -0.436 OA
BRANCH  24  26
ATOM     25  N   UNL     1      32.611 -21.341 -18.111  0.00  0.00    -0.210 NA
ATOM     26  C   UNL     1      33.711 -20.975 -18.807  0.00  0.00    +0.230 C 
ATOM     27  C   UNL     1      35.008 -21.262 -18.416  0.00  0.00    +0.058 C 
ATOM     28  C   UNL     1      34.082 -22.366 -16.489  0.00  0.00    +0.091 C 
ATOM     29  C   UNL     1      35.190 -21.971 -17.233  0.00  0.00    +0.010 C 
ATOM     30  C   UNL     1      32.826 -22.029 -16.967  0.00  0.00    +0.106 C 
BRANCH  28  34
ATOM     31  F   UNL     1      35.161 -24.135 -15.293  0.00  0.00    -0.166 F 
ATOM     32  F   UNL     1      34.651 -22.353 -14.166  0.00  0.00    -0.166 F 
ATOM     33  F   UNL     1      33.083 -23.716 -14.807  0.00  0.00    -0.166 F 
ATOM     34  C   UNL     1      34.243 -23.123 -15.219  0.00  0.00    +0.420 C 
ENDBRANCH  28  34
ENDBRANCH  24  26
ENDBRANCH  21  24
ENDBRANCH  11  18
TORSDOF 4
ENDMDL
MODEL 5
REMARK VINA RESULT:     -11.1      5.271     12.086
REMARK  Name = 24771824
REMARK  4 active torsions:
REMARK  status: ('A' for Active; 'I' for Inactive)
REMARK    1  A    between atoms: C_11  and  C_18
REMARK    2  A    between atoms: C_21  and  O_24
REMARK    3  A    between atoms: O_24  and  C_26
REMARK    4  A    between atoms: C_28  and  C_34
REMARK                            x       y       z     vdW  Elec       q    Type
REMARK                         _______ _______ _______ _____ _____    ______ ____
ROOT
ATOM      1  O   UNL     1      31.868  -7.168 -20.670  0.00  0.00    -0.252 OA
ATOM      2  N   UNL     1      32.831  -9.097 -21.508  0.00  0.00    -0.263 N 
ATOM      3  N   UNL     1      32.587  -7.187 -22.874  0.00  0.00    -0.252 N 
ATOM      4  N   UNL     1      31.694  -5.032 -22.383  0.00  0.00    -0.133 NA
ATOM      5  N   UNL     1      31.385  -3.763 -22.765  0.00  0.00    -0.145 NA
ATOM      6  C   UNL     1      31.990 -11.142 -20.381  0.00  0.00    +0.044 C 
ATOM      7  C   UNL     1      32.842 -11.249 -22.758  0.00  0.00    +0.044 C 
ATOM      8  C   UNL     1      32.689  -9.794 -20.222  0.00  0.00    +0.099 C 
ATOM      9  C   UNL     1      33.500  -9.878 -22.567  0.00  0.00    +0.099 C 
ATOM     10  C   UNL     1      32.680 -11.958 -21.440  0.00  0.00    -0.041 C 
ATOM     11  C   UNL     1      33.134 -13.201 -21.222  0.00  0.00    -0.008 C 
ATOM     12  C   UNL     1      32.379  -7.763 -21.623  0.00  0.00    +0.309 C 
ATOM     13  C   UNL     1      32.268  -5.867 -23.276  0.00  0.00    +0.157 C 
ATOM     14  C   UNL     1      32.559  -5.493 -24.573  0.00  0.00    +0.038 C 
ATOM     15  C   UNL     1      32.244  -4.202 -24.961  0.00  0.00    +0.025 C 
ATOM     16  C   UNL     1      31.658  -3.371 -24.027  0.00  0.00    +0.122 C 
ATOM     17  H   UNL     1      33.004  -7.763 -23.557  0.00  0.00    +0.158 HD
ENDROOT
BRANCH  11  18
ATOM     18  C   UNL     1      33.816 -14.051 -22.210  0.00  0.00    +0.002 C 
ATOM     19  C   UNL     1      34.811 -14.937 -21.797  0.00  0.00    +0.038 C 
ATOM     20  C   UNL     1      33.466 -13.973 -23.558  0.00  0.00    +0.000 C 
ATOM     21  C   UNL     1      35.457 -15.745 -22.734  0.00  0.00    +0.147 C 
ATOM     22  C   UNL     1      34.112 -14.780 -24.494  0.00  0.00    +0.003 C 
ATOM     23  C   UNL     1      35.108 -15.666 -24.082  0.00  0.00    +0.038 C 
BRANCH  21  24
ATOM     24  O   UNL     1      36.428 -16.609 -22.332  0.00  0.00    -0.436 OA
BRANCH  24  26
ATOM     25  N   UNL     1      36.994 -18.121 -20.648  0.00  0.00    -0.210 NA
ATOM     26  C   UNL     1      36.057 -17.655 -21.504  0.00  0.00    +0.230 C 
ATOM     27  C   UNL     1      34.770 -18.159 -21.594  0.00  0.00    +0.058 C 
ATOM     28  C   UNL     1      35.358 -19.715 -19.857  0.00  0.00    +0.091 C 
ATOM     29  C   UNL     1      34.421 -19.209 -20.752  0.00  0.00    +0.010 C 
ATOM     30  C   UNL     1      36.619 -19.141 -19.844  0.00  0.00    +0.106 C 
BRANCH  28  34
ATOM     31  F   UNL     1      35.078 -22.069 -19.538  0.00  0.00    -0.166 F 
ATOM     32  F   UNL     1      35.834 -20.931 -17.853  0.00  0.00    -0.166 F 
ATOM     33  F   UNL     1      33.749 -20.743 -18.440  0.00  0.00    -0.166 F 
ATOM     34  C   UNL     1      35.016 -20.839 -18.944  0.00  0.00    +0.420 C 
ENDBRANCH  28  34
ENDBRANCH  24  26
ENDBRANCH  21  24
ENDBRANCH  11  18
TORSDOF 4
ENDMDL
MODEL 6
REMARK VINA RESULT:     -11.0      4.961     11.789
REMARK  Name = 24771824
REMARK  4 active torsions:
REMARK  status: ('A' for Active; 'I' for Inactive)
REMARK    1  A    between atoms: C_11  and  C_18
REMARK    2  A    between atoms: C_21  and  O_24
REMARK    3  A    between atoms: O_24  and  C_26
REMARK    4  A    between atoms: C_28  and  C_34
REMARK                            x       y       z     vdW  Elec       q    Type
REMARK                         _______ _______ _______ _____ _____    ______ ____
ROOT
ATOM      1  O   UNL     1      32.519  -7.905 -24.024  0.00  0.00    -0.252 OA
ATOM      2  N   UNL     1      32.955  -9.930 -22.995  0.00  0.00    -0.263 N 
ATOM      3  N   UNL     1      32.539  -7.996 -21.707  0.00  0.00    -0.252 N 
ATOM      4  N   UNL     1      32.023  -5.767 -22.377  0.00  0.00    -0.133 NA
ATOM      5  N   UNL     1      31.725  -4.476 -22.067  0.00  0.00    -0.145 NA
ATOM      6  C   UNL     1      34.387 -11.408 -24.382  0.00  0.00    +0.044 C 
ATOM      7  C   UNL     1      34.391 -11.618 -21.864  0.00  0.00    +0.044 C 
ATOM      8  C   UNL     1      33.081 -10.622 -24.285  0.00  0.00    +0.099 C 
ATOM      9  C   UNL     1      33.099 -10.797 -21.809  0.00  0.00    +0.099 C 
ATOM     10  C   UNL     1      34.532 -12.315 -23.191  0.00  0.00    -0.041 C 
ATOM     11  C   UNL     1      34.744 -13.634 -23.300  0.00  0.00    -0.008 C 
ATOM     12  C   UNL     1      32.667  -8.547 -22.981  0.00  0.00    +0.309 C 
ATOM     13  C   UNL     1      32.228  -6.653 -21.379  0.00  0.00    +0.157 C 
ATOM     14  C   UNL     1      32.149  -6.311 -20.044  0.00  0.00    +0.038 C 
ATOM     15  C   UNL     1      31.845  -4.998 -19.729  0.00  0.00    +0.025 C 
ATOM     16  C   UNL     1      31.642  -4.114 -20.770  0.00  0.00    +0.122 C 
ATOM     17  H   UNL     1      32.681  -8.609 -20.949  0.00  0.00    +0.158 HD
ENDROOT
BRANCH  11  18
ATOM     18  C   UNL     1      34.894 -14.576 -22.180  0.00  0.00    +0.002 C 
ATOM     19  C   UNL     1      35.184 -15.917 -22.432  0.00  0.00    +0.038 C 
ATOM     20  C   UNL     1      34.748 -14.128 -20.868  0.00  0.00    +0.000 C 
ATOM     21  C   UNL     1      35.328 -16.810 -21.369  0.00  0.00    +0.147 C 
ATOM     22  C   UNL     1      34.892 -15.020 -19.806  0.00  0.00    +0.003 C 
ATOM     23  C   UNL     1      35.182 -16.362 -20.057  0.00  0.00    +0.038 C 
BRANCH  21  24
ATOM     24  O   UNL     1      35.610 -18.118 -21.614  0.00  0.00    -0.436 OA
BRANCH  24  26
ATOM     25  N   UNL     1      36.118 -19.653 -19.933  0.00  0.00    -0.210 NA
ATOM     26  C   UNL     1      35.173 -19.055 -20.693  0.00  0.00    +0.230 C 
ATOM     27  C   UNL     1      33.818 -19.323 -20.599  0.00  0.00    +0.058 C 
ATOM     28  C   UNL     1      34.346 -20.904 -18.865  0.00  0.00    +0.091 C 
ATOM     29  C   UNL     1      33.404 -20.267 -19.666  0.00  0.00    +0.010 C 
ATOM     30  C   UNL     1      35.679 -20.565 -19.037  0.00  0.00    +0.106 C 
BRANCH  28  34
ATOM     31  F   UNL     1      34.793 -22.025 -16.799  0.00  0.00    -0.166 F 
ATOM     32  F   UNL     1      32.711 -21.679 -17.300  0.00  0.00    -0.166 F 
ATOM     33  F   UNL     1      33.852 -23.179 -18.384  0.00  0.00    -0.166 F 
ATOM     34  C   UNL     1      33.935 -21.920 -17.859  0.00  0.00    +0.420 C 
ENDBRANCH  28  34
ENDBRANCH  24  26
ENDBRANCH  21  24
ENDBRANCH  11  18
TORSDOF 4
ENDMDL
MODEL 7
REMARK VINA RESULT:     -11.0      3.276      4.355
REMARK  Name = 24771824
REMARK  4 active torsions:
REMARK  status: ('A' for Active; 'I' for Inactive)
REMARK    1  A    between atoms: C_11  and  C_18
REMARK    2  A    between atoms: C_21  and  O_24
REMARK    3  A    between atoms: O_24  and  C_26
REMARK    4  A    between atoms: C_28  and  C_34
REMARK                            x       y       z     vdW  Elec       q    Type
REMARK                         _______ _______ _______ _____ _____    ______ ____
ROOT
ATOM      1  O   UNL     1      33.642 -23.789 -14.492  0.00  0.00    -0.252 OA
ATOM      2  N   UNL     1      34.606 -22.584 -16.215  0.00  0.00    -0.263 N 
ATOM      3  N   UNL     1      35.662 -22.718 -14.108  0.00  0.00    -0.252 N 
ATOM      4  N   UNL     1      35.020 -23.868 -12.121  0.00  0.00    -0.133 NA
ATOM      5  N   UNL     1      35.257 -24.221 -10.829  0.00  0.00    -0.145 NA
ATOM      6  C   UNL     1      32.920 -21.686 -17.801  0.00  0.00    +0.044 C 
ATOM      7  C   UNL     1      35.140 -20.518 -17.494  0.00  0.00    +0.044 C 
ATOM      8  C   UNL     1      33.516 -22.928 -17.140  0.00  0.00    +0.099 C 
ATOM      9  C   UNL     1      35.688 -21.773 -16.805  0.00  0.00    +0.099 C 
ATOM     10  C   UNL     1      34.013 -20.865 -18.429  0.00  0.00    -0.041 C 
ATOM     11  C   UNL     1      33.995 -20.492 -19.717  0.00  0.00    -0.008 C 
ATOM     12  C   UNL     1      34.567 -23.077 -14.892  0.00  0.00    +0.309 C 
ATOM     13  C   UNL     1      35.913 -23.084 -12.763  0.00  0.00    +0.157 C 
ATOM     14  C   UNL     1      37.067 -22.617 -12.166  0.00  0.00    +0.038 C 
ATOM     15  C   UNL     1      37.307 -22.977 -10.851  0.00  0.00    +0.025 C 
ATOM     16  C   UNL     1      36.377 -23.779 -10.221  0.00  0.00    +0.122 C 
ATOM     17  H   UNL     1      36.338 -22.145 -14.538  0.00  0.00    +0.158 HD
ENDROOT
BRANCH  11  18
ATOM     18  C   UNL     1      35.028 -19.691 -20.393  0.00  0.00    +0.002 C 
ATOM     19  C   UNL     1      34.737 -19.057 -21.601  0.00  0.00    +0.038 C 
ATOM     20  C   UNL     1      36.295 -19.564 -19.826  0.00  0.00    +0.000 C 
ATOM     21  C   UNL     1      35.715 -18.296 -22.241  0.00  0.00    +0.147 C 
ATOM     22  C   UNL     1      37.273 -18.803 -20.466  0.00  0.00    +0.003 C 
ATOM     23  C   UNL     1      36.983 -18.169 -21.674  0.00  0.00    +0.038 C 
BRANCH  21  24
ATOM     24  O   UNL     1      35.432 -17.677 -23.420  0.00  0.00    -0.436 OA
BRANCH  24  26
ATOM     25  N   UNL     1      34.361 -15.874 -24.442  0.00  0.00    -0.210 NA
ATOM     26  C   UNL     1      35.039 -16.350 -23.374  0.00  0.00    +0.230 C 
ATOM     27  C   UNL     1      35.355 -15.596 -22.255  0.00  0.00    +0.058 C 
ATOM     28  C   UNL     1      34.248 -13.740 -23.312  0.00  0.00    +0.091 C 
ATOM     29  C   UNL     1      34.949 -14.266 -22.232  0.00  0.00    +0.010 C 
ATOM     30  C   UNL     1      33.982 -14.578 -24.383  0.00  0.00    +0.106 C 
BRANCH  28  34
ATOM     31  F   UNL     1      34.730 -11.449 -22.818  0.00  0.00    -0.166 F 
ATOM     32  F   UNL     1      33.504 -11.842 -24.563  0.00  0.00    -0.166 F 
ATOM     33  F   UNL     1      32.675 -12.118 -22.572  0.00  0.00    -0.166 F 
ATOM     34  C   UNL     1      33.802 -12.320 -23.318  0.00  0.00    +0.420 C 
ENDBRANCH  28  34
ENDBRANCH  24  26
ENDBRANCH  21  24
ENDBRANCH  11  18
TORSDOF 4
ENDMDL
MODEL 8
REMARK VINA RESULT:     -10.7      5.201     10.558
REMARK  Name = 24771824
REMARK  4 active torsions:
REMARK  status: ('A' for Active; 'I' for Inactive)
REMARK    1  A    between atoms: C_11  and  C_18
REMARK    2  A    between atoms: C_21  and  O_24
REMARK    3  A    between atoms: O_24  and  C_26
REMARK    4  A    between atoms: C_28  and  C_34
REMARK                            x       y       z     vdW  Elec       q    Type
REMARK                         _______ _______ _______ _____ _____    ______ ____
ROOT
ATOM      1  O   UNL     1      33.837 -11.955 -22.462  0.00  0.00    -0.252 OA
ATOM      2  N   UNL     1      33.854 -14.090 -21.572  0.00  0.00    -0.263 N 
ATOM      3  N   UNL     1      32.975 -12.282 -20.335  0.00  0.00    -0.252 N 
ATOM      4  N   UNL     1      32.748  -9.978 -20.904  0.00  0.00    -0.133 NA
ATOM      5  N   UNL     1      32.352  -8.715 -20.591  0.00  0.00    -0.145 NA
ATOM      6  C   UNL     1      35.709 -15.475 -22.466  0.00  0.00    +0.044 C 
ATOM      7  C   UNL     1      34.756 -15.940 -20.172  0.00  0.00    +0.044 C 
ATOM      8  C   UNL     1      34.463 -14.653 -22.786  0.00  0.00    +0.099 C 
ATOM      9  C   UNL     1      33.538 -15.078 -20.521  0.00  0.00    +0.099 C 
ATOM     10  C   UNL     1      35.392 -16.503 -21.415  0.00  0.00    -0.041 C 
ATOM     11  C   UNL     1      35.633 -17.812 -21.579  0.00  0.00    -0.008 C 
ATOM     12  C   UNL     1      33.579 -12.706 -21.517  0.00  0.00    +0.309 C 
ATOM     13  C   UNL     1      32.560 -10.968 -20.005  0.00  0.00    +0.157 C 
ATOM     14  C   UNL     1      31.978 -10.760 -18.770  0.00  0.00    +0.038 C 
ATOM     15  C   UNL     1      31.574  -9.475 -18.453  0.00  0.00    +0.025 C 
ATOM     16  C   UNL     1      31.780  -8.483 -19.391  0.00  0.00    +0.122 C 
ATOM     17  H   UNL     1      32.819 -12.974 -19.651  0.00  0.00    +0.158 HD
ENDROOT
BRANCH  11  18
ATOM     18  C   UNL     1      35.348 -18.867 -20.594  0.00  0.00    +0.002 C 
ATOM     19  C   UNL     1      36.381 -19.393 -19.818  0.00  0.00    +0.038 C 
ATOM     20  C   UNL     1      34.046 -19.341 -20.437  0.00  0.00    +0.000 C 
ATOM     21  C   UNL     1      36.110 -20.393 -18.883  0.00  0.00    +0.147 C 
ATOM     22  C   UNL     1      33.775 -20.341 -19.503  0.00  0.00    +0.003 C 
ATOM     23  C   UNL     1      34.808 -20.866 -18.725  0.00  0.00    +0.038 C 
BRANCH  21  24
ATOM     24  O   UNL     1      37.118 -20.906 -18.126  0.00  0.00    -0.436 OA
BRANCH  24  26
ATOM     25  N   UNL     1      35.580 -22.050 -16.796  0.00  0.00    -0.210 NA
ATOM     26  C   UNL     1      36.787 -21.448 -16.896  0.00  0.00    +0.230 C 
ATOM     27  C   UNL     1      37.692 -21.349 -15.852  0.00  0.00    +0.058 C 
ATOM     28  C   UNL     1      36.104 -22.531 -14.486  0.00  0.00    +0.091 C 
ATOM     29  C   UNL     1      37.337 -21.903 -14.627  0.00  0.00    +0.010 C 
ATOM     30  C   UNL     1      35.269 -22.577 -15.591  0.00  0.00    +0.106 C 
BRANCH  28  34
ATOM     31  F   UNL     1      35.973 -24.465 -13.084  0.00  0.00    -0.166 F 
ATOM     32  F   UNL     1      36.297 -22.559 -12.102  0.00  0.00    -0.166 F 
ATOM     33  F   UNL     1      34.352 -23.022 -12.956  0.00  0.00    -0.166 F 
ATOM     34  C   UNL     1      35.694 -23.130 -13.187  0.00  0.00    +0.420 C 
ENDBRANCH  28  34
ENDBRANCH  24  26
ENDBRANCH  21  24
ENDBRANCH  11  18
TORSDOF 4
ENDMDL
MODEL 9
REMARK VINA RESULT:     -10.6      4.450      7.694
REMARK  Name = 24771824
REMARK  4 active torsions:
REMARK  status: ('A' for Active; 'I' for Inactive)
REMARK    1  A    between atoms: C_11  and  C_18
REMARK    2  A    between atoms: C_21  and  O_24
REMARK    3  A    between atoms: O_24  and  C_26
REMARK    4  A    between atoms: C_28  and  C_34
REMARK                            x       y       z     vdW  Elec       q    Type
REMARK                         _______ _______ _______ _____ _____    ______ ____
ROOT
ATOM      1  O   UNL     1      34.191 -17.575 -24.036  0.00  0.00    -0.252 OA
ATOM      2  N   UNL     1      34.685 -15.315 -24.055  0.00  0.00    -0.263 N 
ATOM      3  N   UNL     1      35.357 -16.674 -22.245  0.00  0.00    -0.252 N 
ATOM      4  N   UNL     1      35.075 -19.013 -21.873  0.00  0.00    -0.133 NA
ATOM      5  N   UNL     1      35.265 -20.120 -21.106  0.00  0.00    -0.145 NA
ATOM      6  C   UNL     1      33.024 -13.994 -25.343  0.00  0.00    +0.044 C 
ATOM      7  C   UNL     1      34.326 -12.926 -23.458  0.00  0.00    +0.044 C 
ATOM      8  C   UNL     1      34.045 -15.130 -25.365  0.00  0.00    +0.099 C 
ATOM      9  C   UNL     1      35.309 -14.103 -23.491  0.00  0.00    +0.099 C 
ATOM     10  C   UNL     1      33.657 -12.745 -24.794  0.00  0.00    -0.041 C 
ATOM     11  C   UNL     1      33.647 -11.574 -25.448  0.00  0.00    -0.008 C 
ATOM     12  C   UNL     1      34.700 -16.603 -23.473  0.00  0.00    +0.309 C 
ATOM     13  C   UNL     1      35.556 -17.826 -21.444  0.00  0.00    +0.157 C 
ATOM     14  C   UNL     1      36.238 -17.679 -20.252  0.00  0.00    +0.038 C 
ATOM     15  C   UNL     1      36.430 -18.806 -19.473  0.00  0.00    +0.025 C 
ATOM     16  C   UNL     1      35.927 -20.005 -19.937  0.00  0.00    +0.122 C 
ATOM     17  H   UNL     1      35.723 -15.830 -21.896  0.00  0.00    +0.158 HD
ENDROOT
BRANCH  11  18
ATOM     18  C   UNL     1      34.245 -10.318 -24.970  0.00  0.00    +0.002 C 
ATOM     19  C   UNL     1      33.569  -9.538 -24.032  0.00  0.00    +0.038 C 
ATOM     20  C   UNL     1      35.487  -9.908 -25.454  0.00  0.00    +0.000 C 
ATOM     21  C   UNL     1      34.136  -8.347 -23.578  0.00  0.00    +0.147 C 
ATOM     22  C   UNL     1      36.054  -8.718 -24.999  0.00  0.00    +0.003 C 
ATOM     23  C   UNL     1      35.378  -7.937 -24.061  0.00  0.00    +0.038 C 
BRANCH  21  24
ATOM     24  O   UNL     1      33.477  -7.585 -22.663  0.00  0.00    -0.436 OA
BRANCH  24  26
ATOM     25  N   UNL     1      32.448  -9.454 -21.719  0.00  0.00    -0.210 NA
ATOM     26  C   UNL     1      32.971  -8.220 -21.541  0.00  0.00    +0.230 C 
ATOM     27  C   UNL     1      33.029  -7.570 -20.319  0.00  0.00    +0.058 C 
ATOM     28  C   UNL     1      31.968  -9.500 -19.350  0.00  0.00    +0.091 C 
ATOM     29  C   UNL     1      32.515  -8.229 -19.206  0.00  0.00    +0.010 C 
ATOM     30  C   UNL     1      31.959 -10.063 -20.616  0.00  0.00    +0.106 C 
BRANCH  28  34
ATOM     31  F   UNL     1      31.953  -9.852 -16.983  0.00  0.00    -0.166 F 
ATOM     32  F   UNL     1      30.061 -10.066 -18.022  0.00  0.00    -0.166 F 
ATOM     33  F   UNL     1      31.604 -11.580 -18.256  0.00  0.00    -0.166 F 
ATOM     34  C   UNL     1      31.409 -10.229 -18.180  0.00  0.00    +0.420 C 
ENDBRANCH  28  34
ENDBRANCH  24  26
ENDBRANCH  21  24
ENDBRANCH  11  18
TORSDOF 4
ENDMDL
