MODEL 1
REMARK VINA RESULT:     -13.9      0.000      0.000
REMARK  Name = 25171648
REMARK  8 active torsions:
REMARK  status: ('A' for Active; 'I' for Inactive)
REMARK    1  A    between atoms: C_1  and  C_12
REMARK    2  A    between atoms: C_2  and  C_23
REMARK    3  A    between atoms: C_9  and  O_13
REMARK    4  A    between atoms: O_13  and  C_14
REMARK    5  A    between atoms: C_14  and  C_16
REMARK    6  A    between atoms: C_23  and  N_25
REMARK    7  A    between atoms: C_27  and  C_31
REMARK    8  A    between atoms: C_34  and  C_38
REMARK                            x       y       z     vdW  Elec       q    Type
REMARK                         _______ _______ _______ _____ _____    ______ ____
ROOT
ATOM      1  C   UNL     1      35.506 -19.116 -20.057  0.00  0.00    +0.062 C 
ATOM      2  C   UNL     1      34.434 -20.966 -18.933  0.00  0.00    +0.000 C 
ATOM      3  C   UNL     1      34.346 -19.803 -19.699  0.00  0.00    +0.007 C 
ATOM      4  C   UNL     1      36.752 -19.591 -19.650  0.00  0.00    +0.010 C 
ATOM      5  C   UNL     1      35.680 -21.441 -18.526  0.00  0.00    -0.003 C 
ATOM      6  C   UNL     1      36.839 -20.754 -18.885  0.00  0.00    +0.000 C 
ENDROOT
BRANCH   1  12
ATOM      7  N   UNL     1      35.367 -16.753 -20.171  0.00  0.00    -0.212 NA
ATOM      8  N   UNL     1      35.390 -18.077 -22.185  0.00  0.00    -0.190 NA
ATOM      9  C   UNL     1      35.248 -15.678 -22.322  0.00  0.00    +0.161 C 
ATOM     10  C   UNL     1      35.283 -15.649 -20.943  0.00  0.00    +0.201 C 
ATOM     11  C   UNL     1      35.306 -16.932 -22.894  0.00  0.00    +0.144 C 
ATOM     12  C   UNL     1      35.416 -17.915 -20.848  0.00  0.00    +0.031 C 
BRANCH   9  13
ATOM     13  O   UNL     1      35.163 -14.533 -23.076  0.00  0.00    -0.476 OA
BRANCH  13  14
ATOM     14  C   UNL     1      33.874 -13.982 -23.266  0.00  0.00    +0.205 C 
BRANCH  14  16
ATOM     15  N   UNL     1      32.545  -9.992 -22.283  0.00  0.00    +0.386 N 
ATOM     16  C   UNL     1      33.830 -12.608 -22.606  0.00  0.00    +0.040 C 
ATOM     17  C   UNL     1      32.533 -12.421 -21.811  0.00  0.00    -0.019 C 
ATOM     18  C   UNL     1      33.965 -11.491 -23.646  0.00  0.00    -0.019 C 
ATOM     19  C   UNL     1      32.435 -11.009 -21.228  0.00  0.00    -0.077 C 
ATOM     20  C   UNL     1      33.821 -10.110 -23.002  0.00  0.00    -0.077 C 
ATOM     21  C   UNL     1      32.399  -8.651 -21.717  0.00  0.00    -0.101 C 
ATOM     22  H   UNL     1      31.791 -10.149 -22.951  0.00  0.00    -0.080 HD
ENDBRANCH  14  16
ENDBRANCH  13  14
ENDBRANCH   9  13
ENDBRANCH   1  12
BRANCH   2  23
ATOM     23  C   UNL     1      33.194 -21.702 -18.549  0.00  0.00    +0.146 C 
BRANCH  23  25
ATOM     24  O   UNL     1      30.901 -21.766 -16.831  0.00  0.00    -0.268 OA
ATOM     25  N   UNL     1      33.184 -22.070 -17.143  0.00  0.00    -0.173 N 
ATOM     26  N   UNL     1      34.406 -22.400 -16.630  0.00  0.00    -0.175 NA
ATOM     27  C   UNL     1      34.475 -22.733 -15.381  0.00  0.00    +0.099 C 
ATOM     28  C   UNL     1      32.013 -22.070 -16.399  0.00  0.00    +0.268 C 
ATOM     29  C   UNL     1      33.317 -22.804 -14.470  0.00  0.00    +0.025 C 
ATOM     30  C   UNL     1      32.134 -22.477 -14.984  0.00  0.00    +0.061 C 
BRANCH  27  31
ATOM     31  C   UNL     1      35.801 -23.090 -14.808  0.00  0.00    +0.020 C 
ATOM     32  C   UNL     1      35.881 -23.969 -13.729  0.00  0.00    +0.012 C 
ATOM     33  C   UNL     1      36.964 -22.545 -15.352  0.00  0.00    +0.002 C 
ATOM     34  C   UNL     1      37.125 -24.304 -13.193  0.00  0.00    +0.068 C 
ATOM     35  C   UNL     1      38.208 -22.879 -14.817  0.00  0.00    +0.001 C 
ATOM     36  C   UNL     1      38.289 -23.759 -13.737  0.00  0.00    +0.010 C 
BRANCH  34  38
ATOM     37  N   UNL     1      37.276 -25.936 -11.188  0.00  0.00    -0.191 NA
ATOM     38  C   UNL     1      37.209 -25.204 -12.086  0.00  0.00    +0.100 C 
ENDBRANCH  34  38
ENDBRANCH  27  31
ENDBRANCH  23  25
ENDBRANCH   2  23
TORSDOF 8
ENDMDL
MODEL 2
REMARK VINA RESULT:     -13.3      1.674      2.323
REMARK  Name = 25171648
REMARK  8 active torsions:
REMARK  status: ('A' for Active; 'I' for Inactive)
REMARK    1  A    between atoms: C_1  and  C_12
REMARK    2  A    between atoms: C_2  and  C_23
REMARK    3  A    between atoms: C_9  and  O_13
REMARK    4  A    between atoms: O_13  and  C_14
REMARK    5  A    between atoms: C_14  and  C_16
REMARK    6  A    between atoms: C_23  and  N_25
REMARK    7  A    between atoms: C_27  and  C_31
REMARK    8  A    between atoms: C_34  and  C_38
REMARK                            x       y       z     vdW  Elec       q    Type
REMARK                         _______ _______ _______ _____ _____    ______ ____
ROOT
ATOM      1  C   UNL     1      35.711 -20.264 -19.075  0.00  0.00    +0.062 C 
ATOM      2  C   UNL     1      34.611 -21.885 -17.661  0.00  0.00    +0.000 C 
ATOM      3  C   UNL     1      34.599 -21.053 -18.781  0.00  0.00    +0.007 C 
ATOM      4  C   UNL     1      36.834 -20.307 -18.250  0.00  0.00    +0.010 C 
ATOM      5  C   UNL     1      35.735 -21.928 -16.836  0.00  0.00    -0.003 C 
ATOM      6  C   UNL     1      36.847 -21.140 -17.131  0.00  0.00    +0.000 C 
ENDROOT
BRANCH   1  12
ATOM      7  N   UNL     1      34.640 -19.522 -21.054  0.00  0.00    -0.212 NA
ATOM      8  N   UNL     1      36.747 -18.572 -20.372  0.00  0.00    -0.190 NA
ATOM      9  C   UNL     1      35.675 -17.804 -22.386  0.00  0.00    +0.161 C 
ATOM     10  C   UNL     1      34.661 -18.702 -22.126  0.00  0.00    +0.201 C 
ATOM     11  C   UNL     1      36.703 -17.782 -21.465  0.00  0.00    +0.144 C 
ATOM     12  C   UNL     1      35.698 -19.406 -20.231  0.00  0.00    +0.031 C 
BRANCH   9  13
ATOM     13  O   UNL     1      35.663 -16.985 -23.487  0.00  0.00    -0.476 OA
BRANCH  13  14
ATOM     14  C   UNL     1      34.437 -16.353 -23.806  0.00  0.00    +0.205 C 
BRANCH  14  16
ATOM     15  N   UNL     1      33.609 -12.172 -23.110  0.00  0.00    +0.386 N 
ATOM     16  C   UNL     1      34.639 -14.842 -23.748  0.00  0.00    +0.040 C 
ATOM     17  C   UNL     1      34.522 -14.327 -22.309  0.00  0.00    -0.019 C 
ATOM     18  C   UNL     1      33.627 -14.116 -24.640  0.00  0.00    -0.019 C 
ATOM     19  C   UNL     1      34.623 -12.801 -22.253  0.00  0.00    -0.077 C 
ATOM     20  C   UNL     1      33.758 -12.597 -24.508  0.00  0.00    -0.077 C 
ATOM     21  C   UNL     1      33.685 -10.714 -23.006  0.00  0.00    -0.101 C 
ATOM     22  H   UNL     1      32.691 -12.475 -22.785  0.00  0.00    -0.080 HD
ENDBRANCH  14  16
ENDBRANCH  13  14
ENDBRANCH   9  13
ENDBRANCH   1  12
BRANCH   2  23
ATOM     23  C   UNL     1      33.422 -22.729 -17.345  0.00  0.00    +0.146 C 
BRANCH  23  25
ATOM     24  O   UNL     1      30.967 -22.127 -15.995  0.00  0.00    -0.268 OA
ATOM     25  N   UNL     1      33.181 -22.830 -15.916  0.00  0.00    -0.173 N 
ATOM     26  N   UNL     1      34.255 -23.245 -15.182  0.00  0.00    -0.175 NA
ATOM     27  C   UNL     1      34.117 -23.352 -13.900  0.00  0.00    +0.099 C 
ATOM     28  C   UNL     1      31.949 -22.515 -15.362  0.00  0.00    +0.268 C 
ATOM     29  C   UNL     1      32.865 -23.078 -13.169  0.00  0.00    +0.025 C 
ATOM     30  C   UNL     1      31.827 -22.672 -13.897  0.00  0.00    +0.061 C 
BRANCH  27  31
ATOM     31  C   UNL     1      35.281 -23.798 -13.089  0.00  0.00    +0.020 C 
ATOM     32  C   UNL     1      36.326 -24.497 -13.693  0.00  0.00    +0.012 C 
ATOM     33  C   UNL     1      35.328 -23.516 -11.723  0.00  0.00    +0.002 C 
ATOM     34  C   UNL     1      37.418 -24.915 -12.932  0.00  0.00    +0.068 C 
ATOM     35  C   UNL     1      36.420 -23.933 -10.962  0.00  0.00    +0.001 C 
ATOM     36  C   UNL     1      37.465 -24.632 -11.566  0.00  0.00    +0.010 C 
BRANCH  34  38
ATOM     37  N   UNL     1      39.358 -26.214 -14.052  0.00  0.00    -0.191 NA
ATOM     38  C   UNL     1      38.488 -25.632 -13.550  0.00  0.00    +0.100 C 
ENDBRANCH  34  38
ENDBRANCH  27  31
ENDBRANCH  23  25
ENDBRANCH   2  23
TORSDOF 8
ENDMDL
MODEL 3
REMARK VINA RESULT:     -13.0      1.992      3.937
REMARK  Name = 25171648
REMARK  8 active torsions:
REMARK  status: ('A' for Active; 'I' for Inactive)
REMARK    1  A    between atoms: C_1  and  C_12
REMARK    2  A    between atoms: C_2  and  C_23
REMARK    3  A    between atoms: C_9  and  O_13
REMARK    4  A    between atoms: O_13  and  C_14
REMARK    5  A    between atoms: C_14  and  C_16
REMARK    6  A    between atoms: C_23  and  N_25
REMARK    7  A    between atoms: C_27  and  C_31
REMARK    8  A    between atoms: C_34  and  C_38
REMARK                            x       y       z     vdW  Elec       q    Type
REMARK                         _______ _______ _______ _____ _____    ______ ____
ROOT
ATOM      1  C   UNL     1      34.688 -19.324 -19.929  0.00  0.00    +0.062 C 
ATOM      2  C   UNL     1      35.491 -21.051 -18.441  0.00  0.00    +0.000 C 
ATOM      3  C   UNL     1      35.733 -19.920 -19.222  0.00  0.00    +0.007 C 
ATOM      4  C   UNL     1      33.402 -19.859 -19.855  0.00  0.00    +0.010 C 
ATOM      5  C   UNL     1      34.205 -21.585 -18.368  0.00  0.00    -0.003 C 
ATOM      6  C   UNL     1      33.160 -20.989 -19.074  0.00  0.00    +0.000 C 
ENDROOT
BRANCH   1  12
ATOM      7  N   UNL     1      35.103 -16.996 -20.075  0.00  0.00    -0.212 NA
ATOM      8  N   UNL     1      34.984 -18.346 -22.068  0.00  0.00    -0.190 NA
ATOM      9  C   UNL     1      35.406 -15.982 -22.238  0.00  0.00    +0.161 C 
ATOM     10  C   UNL     1      35.336 -15.924 -20.861  0.00  0.00    +0.201 C 
ATOM     11  C   UNL     1      35.221 -17.233 -22.792  0.00  0.00    +0.144 C 
ATOM     12  C   UNL     1      34.939 -18.158 -20.735  0.00  0.00    +0.031 C 
BRANCH   9  13
ATOM     13  O   UNL     1      35.645 -14.870 -23.006  0.00  0.00    -0.476 OA
BRANCH  13  14
ATOM     14  C   UNL     1      34.519 -14.205 -23.546  0.00  0.00    +0.205 C 
BRANCH  14  16
ATOM     15  N   UNL     1      32.608 -10.604 -22.118  0.00  0.00    +0.386 N 
ATOM     16  C   UNL     1      34.294 -12.915 -22.763  0.00  0.00    +0.040 C 
ATOM     17  C   UNL     1      33.056 -13.024 -21.865  0.00  0.00    -0.019 C 
ATOM     18  C   UNL     1      34.144 -11.717 -23.706  0.00  0.00    -0.019 C 
ATOM     19  C   UNL     1      32.766 -11.702 -21.153  0.00  0.00    -0.077 C 
ATOM     20  C   UNL     1      33.819 -10.437 -22.933  0.00  0.00    -0.077 C 
ATOM     21  C   UNL     1      32.281  -9.358 -21.425  0.00  0.00    -0.101 C 
ATOM     22  H   UNL     1      31.838 -10.843 -22.742  0.00  0.00    -0.080 HD
ENDBRANCH  14  16
ENDBRANCH  13  14
ENDBRANCH   9  13
ENDBRANCH   1  12
BRANCH   2  23
ATOM     23  C   UNL     1      36.607 -21.689 -17.685  0.00  0.00    +0.146 C 
BRANCH  23  25
ATOM     24  O   UNL     1      38.348 -21.568 -15.412  0.00  0.00    -0.268 OA
ATOM     25  N   UNL     1      36.245 -21.983 -16.309  0.00  0.00    -0.173 N 
ATOM     26  N   UNL     1      34.944 -22.359 -16.128  0.00  0.00    -0.175 NA
ATOM     27  C   UNL     1      34.551 -22.644 -14.928  0.00  0.00    +0.099 C 
ATOM     28  C   UNL     1      37.168 -21.892 -15.278  0.00  0.00    +0.268 C 
ATOM     29  C   UNL     1      35.406 -22.569 -13.729  0.00  0.00    +0.025 C 
ATOM     30  C   UNL     1      36.672 -22.204 -13.921  0.00  0.00    +0.061 C 
BRANCH  27  31
ATOM     31  C   UNL     1      33.138 -23.059 -14.718  0.00  0.00    +0.020 C 
ATOM     32  C   UNL     1      32.114 -22.438 -15.433  0.00  0.00    +0.012 C 
ATOM     33  C   UNL     1      32.838 -24.072 -13.807  0.00  0.00    +0.002 C 
ATOM     34  C   UNL     1      30.790 -22.829 -15.236  0.00  0.00    +0.068 C 
ATOM     35  C   UNL     1      31.513 -24.463 -13.609  0.00  0.00    +0.001 C 
ATOM     36  C   UNL     1      30.489 -23.841 -14.324  0.00  0.00    +0.010 C 
BRANCH  34  38
ATOM     37  N   UNL     1      28.887 -21.675 -16.561  0.00  0.00    -0.191 NA
ATOM     38  C   UNL     1      29.740 -22.192 -15.967  0.00  0.00    +0.100 C 
ENDBRANCH  34  38
ENDBRANCH  27  31
ENDBRANCH  23  25
ENDBRANCH   2  23
TORSDOF 8
ENDMDL
MODEL 4
REMARK VINA RESULT:     -12.9      2.161      4.252
REMARK  Name = 25171648
REMARK  8 active torsions:
REMARK  status: ('A' for Active; 'I' for Inactive)
REMARK    1  A    between atoms: C_1  and  C_12
REMARK    2  A    between atoms: C_2  and  C_23
REMARK    3  A    between atoms: C_9  and  O_13
REMARK    4  A    between atoms: O_13  and  C_14
REMARK    5  A    between atoms: C_14  and  C_16
REMARK    6  A    between atoms: C_23  and  N_25
REMARK    7  A    between atoms: C_27  and  C_31
REMARK    8  A    between atoms: C_34  and  C_38
REMARK                            x       y       z     vdW  Elec       q    Type
REMARK                         _______ _______ _______ _____ _____    ______ ____
ROOT
ATOM      1  C   UNL     1      35.048 -20.071 -19.504  0.00  0.00    +0.062 C 
ATOM      2  C   UNL     1      35.905 -21.218 -17.557  0.00  0.00    +0.000 C 
ATOM      3  C   UNL     1      36.048 -20.244 -18.546  0.00  0.00    +0.007 C 
ATOM      4  C   UNL     1      33.907 -20.872 -19.472  0.00  0.00    +0.010 C 
ATOM      5  C   UNL     1      34.764 -22.019 -17.526  0.00  0.00    -0.003 C 
ATOM      6  C   UNL     1      33.764 -21.845 -18.483  0.00  0.00    +0.000 C 
ENDROOT
BRANCH   1  12
ATOM      7  N   UNL     1      35.981 -18.016 -20.224  0.00  0.00    -0.212 NA
ATOM      8  N   UNL     1      34.534 -19.279 -21.678  0.00  0.00    -0.190 NA
ATOM      9  C   UNL     1      35.471 -17.193 -22.428  0.00  0.00    +0.161 C 
ATOM     10  C   UNL     1      36.097 -17.094 -21.203  0.00  0.00    +0.201 C 
ATOM     11  C   UNL     1      34.694 -18.319 -22.612  0.00  0.00    +0.144 C 
ATOM     12  C   UNL     1      35.196 -19.066 -20.524  0.00  0.00    +0.031 C 
BRANCH   9  13
ATOM     13  O   UNL     1      35.612 -16.235 -23.402  0.00  0.00    -0.476 OA
BRANCH  13  14
ATOM     14  C   UNL     1      34.476 -15.953 -24.197  0.00  0.00    +0.205 C 
BRANCH  14  16
ATOM     15  N   UNL     1      34.449 -11.671 -23.630  0.00  0.00    +0.386 N 
ATOM     16  C   UNL     1      33.972 -14.556 -23.846  0.00  0.00    +0.040 C 
ATOM     17  C   UNL     1      34.010 -13.634 -25.070  0.00  0.00    -0.019 C 
ATOM     18  C   UNL     1      34.796 -13.941 -22.710  0.00  0.00    -0.019 C 
ATOM     19  C   UNL     1      33.601 -12.206 -24.705  0.00  0.00    -0.077 C 
ATOM     20  C   UNL     1      34.361 -12.503 -22.422  0.00  0.00    -0.077 C 
ATOM     21  C   UNL     1      34.079 -10.288 -23.328  0.00  0.00    -0.101 C 
ATOM     22  H   UNL     1      35.415 -11.688 -23.955  0.00  0.00    -0.080 HD
ENDBRANCH  14  16
ENDBRANCH  13  14
ENDBRANCH   9  13
ENDBRANCH   1  12
BRANCH   2  23
ATOM     23  C   UNL     1      36.974 -21.404 -16.533  0.00  0.00    +0.146 C 
BRANCH  23  25
ATOM     24  O   UNL     1      38.729 -22.966 -14.892  0.00  0.00    -0.268 OA
ATOM     25  N   UNL     1      36.575 -22.322 -15.479  0.00  0.00    -0.173 N 
ATOM     26  N   UNL     1      35.226 -22.427 -15.293  0.00  0.00    -0.175 NA
ATOM     27  C   UNL     1      34.796 -23.232 -14.375  0.00  0.00    +0.099 C 
ATOM     28  C   UNL     1      37.510 -23.031 -14.739  0.00  0.00    +0.268 C 
ATOM     29  C   UNL     1      35.664 -24.032 -13.492  0.00  0.00    +0.025 C 
ATOM     30  C   UNL     1      36.977 -23.921 -13.687  0.00  0.00    +0.061 C 
BRANCH  27  31
ATOM     31  C   UNL     1      33.329 -23.359 -14.165  0.00  0.00    +0.020 C 
ATOM     32  C   UNL     1      32.441 -22.787 -15.077  0.00  0.00    +0.012 C 
ATOM     33  C   UNL     1      32.840 -24.052 -13.057  0.00  0.00    +0.002 C 
ATOM     34  C   UNL     1      31.065 -22.907 -14.879  0.00  0.00    +0.068 C 
ATOM     35  C   UNL     1      31.465 -24.172 -12.860  0.00  0.00    +0.001 C 
ATOM     36  C   UNL     1      30.577 -23.600 -13.771  0.00  0.00    +0.010 C 
BRANCH  34  38
ATOM     37  N   UNL     1      29.416 -21.844 -16.569  0.00  0.00    -0.191 NA
ATOM     38  C   UNL     1      30.155 -22.321 -15.812  0.00  0.00    +0.100 C 
ENDBRANCH  34  38
ENDBRANCH  27  31
ENDBRANCH  23  25
ENDBRANCH   2  23
TORSDOF 8
ENDMDL
MODEL 5
REMARK VINA RESULT:     -12.9      3.908      8.197
REMARK  Name = 25171648
REMARK  8 active torsions:
REMARK  status: ('A' for Active; 'I' for Inactive)
REMARK    1  A    between atoms: C_1  and  C_12
REMARK    2  A    between atoms: C_2  and  C_23
REMARK    3  A    between atoms: C_9  and  O_13
REMARK    4  A    between atoms: O_13  and  C_14
REMARK    5  A    between atoms: C_14  and  C_16
REMARK    6  A    between atoms: C_23  and  N_25
REMARK    7  A    between atoms: C_27  and  C_31
REMARK    8  A    between atoms: C_34  and  C_38
REMARK                            x       y       z     vdW  Elec       q    Type
REMARK                         _______ _______ _______ _____ _____    ______ ____
ROOT
ATOM      1  C   UNL     1      33.234 -12.010 -21.536  0.00  0.00    +0.062 C 
ATOM      2  C   UNL     1      34.584 -13.940 -22.076  0.00  0.00    +0.000 C 
ATOM      3  C   UNL     1      34.087 -12.680 -22.413  0.00  0.00    +0.007 C 
ATOM      4  C   UNL     1      32.879 -12.599 -20.322  0.00  0.00    +0.010 C 
ATOM      5  C   UNL     1      34.229 -14.528 -20.863  0.00  0.00    -0.003 C 
ATOM      6  C   UNL     1      33.377 -13.857 -19.985  0.00  0.00    +0.000 C 
ENDROOT
BRANCH   1  12
ATOM      7  N   UNL     1      33.317 -10.086 -22.916  0.00  0.00    -0.212 NA
ATOM      8  N   UNL     1      31.695 -10.251 -21.141  0.00  0.00    -0.190 NA
ATOM      9  C   UNL     1      31.762  -8.287 -22.532  0.00  0.00    +0.161 C 
ATOM     10  C   UNL     1      32.810  -8.871 -23.214  0.00  0.00    +0.201 C 
ATOM     11  C   UNL     1      31.238  -9.032 -21.494  0.00  0.00    +0.144 C 
ATOM     12  C   UNL     1      32.721 -10.710 -21.883  0.00  0.00    +0.031 C 
BRANCH   9  13
ATOM     13  O   UNL     1      31.272  -7.049 -22.864  0.00  0.00    -0.476 OA
BRANCH  13  14
ATOM     14  C   UNL     1      31.787  -5.940 -22.151  0.00  0.00    +0.205 C 
BRANCH  14  16
ATOM     15  N   UNL     1      32.124  -2.884 -25.184  0.00  0.00    +0.386 N 
ATOM     16  C   UNL     1      32.418  -4.972 -23.146  0.00  0.00    +0.040 C 
ATOM     17  C   UNL     1      32.075  -3.520 -22.794  0.00  0.00    -0.019 C 
ATOM     18  C   UNL     1      31.964  -5.277 -24.577  0.00  0.00    -0.019 C 
ATOM     19  C   UNL     1      32.621  -2.548 -23.842  0.00  0.00    -0.077 C 
ATOM     20  C   UNL     1      32.514  -4.248 -25.567  0.00  0.00    -0.077 C 
ATOM     21  C   UNL     1      32.613  -1.917 -26.167  0.00  0.00    -0.101 C 
ATOM     22  H   UNL     1      31.106  -2.842 -25.162  0.00  0.00    -0.080 HD
ENDBRANCH  14  16
ENDBRANCH  13  14
ENDBRANCH   9  13
ENDBRANCH   1  12
BRANCH   2  23
ATOM     23  C   UNL     1      35.496 -14.657 -23.014  0.00  0.00    +0.146 C 
BRANCH  23  25
ATOM     24  O   UNL     1      34.303 -15.831 -25.341  0.00  0.00    -0.268 OA
ATOM     25  N   UNL     1      35.129 -16.054 -23.180  0.00  0.00    -0.173 N 
ATOM     26  N   UNL     1      35.385 -16.845 -22.096  0.00  0.00    -0.175 NA
ATOM     27  C   UNL     1      35.077 -18.100 -22.169  0.00  0.00    +0.099 C 
ATOM     28  C   UNL     1      34.557 -16.521 -24.353  0.00  0.00    +0.268 C 
ATOM     29  C   UNL     1      34.488 -18.749 -23.355  0.00  0.00    +0.025 C 
ATOM     30  C   UNL     1      34.242 -17.964 -24.402  0.00  0.00    +0.061 C 
BRANCH  27  31
ATOM     31  C   UNL     1      35.346 -18.971 -20.994  0.00  0.00    +0.020 C 
ATOM     32  C   UNL     1      34.290 -19.596 -20.331  0.00  0.00    +0.012 C 
ATOM     33  C   UNL     1      36.657 -19.165 -20.555  0.00  0.00    +0.002 C 
ATOM     34  C   UNL     1      34.544 -20.413 -19.229  0.00  0.00    +0.068 C 
ATOM     35  C   UNL     1      36.911 -19.983 -19.454  0.00  0.00    +0.001 C 
ATOM     36  C   UNL     1      35.854 -20.607 -18.791  0.00  0.00    +0.010 C 
BRANCH  34  38
ATOM     37  N   UNL     1      32.583 -21.571 -17.996  0.00  0.00    -0.191 NA
ATOM     38  C   UNL     1      33.461 -21.052 -18.548  0.00  0.00    +0.100 C 
ENDBRANCH  34  38
ENDBRANCH  27  31
ENDBRANCH  23  25
ENDBRANCH   2  23
TORSDOF 8
ENDMDL
MODEL 6
REMARK VINA RESULT:     -12.8      2.181     12.360
REMARK  Name = 25171648
REMARK  8 active torsions:
REMARK  status: ('A' for Active; 'I' for Inactive)
REMARK    1  A    between atoms: C_1  and  C_12
REMARK    2  A    between atoms: C_2  and  C_23
REMARK    3  A    between atoms: C_9  and  O_13
REMARK    4  A    between atoms: O_13  and  C_14
REMARK    5  A    between atoms: C_14  and  C_16
REMARK    6  A    between atoms: C_23  and  N_25
REMARK    7  A    between atoms: C_27  and  C_31
REMARK    8  A    between atoms: C_34  and  C_38
REMARK                            x       y       z     vdW  Elec       q    Type
REMARK                         _______ _______ _______ _____ _____    ______ ____
ROOT
ATOM      1  C   UNL     1      34.954 -18.444 -20.728  0.00  0.00    +0.062 C 
ATOM      2  C   UNL     1      35.232 -16.053 -20.942  0.00  0.00    +0.000 C 
ATOM      3  C   UNL     1      35.047 -17.181 -20.142  0.00  0.00    +0.007 C 
ATOM      4  C   UNL     1      35.045 -18.577 -22.114  0.00  0.00    +0.010 C 
ATOM      5  C   UNL     1      35.323 -16.187 -22.327  0.00  0.00    -0.003 C 
ATOM      6  C   UNL     1      35.231 -17.449 -22.913  0.00  0.00    +0.000 C 
ENDROOT
BRANCH   1  12
ATOM      7  N   UNL     1      35.867 -20.136 -19.344  0.00  0.00    -0.212 NA
ATOM      8  N   UNL     1      33.497 -20.052 -19.773  0.00  0.00    -0.190 NA
ATOM      9  C   UNL     1      34.405 -21.779 -18.364  0.00  0.00    +0.161 C 
ATOM     10  C   UNL     1      35.651 -21.225 -18.577  0.00  0.00    +0.201 C 
ATOM     11  C   UNL     1      33.354 -21.143 -18.993  0.00  0.00    +0.144 C 
ATOM     12  C   UNL     1      34.763 -19.608 -19.903  0.00  0.00    +0.031 C 
BRANCH   9  13
ATOM     13  O   UNL     1      34.223 -22.888 -17.576  0.00  0.00    -0.476 OA
BRANCH  13  14
ATOM     14  C   UNL     1      33.496 -22.713 -16.375  0.00  0.00    +0.205 C 
BRANCH  14  16
ATOM     15  N   UNL     1      35.618 -22.667 -12.613  0.00  0.00    +0.386 N 
ATOM     16  C   UNL     1      34.359 -23.187 -15.210  0.00  0.00    +0.040 C 
ATOM     17  C   UNL     1      33.566 -23.177 -13.898  0.00  0.00    -0.019 C 
ATOM     18  C   UNL     1      35.613 -22.319 -15.063  0.00  0.00    -0.019 C 
ATOM     19  C   UNL     1      34.451 -23.556 -12.709  0.00  0.00    -0.077 C 
ATOM     20  C   UNL     1      36.431 -22.727 -13.835  0.00  0.00    -0.077 C 
ATOM     21  C   UNL     1      36.427 -23.009 -11.443  0.00  0.00    -0.101 C 
ATOM     22  H   UNL     1      35.278 -21.712 -12.508  0.00  0.00    -0.080 HD
ENDBRANCH  14  16
ENDBRANCH  13  14
ENDBRANCH   9  13
ENDBRANCH   1  12
BRANCH   2  23
ATOM     23  C   UNL     1      35.332 -14.703 -20.315  0.00  0.00    +0.146 C 
BRANCH  23  25
ATOM     24  O   UNL     1      32.761 -14.359 -19.097  0.00  0.00    -0.268 OA
ATOM     25  N   UNL     1      34.281 -13.806 -20.766  0.00  0.00    -0.173 N 
ATOM     26  N   UNL     1      34.585 -13.085 -21.885  0.00  0.00    -0.175 NA
ATOM     27  C   UNL     1      33.693 -12.270 -22.350  0.00  0.00    +0.099 C 
ATOM     28  C   UNL     1      33.068 -13.714 -20.099  0.00  0.00    +0.268 C 
ATOM     29  C   UNL     1      32.370 -12.044 -21.739  0.00  0.00    +0.025 C 
ATOM     30  C   UNL     1      32.087 -12.755 -20.650  0.00  0.00    +0.061 C 
BRANCH  27  31
ATOM     31  C   UNL     1      34.010 -11.483 -23.571  0.00  0.00    +0.020 C 
ATOM     32  C   UNL     1      34.473 -10.173 -23.457  0.00  0.00    +0.012 C 
ATOM     33  C   UNL     1      33.845 -12.057 -24.832  0.00  0.00    +0.002 C 
ATOM     34  C   UNL     1      34.771  -9.436 -24.604  0.00  0.00    +0.068 C 
ATOM     35  C   UNL     1      34.143 -11.320 -25.979  0.00  0.00    +0.001 C 
ATOM     36  C   UNL     1      34.606 -10.010 -25.865  0.00  0.00    +0.010 C 
BRANCH  34  38
ATOM     37  N   UNL     1      35.629  -7.001 -24.393  0.00  0.00    -0.191 NA
ATOM     38  C   UNL     1      35.244  -8.092 -24.487  0.00  0.00    +0.100 C 
ENDBRANCH  34  38
ENDBRANCH  27  31
ENDBRANCH  23  25
ENDBRANCH   2  23
TORSDOF 8
ENDMDL
MODEL 7
REMARK VINA RESULT:     -12.7      3.460     14.291
REMARK  Name = 25171648
REMARK  8 active torsions:
REMARK  status: ('A' for Active; 'I' for Inactive)
REMARK    1  A    between atoms: C_1  and  C_12
REMARK    2  A    between atoms: C_2  and  C_23
REMARK    3  A    between atoms: C_9  and  O_13
REMARK    4  A    between atoms: O_13  and  C_14
REMARK    5  A    between atoms: C_14  and  C_16
REMARK    6  A    between atoms: C_23  and  N_25
REMARK    7  A    between atoms: C_27  and  C_31
REMARK    8  A    between atoms: C_34  and  C_38
REMARK                            x       y       z     vdW  Elec       q    Type
REMARK                         _______ _______ _______ _____ _____    ______ ____
ROOT
ATOM      1  C   UNL     1      33.987 -12.405 -22.203  0.00  0.00    +0.062 C 
ATOM      2  C   UNL     1      32.504 -10.502 -22.070  0.00  0.00    +0.000 C 
ATOM      3  C   UNL     1      32.951 -11.723 -21.565  0.00  0.00    +0.007 C 
ATOM      4  C   UNL     1      34.575 -11.865 -23.347  0.00  0.00    +0.010 C 
ATOM      5  C   UNL     1      33.093  -9.963 -23.214  0.00  0.00    -0.003 C 
ATOM      6  C   UNL     1      34.129 -10.644 -23.852  0.00  0.00    +0.000 C 
ENDROOT
BRANCH   1  12
ATOM      7  N   UNL     1      34.379 -13.825 -20.347  0.00  0.00    -0.212 NA
ATOM      8  N   UNL     1      34.903 -14.558 -22.582  0.00  0.00    -0.190 NA
ATOM      9  C   UNL     1      35.309 -16.016 -20.710  0.00  0.00    +0.161 C 
ATOM     10  C   UNL     1      34.819 -15.017 -19.893  0.00  0.00    +0.201 C 
ATOM     11  C   UNL     1      35.327 -15.727 -22.060  0.00  0.00    +0.144 C 
ATOM     12  C   UNL     1      34.449 -13.665 -21.682  0.00  0.00    +0.031 C 
BRANCH   9  13
ATOM     13  O   UNL     1      35.747 -17.218 -20.213  0.00  0.00    -0.476 OA
BRANCH  13  14
ATOM     14  C   UNL     1      35.977 -18.255 -21.147  0.00  0.00    +0.205 C 
BRANCH  14  16
ATOM     15  N   UNL     1      34.234 -21.038 -18.341  0.00  0.00    +0.386 N 
ATOM     16  C   UNL     1      35.422 -19.556 -20.574  0.00  0.00    +0.040 C 
ATOM     17  C   UNL     1      33.952 -19.397 -20.171  0.00  0.00    -0.019 C 
ATOM     18  C   UNL     1      36.243 -20.022 -19.366  0.00  0.00    -0.019 C 
ATOM     19  C   UNL     1      33.417 -20.666 -19.504  0.00  0.00    -0.077 C 
ATOM     20  C   UNL     1      35.632 -21.271 -18.727  0.00  0.00    -0.077 C 
ATOM     21  C   UNL     1      33.680 -22.223 -17.684  0.00  0.00    -0.101 C 
ATOM     22  H   UNL     1      34.214 -20.260 -17.682  0.00  0.00    -0.080 HD
ENDBRANCH  14  16
ENDBRANCH  13  14
ENDBRANCH   9  13
ENDBRANCH   1  12
BRANCH   2  23
ATOM     23  C   UNL     1      31.396  -9.773 -21.388  0.00  0.00    +0.146 C 
BRANCH  23  25
ATOM     24  O   UNL     1      32.280  -9.504 -18.675  0.00  0.00    -0.268 OA
ATOM     25  N   UNL     1      31.851  -8.549 -20.750  0.00  0.00    -0.173 N 
ATOM     26  N   UNL     1      31.829  -7.443 -21.552  0.00  0.00    -0.175 NA
ATOM     27  C   UNL     1      32.214  -6.315 -21.049  0.00  0.00    +0.099 C 
ATOM     28  C   UNL     1      32.261  -8.528 -19.425  0.00  0.00    +0.268 C 
ATOM     29  C   UNL     1      32.701  -6.138 -19.668  0.00  0.00    +0.025 C 
ATOM     30  C   UNL     1      32.714  -7.224 -18.897  0.00  0.00    +0.061 C 
BRANCH  27  31
ATOM     31  C   UNL     1      32.190  -5.103 -21.910  0.00  0.00    +0.020 C 
ATOM     32  C   UNL     1      32.484  -5.207 -23.270  0.00  0.00    +0.012 C 
ATOM     33  C   UNL     1      31.873  -3.861 -21.358  0.00  0.00    +0.002 C 
ATOM     34  C   UNL     1      32.461  -4.069 -24.077  0.00  0.00    +0.068 C 
ATOM     35  C   UNL     1      31.850  -2.723 -22.165  0.00  0.00    +0.001 C 
ATOM     36  C   UNL     1      32.144  -2.827 -23.525  0.00  0.00    +0.010 C 
BRANCH  34  38
ATOM     37  N   UNL     1      33.009  -4.260 -26.601  0.00  0.00    -0.191 NA
ATOM     38  C   UNL     1      32.763  -4.174 -25.470  0.00  0.00    +0.100 C 
ENDBRANCH  34  38
ENDBRANCH  27  31
ENDBRANCH  23  25
ENDBRANCH   2  23
TORSDOF 8
ENDMDL
MODEL 8
REMARK VINA RESULT:     -12.3      3.180     13.688
REMARK  Name = 25171648
REMARK  8 active torsions:
REMARK  status: ('A' for Active; 'I' for Inactive)
REMARK    1  A    between atoms: C_1  and  C_12
REMARK    2  A    between atoms: C_2  and  C_23
REMARK    3  A    between atoms: C_9  and  O_13
REMARK    4  A    between atoms: O_13  and  C_14
REMARK    5  A    between atoms: C_14  and  C_16
REMARK    6  A    between atoms: C_23  and  N_25
REMARK    7  A    between atoms: C_27  and  C_31
REMARK    8  A    between atoms: C_34  and  C_38
REMARK                            x       y       z     vdW  Elec       q    Type
REMARK                         _______ _______ _______ _____ _____    ______ ____
ROOT
ATOM      1  C   UNL     1      33.986 -13.306 -21.732  0.00  0.00    +0.062 C 
ATOM      2  C   UNL     1      33.505 -11.486 -23.247  0.00  0.00    +0.000 C 
ATOM      3  C   UNL     1      34.118 -12.713 -22.988  0.00  0.00    +0.007 C 
ATOM      4  C   UNL     1      33.243 -12.673 -20.736  0.00  0.00    +0.010 C 
ATOM      5  C   UNL     1      32.762 -10.854 -22.251  0.00  0.00    -0.003 C 
ATOM      6  C   UNL     1      32.630 -11.448 -20.996  0.00  0.00    +0.000 C 
ENDROOT
BRANCH   1  12
ATOM      7  N   UNL     1      34.772 -14.906 -20.171  0.00  0.00    -0.212 NA
ATOM      8  N   UNL     1      34.992 -15.296 -22.538  0.00  0.00    -0.190 NA
ATOM      9  C   UNL     1      35.797 -16.933 -20.968  0.00  0.00    +0.161 C 
ATOM     10  C   UNL     1      35.368 -16.098 -19.957  0.00  0.00    +0.201 C 
ATOM     11  C   UNL     1      35.579 -16.476 -22.252  0.00  0.00    +0.144 C 
ATOM     12  C   UNL     1      34.618 -14.572 -21.465  0.00  0.00    +0.031 C 
BRANCH   9  13
ATOM     13  O   UNL     1      36.398 -18.141 -20.714  0.00  0.00    -0.476 OA
BRANCH  13  14
ATOM     14  C   UNL     1      35.636 -19.306 -20.966  0.00  0.00    +0.205 C 
BRANCH  14  16
ATOM     15  N   UNL     1      33.933 -21.997 -18.048  0.00  0.00    +0.386 N 
ATOM     16  C   UNL     1      35.076 -19.817 -19.643  0.00  0.00    +0.040 C 
ATOM     17  C   UNL     1      35.926 -20.969 -19.094  0.00  0.00    -0.019 C 
ATOM     18  C   UNL     1      33.623 -20.276 -19.799  0.00  0.00    -0.019 C 
ATOM     19  C   UNL     1      35.315 -21.554 -17.819  0.00  0.00    -0.077 C 
ATOM     20  C   UNL     1      33.088 -20.883 -18.500  0.00  0.00    -0.077 C 
ATOM     21  C   UNL     1      33.381 -22.600 -16.835  0.00  0.00    -0.101 C 
ATOM     22  H   UNL     1      33.948 -22.701 -18.786  0.00  0.00    -0.080 HD
ENDBRANCH  14  16
ENDBRANCH  13  14
ENDBRANCH   9  13
ENDBRANCH   1  12
BRANCH   2  23
ATOM     23  C   UNL     1      33.645 -10.850 -24.589  0.00  0.00    +0.146 C 
BRANCH  23  25
ATOM     24  O   UNL     1      36.056  -9.963 -25.860  0.00  0.00    -0.268 OA
ATOM     25  N   UNL     1      34.217  -9.516 -24.511  0.00  0.00    -0.173 N 
ATOM     26  N   UNL     1      33.511  -8.636 -23.742  0.00  0.00    -0.175 NA
ATOM     27  C   UNL     1      33.964  -7.430 -23.620  0.00  0.00    +0.099 C 
ATOM     28  C   UNL     1      35.393  -9.189 -25.170  0.00  0.00    +0.268 C 
ATOM     29  C   UNL     1      35.184  -6.925 -24.277  0.00  0.00    +0.025 C 
ATOM     30  C   UNL     1      35.863  -7.795 -25.022  0.00  0.00    +0.061 C 
BRANCH  27  31
ATOM     31  C   UNL     1      33.207  -6.463 -22.780  0.00  0.00    +0.020 C 
ATOM     32  C   UNL     1      33.255  -6.560 -21.389  0.00  0.00    +0.012 C 
ATOM     33  C   UNL     1      32.451  -5.458 -23.384  0.00  0.00    +0.002 C 
ATOM     34  C   UNL     1      32.545  -5.652 -20.603  0.00  0.00    +0.068 C 
ATOM     35  C   UNL     1      31.741  -4.550 -22.597  0.00  0.00    +0.001 C 
ATOM     36  C   UNL     1      31.789  -4.647 -21.207  0.00  0.00    +0.010 C 
BRANCH  34  38
ATOM     37  N   UNL     1      32.630  -5.832 -18.020  0.00  0.00    -0.191 NA
ATOM     38  C   UNL     1      32.592  -5.752 -19.178  0.00  0.00    +0.100 C 
ENDBRANCH  34  38
ENDBRANCH  27  31
ENDBRANCH  23  25
ENDBRANCH   2  23
TORSDOF 8
ENDMDL
MODEL 9
REMARK VINA RESULT:     -12.3      3.491      7.396
REMARK  Name = 25171648
REMARK  8 active torsions:
REMARK  status: ('A' for Active; 'I' for Inactive)
REMARK    1  A    between atoms: C_1  and  C_12
REMARK    2  A    between atoms: C_2  and  C_23
REMARK    3  A    between atoms: C_9  and  O_13
REMARK    4  A    between atoms: O_13  and  C_14
REMARK    5  A    between atoms: C_14  and  C_16
REMARK    6  A    between atoms: C_23  and  N_25
REMARK    7  A    between atoms: C_27  and  C_31
REMARK    8  A    between atoms: C_34  and  C_38
REMARK                            x       y       z     vdW  Elec       q    Type
REMARK                         _______ _______ _______ _____ _____    ______ ____
ROOT
ATOM      1  C   UNL     1      33.057 -12.279 -21.176  0.00  0.00    +0.062 C 
ATOM      2  C   UNL     1      34.514 -14.206 -21.136  0.00  0.00    +0.000 C 
ATOM      3  C   UNL     1      34.143 -12.983 -21.696  0.00  0.00    +0.007 C 
ATOM      4  C   UNL     1      32.341 -12.799 -20.097  0.00  0.00    +0.010 C 
ATOM      5  C   UNL     1      33.798 -14.725 -20.058  0.00  0.00    -0.003 C 
ATOM      6  C   UNL     1      32.712 -14.021 -19.538  0.00  0.00    +0.000 C 
ENDROOT
BRANCH   1  12
ATOM      7  N   UNL     1      31.611 -10.402 -21.204  0.00  0.00    -0.212 NA
ATOM      8  N   UNL     1      33.420 -10.577 -22.785  0.00  0.00    -0.190 NA
ATOM      9  C   UNL     1      31.962  -8.662 -22.830  0.00  0.00    +0.161 C 
ATOM     10  C   UNL     1      31.281  -9.222 -21.769  0.00  0.00    +0.201 C 
ATOM     11  C   UNL     1      33.035  -9.391 -23.301  0.00  0.00    +0.144 C 
ATOM     12  C   UNL     1      32.674 -11.016 -21.753  0.00  0.00    +0.031 C 
BRANCH   9  13
ATOM     13  O   UNL     1      31.598  -7.458 -23.380  0.00  0.00    -0.476 OA
BRANCH  13  14
ATOM     14  C   UNL     1      32.602  -6.465 -23.478  0.00  0.00    +0.205 C 
BRANCH  14  16
ATOM     15  N   UNL     1      32.257  -5.798 -19.224  0.00  0.00    +0.386 N 
ATOM     16  C   UNL     1      32.776  -5.811 -22.110  0.00  0.00    +0.040 C 
ATOM     17  C   UNL     1      33.500  -6.751 -21.139  0.00  0.00    -0.019 C 
ATOM     18  C   UNL     1      31.423  -5.401 -21.520  0.00  0.00    -0.019 C 
ATOM     19  C   UNL     1      33.590  -6.143 -19.738  0.00  0.00    -0.077 C 
ATOM     20  C   UNL     1      31.581  -4.836 -20.106  0.00  0.00    -0.077 C 
ATOM     21  C   UNL     1      32.354  -5.266 -17.865  0.00  0.00    -0.101 C 
ATOM     22  H   UNL     1      31.698  -6.651 -19.202  0.00  0.00    -0.080 HD
ENDBRANCH  14  16
ENDBRANCH  13  14
ENDBRANCH   9  13
ENDBRANCH   1  12
BRANCH   2  23
ATOM     23  C   UNL     1      35.675 -14.960 -21.692  0.00  0.00    +0.146 C 
BRANCH  23  25
ATOM     24  O   UNL     1      34.748 -15.863 -24.249  0.00  0.00    -0.268 OA
ATOM     25  N   UNL     1      35.328 -16.326 -22.046  0.00  0.00    -0.173 N 
ATOM     26  N   UNL     1      35.462 -17.231 -21.033  0.00  0.00    -0.175 NA
ATOM     27  C   UNL     1      35.164 -18.467 -21.273  0.00  0.00    +0.099 C 
ATOM     28  C   UNL     1      34.890 -16.658 -23.320  0.00  0.00    +0.268 C 
ATOM     29  C   UNL     1      34.709 -18.978 -22.580  0.00  0.00    +0.025 C 
ATOM     30  C   UNL     1      34.582 -18.084 -23.557  0.00  0.00    +0.061 C 
BRANCH  27  31
ATOM     31  C   UNL     1      35.300 -19.462 -20.175  0.00  0.00    +0.020 C 
ATOM     32  C   UNL     1      34.162 -20.007 -19.582  0.00  0.00    +0.012 C 
ATOM     33  C   UNL     1      36.568 -19.851 -19.741  0.00  0.00    +0.002 C 
ATOM     34  C   UNL     1      34.291 -20.940 -18.553  0.00  0.00    +0.068 C 
ATOM     35  C   UNL     1      36.697 -20.784 -18.712  0.00  0.00    +0.001 C 
ATOM     36  C   UNL     1      35.559 -21.329 -18.118  0.00  0.00    +0.010 C 
BRANCH  34  38
ATOM     37  N   UNL     1      32.178 -21.952 -17.448  0.00  0.00    -0.191 NA
ATOM     38  C   UNL     1      33.125 -21.499 -17.943  0.00  0.00    +0.100 C 
ENDBRANCH  34  38
ENDBRANCH  27  31
ENDBRANCH  23  25
ENDBRANCH   2  23
TORSDOF 8
ENDMDL
