MODEL 1
REMARK VINA RESULT:     -11.8      0.000      0.000
REMARK  Name = 4261
REMARK  8 active torsions:
REMARK  status: ('A' for Active; 'I' for Inactive)
REMARK    1  A    between atoms: C_1  and  C_20
REMARK    2  A    between atoms: C_2  and  C_9
REMARK    3  A    between atoms: N_8  and  C_11
REMARK    4  A    between atoms: C_12  and  N_17
REMARK    5  A    between atoms: C_20  and  N_22
REMARK    6  A    between atoms: C_23  and  O_25
REMARK    7  A    between atoms: O_25  and  C_26
REMARK    8  A    between atoms: C_26  and  C_28
REMARK                            x       y       z     vdW  Elec       q    Type
REMARK                         _______ _______ _______ _____ _____    ______ ____
ROOT
ATOM      1  C   UNL     1      34.789 -22.435 -16.245  0.00  0.00    -0.002 C 
ATOM      2  C   UNL     1      35.537 -20.889 -18.432  0.00  0.00    +0.054 C 
ATOM      3  C   UNL     1      33.878 -22.209 -17.272  0.00  0.00    -0.002 C 
ATOM      4  C   UNL     1      36.069 -21.896 -16.302  0.00  0.00    -0.002 C 
ATOM      5  C   UNL     1      34.254 -21.434 -18.368  0.00  0.00    +0.004 C 
ATOM      6  C   UNL     1      36.444 -21.121 -17.398  0.00  0.00    +0.004 C 
ENDROOT
BRANCH   2   9
ATOM      7  O   UNL     1      37.074 -20.198 -20.035  0.00  0.00    -0.270 OA
ATOM      8  N   UNL     1      34.937 -19.229 -20.089  0.00  0.00    -0.279 N 
ATOM      9  C   UNL     1      35.927 -20.080 -19.575  0.00  0.00    +0.250 C 
ATOM     10  H   UNL     1      34.073 -19.244 -19.617  0.00  0.00    +0.155 HD
BRANCH   8  11
ATOM     11  C   UNL     1      35.018 -18.352 -21.197  0.00  0.00    +0.064 C 
ATOM     12  C   UNL     1      35.351 -17.019 -21.014  0.00  0.00    +0.055 C 
ATOM     13  C   UNL     1      34.757 -18.862 -22.460  0.00  0.00    +0.016 C 
ATOM     14  C   UNL     1      35.423 -16.174 -22.122  0.00  0.00    +0.015 C 
ATOM     15  C   UNL     1      34.830 -18.017 -23.567  0.00  0.00    +0.001 C 
ATOM     16  C   UNL     1      35.163 -16.673 -23.398  0.00  0.00    +0.001 C 
BRANCH  12  17
ATOM     17  N   UNL     1      35.619 -16.492 -19.730  0.00  0.00    -0.356 N 
ATOM     18  H   UNL     1      36.534 -16.525 -19.368  0.00  0.00    +0.142 HD
ATOM     19  H   UNL     1      34.893 -16.094 -19.200  0.00  0.00    +0.142 HD
ENDBRANCH  12  17
ENDBRANCH   8  11
ENDBRANCH   2   9
BRANCH   1  20
ATOM     20  C   UNL     1      34.386 -23.270 -15.065  0.00  0.00    +0.119 C 
BRANCH  20  22
ATOM     21  O   UNL     1      33.999 -23.652 -12.212  0.00  0.00    -0.226 OA
ATOM     22  N   UNL     1      35.390 -23.257 -14.026  0.00  0.00    -0.267 N 
ATOM     23  C   UNL     1      35.110 -23.449 -12.690  0.00  0.00    +0.402 C 
ATOM     24  H   UNL     1      36.326 -23.103 -14.287  0.00  0.00    +0.153 HD
BRANCH  23  25
ATOM     25  O   UNL     1      36.265 -23.379 -11.963  0.00  0.00    -0.430 OA
BRANCH  25  26
ATOM     26  C   UNL     1      36.813 -24.633 -11.539  0.00  0.00    +0.238 C 
BRANCH  26  28
ATOM     27  N   UNL     1      38.974 -26.442 -14.041  0.00  0.00    -0.243 NA
ATOM     28  C   UNL     1      37.987 -24.974 -12.410  0.00  0.00    +0.040 C 
ATOM     29  C   UNL     1      39.123 -24.184 -12.401  0.00  0.00    +0.002 C 
ATOM     30  C   UNL     1      37.952 -26.079 -13.233  0.00  0.00    +0.098 C 
ATOM     31  C   UNL     1      40.194 -24.524 -13.218  0.00  0.00    +0.020 C 
ATOM     32  C   UNL     1      40.071 -25.653 -14.013  0.00  0.00    +0.099 C 
ENDBRANCH  26  28
ENDBRANCH  25  26
ENDBRANCH  23  25
ENDBRANCH  20  22
ENDBRANCH   1  20
TORSDOF 8
ENDMDL
MODEL 2
REMARK VINA RESULT:     -11.1      4.210     10.975
REMARK  Name = 4261
REMARK  8 active torsions:
REMARK  status: ('A' for Active; 'I' for Inactive)
REMARK    1  A    between atoms: C_1  and  C_20
REMARK    2  A    between atoms: C_2  and  C_9
REMARK    3  A    between atoms: N_8  and  C_11
REMARK    4  A    between atoms: C_12  and  N_17
REMARK    5  A    between atoms: C_20  and  N_22
REMARK    6  A    between atoms: C_23  and  O_25
REMARK    7  A    between atoms: O_25  and  C_26
REMARK    8  A    between atoms: C_26  and  C_28
REMARK                            x       y       z     vdW  Elec       q    Type
REMARK                         _______ _______ _______ _____ _____    ______ ____
ROOT
ATOM      1  C   UNL     1      35.451 -19.356 -20.236  0.00  0.00    -0.002 C 
ATOM      2  C   UNL     1      34.161 -21.236 -18.644  0.00  0.00    +0.054 C 
ATOM      3  C   UNL     1      36.201 -20.215 -19.440  0.00  0.00    -0.002 C 
ATOM      4  C   UNL     1      34.062 -19.427 -20.243  0.00  0.00    -0.002 C 
ATOM      5  C   UNL     1      35.554 -21.157 -18.643  0.00  0.00    +0.004 C 
ATOM      6  C   UNL     1      33.415 -20.370 -19.446  0.00  0.00    +0.004 C 
ENDROOT
BRANCH   2   9
ATOM      7  O   UNL     1      33.817 -23.411 -17.897  0.00  0.00    -0.270 OA
ATOM      8  N   UNL     1      32.510 -21.713 -16.939  0.00  0.00    -0.279 N 
ATOM      9  C   UNL     1      33.487 -22.217 -17.811  0.00  0.00    +0.250 C 
ATOM     10  H   UNL     1      32.358 -20.742 -16.984  0.00  0.00    +0.155 HD
BRANCH   8  11
ATOM     11  C   UNL     1      31.716 -22.419 -16.003  0.00  0.00    +0.064 C 
ATOM     12  C   UNL     1      32.308 -23.072 -14.934  0.00  0.00    +0.055 C 
ATOM     13  C   UNL     1      30.342 -22.435 -16.186  0.00  0.00    +0.016 C 
ATOM     14  C   UNL     1      31.505 -23.761 -14.025  0.00  0.00    +0.015 C 
ATOM     15  C   UNL     1      29.539 -23.123 -15.277  0.00  0.00    +0.001 C 
ATOM     16  C   UNL     1      30.121 -23.786 -14.196  0.00  0.00    +0.001 C 
BRANCH  12  17
ATOM     17  N   UNL     1      33.708 -23.059 -14.741  0.00  0.00    -0.356 N 
ATOM     18  H   UNL     1      34.079 -23.137 -13.832  0.00  0.00    +0.142 HD
ATOM     19  H   UNL     1      34.311 -22.972 -15.513  0.00  0.00    +0.142 HD
ENDBRANCH  12  17
ENDBRANCH   8  11
ENDBRANCH   2   9
BRANCH   1  20
ATOM     20  C   UNL     1      36.147 -18.342 -21.096  0.00  0.00    +0.119 C 
BRANCH  20  22
ATOM     21  O   UNL     1      35.434 -16.288 -23.022  0.00  0.00    -0.226 OA
ATOM     22  N   UNL     1      35.686 -16.998 -20.829  0.00  0.00    -0.267 N 
ATOM     23  C   UNL     1      35.369 -16.088 -21.814  0.00  0.00    +0.402 C 
ATOM     24  H   UNL     1      35.592 -16.718 -19.890  0.00  0.00    +0.153 HD
BRANCH  23  25
ATOM     25  O   UNL     1      34.967 -14.913 -21.244  0.00  0.00    -0.430 OA
BRANCH  25  26
ATOM     26  C   UNL     1      34.578 -13.878 -22.154  0.00  0.00    +0.238 C 
BRANCH  26  28
ATOM     27  N   UNL     1      32.256 -10.976 -21.528  0.00  0.00    -0.243 NA
ATOM     28  C   UNL     1      33.561 -12.997 -21.488  0.00  0.00    +0.040 C 
ATOM     29  C   UNL     1      33.003 -13.360 -20.274  0.00  0.00    +0.002 C 
ATOM     30  C   UNL     1      33.166 -11.814 -22.074  0.00  0.00    +0.098 C 
ATOM     31  C   UNL     1      32.065 -12.524 -19.681  0.00  0.00    +0.020 C 
ATOM     32  C   UNL     1      31.727 -11.354 -20.342  0.00  0.00    +0.099 C 
ENDBRANCH  26  28
ENDBRANCH  25  26
ENDBRANCH  23  25
ENDBRANCH  20  22
ENDBRANCH   1  20
TORSDOF 8
ENDMDL
MODEL 3
REMARK VINA RESULT:     -11.1      1.198      1.554
REMARK  Name = 4261
REMARK  8 active torsions:
REMARK  status: ('A' for Active; 'I' for Inactive)
REMARK    1  A    between atoms: C_1  and  C_20
REMARK    2  A    between atoms: C_2  and  C_9
REMARK    3  A    between atoms: N_8  and  C_11
REMARK    4  A    between atoms: C_12  and  N_17
REMARK    5  A    between atoms: C_20  and  N_22
REMARK    6  A    between atoms: C_23  and  O_25
REMARK    7  A    between atoms: O_25  and  C_26
REMARK    8  A    between atoms: C_26  and  C_28
REMARK                            x       y       z     vdW  Elec       q    Type
REMARK                         _______ _______ _______ _____ _____    ______ ____
ROOT
ATOM      1  C   UNL     1      34.584 -21.658 -17.766  0.00  0.00    -0.002 C 
ATOM      2  C   UNL     1      35.286 -19.824 -19.734  0.00  0.00    +0.054 C 
ATOM      3  C   UNL     1      33.594 -21.085 -18.557  0.00  0.00    -0.002 C 
ATOM      4  C   UNL     1      35.921 -21.322 -17.949  0.00  0.00    -0.002 C 
ATOM      5  C   UNL     1      33.947 -20.166 -19.544  0.00  0.00    +0.004 C 
ATOM      6  C   UNL     1      36.273 -20.403 -18.936  0.00  0.00    +0.004 C 
ENDROOT
BRANCH   2   9
ATOM      7  O   UNL     1      36.837 -18.506 -20.859  0.00  0.00    -0.270 OA
ATOM      8  N   UNL     1      34.610 -18.431 -21.595  0.00  0.00    -0.279 N 
ATOM      9  C   UNL     1      35.652 -18.864 -20.762  0.00  0.00    +0.250 C 
ATOM     10  H   UNL     1      33.721 -18.804 -21.396  0.00  0.00    +0.155 HD
BRANCH   8  11
ATOM     11  C   UNL     1      34.669 -17.530 -22.686  0.00  0.00    +0.064 C 
ATOM     12  C   UNL     1      35.070 -16.218 -22.489  0.00  0.00    +0.055 C 
ATOM     13  C   UNL     1      34.318 -17.996 -23.944  0.00  0.00    +0.016 C 
ATOM     14  C   UNL     1      35.120 -15.349 -23.580  0.00  0.00    +0.015 C 
ATOM     15  C   UNL     1      34.369 -17.127 -25.033  0.00  0.00    +0.001 C 
ATOM     16  C   UNL     1      34.770 -15.803 -24.851  0.00  0.00    +0.001 C 
BRANCH  12  17
ATOM     17  N   UNL     1      35.430 -15.737 -21.211  0.00  0.00    -0.356 N 
ATOM     18  H   UNL     1      36.361 -15.817 -20.900  0.00  0.00    +0.142 HD
ATOM     19  H   UNL     1      34.751 -15.323 -20.632  0.00  0.00    +0.142 HD
ENDBRANCH  12  17
ENDBRANCH   8  11
ENDBRANCH   2   9
BRANCH   1  20
ATOM     20  C   UNL     1      34.206 -22.649 -16.704  0.00  0.00    +0.119 C 
BRANCH  20  22
ATOM     21  O   UNL     1      33.960 -24.056 -14.175  0.00  0.00    -0.226 OA
ATOM     22  N   UNL     1      35.096 -22.589 -15.567  0.00  0.00    -0.267 N 
ATOM     23  C   UNL     1      34.896 -23.297 -14.401  0.00  0.00    +0.402 C 
ATOM     24  H   UNL     1      35.889 -22.009 -15.628  0.00  0.00    +0.153 HD
BRANCH  23  25
ATOM     25  O   UNL     1      35.906 -23.028 -13.521  0.00  0.00    -0.430 OA
BRANCH  25  26
ATOM     26  C   UNL     1      36.271 -24.099 -12.642  0.00  0.00    +0.238 C 
BRANCH  26  28
ATOM     27  N   UNL     1      38.793 -26.368 -14.283  0.00  0.00    -0.243 NA
ATOM     28  C   UNL     1      37.589 -24.666 -13.081  0.00  0.00    +0.040 C 
ATOM     29  C   UNL     1      38.775 -24.053 -12.716  0.00  0.00    +0.002 C 
ATOM     30  C   UNL     1      37.640 -25.805 -13.855  0.00  0.00    +0.098 C 
ATOM     31  C   UNL     1      39.981 -24.601 -13.138  0.00  0.00    +0.020 C 
ATOM     32  C   UNL     1      39.936 -25.749 -13.913  0.00  0.00    +0.099 C 
ENDBRANCH  26  28
ENDBRANCH  25  26
ENDBRANCH  23  25
ENDBRANCH  20  22
ENDBRANCH   1  20
TORSDOF 8
ENDMDL
MODEL 4
REMARK VINA RESULT:     -11.0      2.517     10.953
REMARK  Name = 4261
REMARK  8 active torsions:
REMARK  status: ('A' for Active; 'I' for Inactive)
REMARK    1  A    between atoms: C_1  and  C_20
REMARK    2  A    between atoms: C_2  and  C_9
REMARK    3  A    between atoms: N_8  and  C_11
REMARK    4  A    between atoms: C_12  and  N_17
REMARK    5  A    between atoms: C_20  and  N_22
REMARK    6  A    between atoms: C_23  and  O_25
REMARK    7  A    between atoms: O_25  and  C_26
REMARK    8  A    between atoms: C_26  and  C_28
REMARK                            x       y       z     vdW  Elec       q    Type
REMARK                         _______ _______ _______ _____ _____    ______ ____
ROOT
ATOM      1  C   UNL     1      35.602 -20.477 -19.059  0.00  0.00    -0.002 C 
ATOM      2  C   UNL     1      35.754 -21.792 -16.614  0.00  0.00    +0.054 C 
ATOM      3  C   UNL     1      36.781 -20.429 -18.324  0.00  0.00    -0.002 C 
ATOM      4  C   UNL     1      34.498 -21.176 -18.583  0.00  0.00    -0.002 C 
ATOM      5  C   UNL     1      36.857 -21.089 -17.098  0.00  0.00    +0.004 C 
ATOM      6  C   UNL     1      34.574 -21.836 -17.358  0.00  0.00    +0.004 C 
ENDROOT
BRANCH   2   9
ATOM      7  O   UNL     1      34.902 -22.353 -14.524  0.00  0.00    -0.270 OA
ATOM      8  N   UNL     1      36.976 -23.266 -15.133  0.00  0.00    -0.279 N 
ATOM      9  C   UNL     1      35.833 -22.479 -15.335  0.00  0.00    +0.250 C 
ATOM     10  H   UNL     1      37.630 -23.267 -15.869  0.00  0.00    +0.155 HD
BRANCH   8  11
ATOM     11  C   UNL     1      37.313 -24.059 -14.010  0.00  0.00    +0.064 C 
ATOM     12  C   UNL     1      37.085 -25.426 -14.024  0.00  0.00    +0.055 C 
ATOM     13  C   UNL     1      37.872 -23.434 -12.906  0.00  0.00    +0.016 C 
ATOM     14  C   UNL     1      37.424 -26.187 -12.904  0.00  0.00    +0.015 C 
ATOM     15  C   UNL     1      38.212 -24.195 -11.788  0.00  0.00    +0.001 C 
ATOM     16  C   UNL     1      37.987 -25.571 -11.787  0.00  0.00    +0.001 C 
BRANCH  12  17
ATOM     17  N   UNL     1      36.516 -26.071 -15.145  0.00  0.00    -0.356 N 
ATOM     18  H   UNL     1      37.055 -26.701 -15.675  0.00  0.00    +0.142 HD
ATOM     19  H   UNL     1      35.582 -25.890 -15.395  0.00  0.00    +0.142 HD
ENDBRANCH  12  17
ENDBRANCH   8  11
ENDBRANCH   2   9
BRANCH   1  20
ATOM     20  C   UNL     1      35.520 -19.768 -20.379  0.00  0.00    +0.119 C 
BRANCH  20  22
ATOM     21  O   UNL     1      36.485 -17.558 -21.998  0.00  0.00    -0.226 OA
ATOM     22  N   UNL     1      35.231 -18.361 -20.220  0.00  0.00    -0.267 N 
ATOM     23  C   UNL     1      35.738 -17.378 -21.042  0.00  0.00    +0.402 C 
ATOM     24  H   UNL     1      34.638 -18.089 -19.482  0.00  0.00    +0.153 HD
BRANCH  23  25
ATOM     25  O   UNL     1      35.282 -16.156 -20.634  0.00  0.00    -0.430 OA
BRANCH  25  26
ATOM     26  C   UNL     1      35.261 -15.131 -21.635  0.00  0.00    +0.238 C 
BRANCH  26  28
ATOM     27  N   UNL     1      32.821 -12.282 -21.994  0.00  0.00    -0.243 NA
ATOM     28  C   UNL     1      34.172 -14.151 -21.308  0.00  0.00    +0.040 C 
ATOM     29  C   UNL     1      33.534 -14.191 -20.081  0.00  0.00    +0.002 C 
ATOM     30  C   UNL     1      33.792 -13.194 -22.225  0.00  0.00    +0.098 C 
ATOM     31  C   UNL     1      32.531 -13.270 -19.807  0.00  0.00    +0.020 C 
ATOM     32  C   UNL     1      32.213 -12.344 -20.788  0.00  0.00    +0.099 C 
ENDBRANCH  26  28
ENDBRANCH  25  26
ENDBRANCH  23  25
ENDBRANCH  20  22
ENDBRANCH   1  20
TORSDOF 8
ENDMDL
MODEL 5
REMARK VINA RESULT:     -10.8      6.477     10.602
REMARK  Name = 4261
REMARK  8 active torsions:
REMARK  status: ('A' for Active; 'I' for Inactive)
REMARK    1  A    between atoms: C_1  and  C_20
REMARK    2  A    between atoms: C_2  and  C_9
REMARK    3  A    between atoms: N_8  and  C_11
REMARK    4  A    between atoms: C_12  and  N_17
REMARK    5  A    between atoms: C_20  and  N_22
REMARK    6  A    between atoms: C_23  and  O_25
REMARK    7  A    between atoms: O_25  and  C_26
REMARK    8  A    between atoms: C_26  and  C_28
REMARK                            x       y       z     vdW  Elec       q    Type
REMARK                         _______ _______ _______ _____ _____    ______ ____
ROOT
ATOM      1  C   UNL     1      34.298 -13.614 -22.277  0.00  0.00    -0.002 C 
ATOM      2  C   UNL     1      32.847 -11.331 -21.632  0.00  0.00    +0.054 C 
ATOM      3  C   UNL     1      34.296 -12.530 -23.149  0.00  0.00    -0.002 C 
ATOM      4  C   UNL     1      33.582 -13.567 -21.086  0.00  0.00    -0.002 C 
ATOM      5  C   UNL     1      33.569 -11.386 -22.824  0.00  0.00    +0.004 C 
ATOM      6  C   UNL     1      32.855 -12.423 -20.762  0.00  0.00    +0.004 C 
ENDROOT
BRANCH   2   9
ATOM      7  O   UNL     1      30.888 -10.250 -20.999  0.00  0.00    -0.270 OA
ATOM      8  N   UNL     1      32.805  -8.932 -21.311  0.00  0.00    -0.279 N 
ATOM      9  C   UNL     1      32.088 -10.138 -21.295  0.00  0.00    +0.250 C 
ATOM     10  H   UNL     1      33.753  -9.002 -21.566  0.00  0.00    +0.155 HD
BRANCH   8  11
ATOM     11  C   UNL     1      32.343  -7.629 -21.006  0.00  0.00    +0.064 C 
ATOM     12  C   UNL     1      32.507  -7.107 -19.733  0.00  0.00    +0.055 C 
ATOM     13  C   UNL     1      31.728  -6.898 -22.011  0.00  0.00    +0.016 C 
ATOM     14  C   UNL     1      32.043  -5.820 -19.458  0.00  0.00    +0.015 C 
ATOM     15  C   UNL     1      31.264  -5.612 -21.735  0.00  0.00    +0.001 C 
ATOM     16  C   UNL     1      31.422  -5.073 -20.458  0.00  0.00    +0.001 C 
BRANCH  12  17
ATOM     17  N   UNL     1      33.134  -7.846 -18.705  0.00  0.00    -0.356 N 
ATOM     18  H   UNL     1      33.140  -7.497 -17.784  0.00  0.00    +0.142 HD
ATOM     19  H   UNL     1      33.563  -8.707 -18.909  0.00  0.00    +0.142 HD
ENDBRANCH  12  17
ENDBRANCH   8  11
ENDBRANCH   2   9
BRANCH   1  20
ATOM     20  C   UNL     1      35.082 -14.846 -22.624  0.00  0.00    +0.119 C 
BRANCH  20  22
ATOM     21  O   UNL     1      35.971 -17.610 -22.576  0.00  0.00    -0.226 OA
ATOM     22  N   UNL     1      35.317 -15.680 -21.468  0.00  0.00    -0.267 N 
ATOM     23  C   UNL     1      35.741 -16.990 -21.544  0.00  0.00    +0.402 C 
ATOM     24  H   UNL     1      35.166 -15.291 -20.576  0.00  0.00    +0.153 HD
BRANCH  23  25
ATOM     25  O   UNL     1      35.871 -17.505 -20.285  0.00  0.00    -0.430 OA
BRANCH  25  26
ATOM     26  C   UNL     1      36.554 -18.760 -20.190  0.00  0.00    +0.238 C 
BRANCH  26  28
ATOM     27  N   UNL     1      35.326 -21.691 -18.166  0.00  0.00    -0.243 NA
ATOM     28  C   UNL     1      35.627 -19.779 -19.594  0.00  0.00    +0.040 C 
ATOM     29  C   UNL     1      34.277 -19.764 -19.897  0.00  0.00    +0.002 C 
ATOM     30  C   UNL     1      36.106 -20.746 -18.736  0.00  0.00    +0.098 C 
ATOM     31  C   UNL     1      33.443 -20.720 -19.330  0.00  0.00    +0.020 C 
ATOM     32  C   UNL     1      34.011 -21.654 -18.478  0.00  0.00    +0.099 C 
ENDBRANCH  26  28
ENDBRANCH  25  26
ENDBRANCH  23  25
ENDBRANCH  20  22
ENDBRANCH   1  20
TORSDOF 8
ENDMDL
MODEL 6
REMARK VINA RESULT:     -10.8      2.224     10.933
REMARK  Name = 4261
REMARK  8 active torsions:
REMARK  status: ('A' for Active; 'I' for Inactive)
REMARK    1  A    between atoms: C_1  and  C_20
REMARK    2  A    between atoms: C_2  and  C_9
REMARK    3  A    between atoms: N_8  and  C_11
REMARK    4  A    between atoms: C_12  and  N_17
REMARK    5  A    between atoms: C_20  and  N_22
REMARK    6  A    between atoms: C_23  and  O_25
REMARK    7  A    between atoms: O_25  and  C_26
REMARK    8  A    between atoms: C_26  and  C_28
REMARK                            x       y       z     vdW  Elec       q    Type
REMARK                         _______ _______ _______ _____ _____    ______ ____
ROOT
ATOM      1  C   UNL     1      35.162 -20.482 -19.115  0.00  0.00    -0.002 C 
ATOM      2  C   UNL     1      36.359 -21.525 -16.833  0.00  0.00    +0.054 C 
ATOM      3  C   UNL     1      36.503 -20.219 -18.860  0.00  0.00    -0.002 C 
ATOM      4  C   UNL     1      34.413 -21.262 -18.240  0.00  0.00    -0.002 C 
ATOM      5  C   UNL     1      37.103 -20.742 -17.716  0.00  0.00    +0.004 C 
ATOM      6  C   UNL     1      35.013 -21.785 -17.096  0.00  0.00    +0.004 C 
ENDROOT
BRANCH   2   9
ATOM      7  O   UNL     1      37.911 -21.441 -15.103  0.00  0.00    -0.270 OA
ATOM      8  N   UNL     1      36.455 -23.281 -15.169  0.00  0.00    -0.279 N 
ATOM      9  C   UNL     1      36.984 -22.070 -15.639  0.00  0.00    +0.250 C 
ATOM     10  H   UNL     1      35.720 -23.661 -15.701  0.00  0.00    +0.155 HD
BRANCH   8  11
ATOM     11  C   UNL     1      36.840 -24.027 -14.028  0.00  0.00    +0.064 C 
ATOM     12  C   UNL     1      36.189 -23.843 -12.819  0.00  0.00    +0.055 C 
ATOM     13  C   UNL     1      37.877 -24.938 -14.158  0.00  0.00    +0.016 C 
ATOM     14  C   UNL     1      36.587 -24.590 -11.709  0.00  0.00    +0.015 C 
ATOM     15  C   UNL     1      38.274 -25.684 -13.048  0.00  0.00    +0.001 C 
ATOM     16  C   UNL     1      37.629 -25.510 -11.824  0.00  0.00    +0.001 C 
BRANCH  12  17
ATOM     17  N   UNL     1      35.131 -22.917 -12.680  0.00  0.00    -0.356 N 
ATOM     18  H   UNL     1      35.328 -21.961 -12.559  0.00  0.00    +0.142 HD
ATOM     19  H   UNL     1      34.198 -23.229 -12.704  0.00  0.00    +0.142 HD
ENDBRANCH  12  17
ENDBRANCH   8  11
ENDBRANCH   2   9
BRANCH   1  20
ATOM     20  C   UNL     1      34.516 -19.920 -20.348  0.00  0.00    +0.119 C 
BRANCH  20  22
ATOM     21  O   UNL     1      34.844 -19.109 -23.117  0.00  0.00    -0.226 OA
ATOM     22  N   UNL     1      35.229 -18.770 -20.855  0.00  0.00    -0.267 N 
ATOM     23  C   UNL     1      35.332 -18.464 -22.195  0.00  0.00    +0.402 C 
ATOM     24  H   UNL     1      35.667 -18.172 -20.207  0.00  0.00    +0.153 HD
BRANCH  23  25
ATOM     25  O   UNL     1      36.066 -17.322 -22.352  0.00  0.00    -0.430 OA
BRANCH  25  26
ATOM     26  C   UNL     1      35.461 -16.119 -21.863  0.00  0.00    +0.238 C 
BRANCH  26  28
ATOM     27  N   UNL     1      34.453 -15.229 -25.383  0.00  0.00    -0.243 NA
ATOM     28  C   UNL     1      34.855 -15.372 -23.015  0.00  0.00    +0.040 C 
ATOM     29  C   UNL     1      34.169 -14.189 -22.804  0.00  0.00    +0.002 C 
ATOM     30  C   UNL     1      34.973 -15.852 -24.302  0.00  0.00    +0.098 C 
ATOM     31  C   UNL     1      33.620 -13.519 -23.890  0.00  0.00    +0.020 C 
ATOM     32  C   UNL     1      33.787 -14.075 -25.148  0.00  0.00    +0.099 C 
ENDBRANCH  26  28
ENDBRANCH  25  26
ENDBRANCH  23  25
ENDBRANCH  20  22
ENDBRANCH   1  20
TORSDOF 8
ENDMDL
MODEL 7
REMARK VINA RESULT:     -10.7      2.967      5.369
REMARK  Name = 4261
REMARK  8 active torsions:
REMARK  status: ('A' for Active; 'I' for Inactive)
REMARK    1  A    between atoms: C_1  and  C_20
REMARK    2  A    between atoms: C_2  and  C_9
REMARK    3  A    between atoms: N_8  and  C_11
REMARK    4  A    between atoms: C_12  and  N_17
REMARK    5  A    between atoms: C_20  and  N_22
REMARK    6  A    between atoms: C_23  and  O_25
REMARK    7  A    between atoms: O_25  and  C_26
REMARK    8  A    between atoms: C_26  and  C_28
REMARK                            x       y       z     vdW  Elec       q    Type
REMARK                         _______ _______ _______ _____ _____    ______ ____
ROOT
ATOM      1  C   UNL     1      35.034 -22.375 -16.223  0.00  0.00    -0.002 C 
ATOM      2  C   UNL     1      35.703 -20.797 -18.413  0.00  0.00    +0.054 C 
ATOM      3  C   UNL     1      34.108 -22.186 -17.244  0.00  0.00    -0.002 C 
ATOM      4  C   UNL     1      36.290 -21.782 -16.287  0.00  0.00    -0.002 C 
ATOM      5  C   UNL     1      34.444 -21.395 -18.342  0.00  0.00    +0.004 C 
ATOM      6  C   UNL     1      36.626 -20.992 -17.385  0.00  0.00    +0.004 C 
ENDROOT
BRANCH   2   9
ATOM      7  O   UNL     1      37.220 -19.985 -19.977  0.00  0.00    -0.270 OA
ATOM      8  N   UNL     1      35.003 -19.228 -20.118  0.00  0.00    -0.279 N 
ATOM      9  C   UNL     1      36.052 -19.971 -19.557  0.00  0.00    +0.250 C 
ATOM     10  H   UNL     1      34.129 -19.320 -19.674  0.00  0.00    +0.155 HD
BRANCH   8  11
ATOM     11  C   UNL     1      35.036 -18.364 -21.239  0.00  0.00    +0.064 C 
ATOM     12  C   UNL     1      35.341 -17.022 -21.081  0.00  0.00    +0.055 C 
ATOM     13  C   UNL     1      34.759 -18.897 -22.489  0.00  0.00    +0.016 C 
ATOM     14  C   UNL     1      35.367 -16.190 -22.201  0.00  0.00    +0.015 C 
ATOM     15  C   UNL     1      34.786 -18.066 -23.608  0.00  0.00    +0.001 C 
ATOM     16  C   UNL     1      35.090 -16.712 -23.464  0.00  0.00    +0.001 C 
BRANCH  12  17
ATOM     17  N   UNL     1      35.626 -16.472 -19.811  0.00  0.00    -0.356 N 
ATOM     18  H   UNL     1      36.560 -16.309 -19.545  0.00  0.00    +0.142 HD
ATOM     19  H   UNL     1      34.892 -16.251 -19.194  0.00  0.00    +0.142 HD
ENDBRANCH  12  17
ENDBRANCH   8  11
ENDBRANCH   2   9
BRANCH   1  20
ATOM     20  C   UNL     1      34.673 -23.227 -15.042  0.00  0.00    +0.119 C 
BRANCH  20  22
ATOM     21  O   UNL     1      33.478 -23.718 -12.440  0.00  0.00    -0.226 OA
ATOM     22  N   UNL     1      33.291 -23.060 -14.656  0.00  0.00    -0.267 N 
ATOM     23  C   UNL     1      32.813 -23.319 -13.390  0.00  0.00    +0.402 C 
ATOM     24  H   UNL     1      32.654 -22.742 -15.337  0.00  0.00    +0.153 HD
BRANCH  23  25
ATOM     25  O   UNL     1      31.471 -23.065 -13.343  0.00  0.00    -0.430 OA
BRANCH  25  26
ATOM     26  C   UNL     1      30.621 -24.095 -13.861  0.00  0.00    +0.238 C 
BRANCH  26  28
ATOM     27  N   UNL     1      28.133 -23.744 -16.669  0.00  0.00    -0.243 NA
ATOM     28  C   UNL     1      29.623 -23.480 -14.799  0.00  0.00    +0.040 C 
ATOM     29  C   UNL     1      29.276 -22.146 -14.682  0.00  0.00    +0.002 C 
ATOM     30  C   UNL     1      29.037 -24.235 -15.792  0.00  0.00    +0.098 C 
ATOM     31  C   UNL     1      28.350 -21.605 -15.565  0.00  0.00    +0.020 C 
ATOM     32  C   UNL     1      27.811 -22.438 -16.532  0.00  0.00    +0.099 C 
ENDBRANCH  26  28
ENDBRANCH  25  26
ENDBRANCH  23  25
ENDBRANCH  20  22
ENDBRANCH   1  20
TORSDOF 8
ENDMDL
MODEL 8
REMARK VINA RESULT:     -10.5      5.767     12.757
REMARK  Name = 4261
REMARK  8 active torsions:
REMARK  status: ('A' for Active; 'I' for Inactive)
REMARK    1  A    between atoms: C_1  and  C_20
REMARK    2  A    between atoms: C_2  and  C_9
REMARK    3  A    between atoms: N_8  and  C_11
REMARK    4  A    between atoms: C_12  and  N_17
REMARK    5  A    between atoms: C_20  and  N_22
REMARK    6  A    between atoms: C_23  and  O_25
REMARK    7  A    between atoms: O_25  and  C_26
REMARK    8  A    between atoms: C_26  and  C_28
REMARK                            x       y       z     vdW  Elec       q    Type
REMARK                         _______ _______ _______ _____ _____    ______ ____
ROOT
ATOM      1  C   UNL     1      34.367 -13.124 -23.079  0.00  0.00    -0.002 C 
ATOM      2  C   UNL     1      34.923 -15.225 -21.346  0.00  0.00    +0.054 C 
ATOM      3  C   UNL     1      34.733 -14.362 -23.595  0.00  0.00    -0.002 C 
ATOM      4  C   UNL     1      34.276 -12.926 -21.706  0.00  0.00    -0.002 C 
ATOM      5  C   UNL     1      35.011 -15.416 -22.725  0.00  0.00    +0.004 C 
ATOM      6  C   UNL     1      34.555 -13.979 -20.837  0.00  0.00    +0.004 C 
ENDROOT
BRANCH   2   9
ATOM      7  O   UNL     1      35.627 -16.070 -19.296  0.00  0.00    -0.270 OA
ATOM      8  N   UNL     1      34.976 -17.612 -20.942  0.00  0.00    -0.279 N 
ATOM      9  C   UNL     1      35.215 -16.324 -20.440  0.00  0.00    +0.250 C 
ATOM     10  H   UNL     1      34.649 -17.655 -21.870  0.00  0.00    +0.155 HD
BRANCH   8  11
ATOM     11  C   UNL     1      35.142 -18.857 -20.290  0.00  0.00    +0.064 C 
ATOM     12  C   UNL     1      36.412 -19.353 -20.039  0.00  0.00    +0.055 C 
ATOM     13  C   UNL     1      34.008 -19.558 -19.912  0.00  0.00    +0.016 C 
ATOM     14  C   UNL     1      36.550 -20.582 -19.395  0.00  0.00    +0.015 C 
ATOM     15  C   UNL     1      34.146 -20.787 -19.268  0.00  0.00    +0.001 C 
ATOM     16  C   UNL     1      35.418 -21.300 -19.009  0.00  0.00    +0.001 C 
BRANCH  12  17
ATOM     17  N   UNL     1      37.573 -18.643 -20.420  0.00  0.00    -0.356 N 
ATOM     18  H   UNL     1      37.811 -18.566 -21.372  0.00  0.00    +0.142 HD
ATOM     19  H   UNL     1      38.142 -18.227 -19.734  0.00  0.00    +0.142 HD
ENDBRANCH  12  17
ENDBRANCH   8  11
ENDBRANCH   2   9
BRANCH   1  20
ATOM     20  C   UNL     1      34.065 -11.990 -24.015  0.00  0.00    +0.119 C 
BRANCH  20  22
ATOM     21  O   UNL     1      35.286  -9.354 -23.977  0.00  0.00    -0.226 OA
ATOM     22  N   UNL     1      33.611 -10.813 -23.309  0.00  0.00    -0.267 N 
ATOM     23  C   UNL     1      34.260  -9.598 -23.351  0.00  0.00    +0.402 C 
ATOM     24  H   UNL     1      32.791 -10.884 -22.768  0.00  0.00    +0.153 HD
BRANCH  23  25
ATOM     25  O   UNL     1      33.586  -8.690 -22.583  0.00  0.00    -0.430 OA
BRANCH  25  26
ATOM     26  C   UNL     1      32.228  -9.021 -22.271  0.00  0.00    +0.238 C 
BRANCH  26  28
ATOM     27  N   UNL     1      32.373  -8.486 -18.544  0.00  0.00    -0.243 NA
ATOM     28  C   UNL     1      32.115  -9.286 -20.798  0.00  0.00    +0.040 C 
ATOM     29  C   UNL     1      31.674 -10.514 -20.336  0.00  0.00    +0.002 C 
ATOM     30  C   UNL     1      32.450  -8.313 -19.882  0.00  0.00    +0.098 C 
ATOM     31  C   UNL     1      31.581 -10.731 -18.967  0.00  0.00    +0.020 C 
ATOM     32  C   UNL     1      31.939  -9.695 -18.119  0.00  0.00    +0.099 C 
ENDBRANCH  26  28
ENDBRANCH  25  26
ENDBRANCH  23  25
ENDBRANCH  20  22
ENDBRANCH   1  20
TORSDOF 8
ENDMDL
MODEL 9
REMARK VINA RESULT:     -10.5      6.583     10.694
REMARK  Name = 4261
REMARK  8 active torsions:
REMARK  status: ('A' for Active; 'I' for Inactive)
REMARK    1  A    between atoms: C_1  and  C_20
REMARK    2  A    between atoms: C_2  and  C_9
REMARK    3  A    between atoms: N_8  and  C_11
REMARK    4  A    between atoms: C_12  and  N_17
REMARK    5  A    between atoms: C_20  and  N_22
REMARK    6  A    between atoms: C_23  and  O_25
REMARK    7  A    between atoms: O_25  and  C_26
REMARK    8  A    between atoms: C_26  and  C_28
REMARK                            x       y       z     vdW  Elec       q    Type
REMARK                         _______ _______ _______ _____ _____    ______ ____
ROOT
ATOM      1  C   UNL     1      34.242 -13.595 -22.212  0.00  0.00    -0.002 C 
ATOM      2  C   UNL     1      32.828 -11.306 -21.508  0.00  0.00    +0.054 C 
ATOM      3  C   UNL     1      34.258 -12.489 -23.055  0.00  0.00    -0.002 C 
ATOM      4  C   UNL     1      33.525 -13.568 -21.021  0.00  0.00    -0.002 C 
ATOM      5  C   UNL     1      33.549 -11.342 -22.701  0.00  0.00    +0.004 C 
ATOM      6  C   UNL     1      32.816 -12.421 -20.667  0.00  0.00    +0.004 C 
ENDROOT
BRANCH   2   9
ATOM      7  O   UNL     1      30.902 -10.219 -20.788  0.00  0.00    -0.270 OA
ATOM      8  N   UNL     1      32.805  -8.906 -21.194  0.00  0.00    -0.279 N 
ATOM      9  C   UNL     1      32.088 -10.111 -21.140  0.00  0.00    +0.250 C 
ATOM     10  H   UNL     1      33.739  -8.979 -21.494  0.00  0.00    +0.155 HD
BRANCH   8  11
ATOM     11  C   UNL     1      32.360  -7.601 -20.874  0.00  0.00    +0.064 C 
ATOM     12  C   UNL     1      31.738  -6.817 -21.832  0.00  0.00    +0.055 C 
ATOM     13  C   UNL     1      32.563  -7.135 -19.584  0.00  0.00    +0.016 C 
ATOM     14  C   UNL     1      31.309  -5.534 -21.492  0.00  0.00    +0.015 C 
ATOM     15  C   UNL     1      32.134  -5.853 -19.244  0.00  0.00    +0.001 C 
ATOM     16  C   UNL     1      31.507  -5.052 -20.199  0.00  0.00    +0.001 C 
BRANCH  12  17
ATOM     17  N   UNL     1      31.527  -7.286 -23.149  0.00  0.00    -0.356 N 
ATOM     18  H   UNL     1      30.968  -8.081 -23.303  0.00  0.00    +0.142 HD
ATOM     19  H   UNL     1      31.937  -6.816 -23.910  0.00  0.00    +0.142 HD
ENDBRANCH  12  17
ENDBRANCH   8  11
ENDBRANCH   2   9
BRANCH   1  20
ATOM     20  C   UNL     1      35.006 -14.829 -22.592  0.00  0.00    +0.119 C 
BRANCH  20  22
ATOM     21  O   UNL     1      36.068 -17.533 -22.589  0.00  0.00    -0.226 OA
ATOM     22  N   UNL     1      35.256 -15.682 -21.452  0.00  0.00    -0.267 N 
ATOM     23  C   UNL     1      35.766 -16.959 -21.549  0.00  0.00    +0.402 C 
ATOM     24  H   UNL     1      35.052 -15.329 -20.555  0.00  0.00    +0.153 HD
BRANCH  23  25
ATOM     25  O   UNL     1      35.887 -17.502 -20.300  0.00  0.00    -0.430 OA
BRANCH  25  26
ATOM     26  C   UNL     1      36.541 -18.774 -20.233  0.00  0.00    +0.238 C 
BRANCH  26  28
ATOM     27  N   UNL     1      35.288 -21.681 -18.189  0.00  0.00    -0.243 NA
ATOM     28  C   UNL     1      35.604 -19.775 -19.623  0.00  0.00    +0.040 C 
ATOM     29  C   UNL     1      34.251 -19.736 -19.908  0.00  0.00    +0.002 C 
ATOM     30  C   UNL     1      36.077 -20.750 -18.771  0.00  0.00    +0.098 C 
ATOM     31  C   UNL     1      33.407 -20.677 -19.329  0.00  0.00    +0.020 C 
ATOM     32  C   UNL     1      33.970 -21.620 -18.484  0.00  0.00    +0.099 C 
ENDBRANCH  26  28
ENDBRANCH  25  26
ENDBRANCH  23  25
ENDBRANCH  20  22
ENDBRANCH   1  20
TORSDOF 8
ENDMDL
