MODEL 1
REMARK VINA RESULT:     -11.2      0.000      0.000
REMARK  Name = 9931954
REMARK  3 active torsions:
REMARK  status: ('A' for Active; 'I' for Inactive)
REMARK    1  A    between atoms: C_8  and  C_18
REMARK    2  A    between atoms: C_21  and  C_24
REMARK    3  A    between atoms: C_24  and  N_25
REMARK                            x       y       z     vdW  Elec       q    Type
REMARK                         _______ _______ _______ _____ _____    ______ ____
ROOT
ATOM      1  F   UNL     1      30.044 -24.869 -13.447  0.00  0.00    -0.204 F 
ATOM      2  O   UNL     1      34.571 -23.729 -11.782  0.00  0.00    -0.270 OA
ATOM      3  N   UNL     1      32.274 -22.317 -16.931  0.00  0.00    -0.353 N 
ATOM      4  N   UNL     1      35.932 -23.360 -13.565  0.00  0.00    -0.301 N 
ATOM      5  C   UNL     1      34.265 -22.290 -15.942  0.00  0.00    -0.003 A 
ATOM      6  C   UNL     1      33.354 -22.990 -15.092  0.00  0.00    +0.018 A 
ATOM      7  C   UNL     1      35.714 -22.091 -15.680  0.00  0.00    +0.049 C 
ATOM      8  C   UNL     1      33.563 -21.881 -17.056  0.00  0.00    +0.053 A 
ATOM      9  C   UNL     1      32.119 -23.006 -15.750  0.00  0.00    +0.059 A 
ATOM     10  C   UNL     1      33.460 -23.618 -13.830  0.00  0.00    +0.057 C 
ATOM     11  C   UNL     1      36.310 -23.299 -14.969  0.00  0.00    +0.094 C 
ATOM     12  C   UNL     1      34.689 -23.577 -13.000  0.00  0.00    +0.246 C 
ATOM     13  C   UNL     1      30.984 -23.632 -15.226  0.00  0.00    +0.047 C 
ATOM     14  C   UNL     1      32.317 -24.248 -13.296  0.00  0.00    +0.034 C 
ATOM     15  C   UNL     1      31.107 -24.258 -13.986  0.00  0.00    +0.142 C 
ATOM     16  H   UNL     1      31.560 -22.161 -17.589  0.00  0.00    +0.166 HD
ATOM     17  H   UNL     1      36.667 -23.228 -12.926  0.00  0.00    +0.150 HD
ENDROOT
BRANCH   8  18
ATOM     18  C   UNL     1      33.991 -21.138 -18.219  0.00  0.00    +0.015 C 
ATOM     19  C   UNL     1      35.343 -21.088 -18.552  0.00  0.00    +0.001 C 
ATOM     20  C   UNL     1      33.050 -20.475 -19.006  0.00  0.00    +0.001 C 
ATOM     21  C   UNL     1      34.817 -19.706 -20.463  0.00  0.00    -0.044 C 
ATOM     22  C   UNL     1      35.757 -20.371 -19.675  0.00  0.00    -0.006 C 
ATOM     23  C   UNL     1      33.464 -19.758 -20.129  0.00  0.00    -0.006 C 
BRANCH  21  24
ATOM     24  C   UNL     1      35.258 -18.940 -21.664  0.00  0.00    -0.054 C 
BRANCH  24  25
ATOM     25  N   UNL     1      36.220 -17.917 -21.338  0.00  0.00    +0.385 N 
ATOM     26  C   UNL     1      35.570 -16.720 -20.806  0.00  0.00    -0.105 C 
ATOM     27  H   UNL     1      36.736 -17.667 -22.181  0.00  0.00    -0.084 HD
ATOM     28  H   UNL     1      36.847 -18.284 -20.622  0.00  0.00    -0.084 HD
ENDBRANCH  24  25
ENDBRANCH  21  24
ENDBRANCH   8  18
TORSDOF 3
ENDMDL
MODEL 2
REMARK VINA RESULT:     -10.1      1.229      1.548
REMARK  Name = 9931954
REMARK  3 active torsions:
REMARK  status: ('A' for Active; 'I' for Inactive)
REMARK    1  A    between atoms: C_8  and  C_18
REMARK    2  A    between atoms: C_21  and  C_24
REMARK    3  A    between atoms: C_24  and  N_25
REMARK                            x       y       z     vdW  Elec       q    Type
REMARK                         _______ _______ _______ _____ _____    ______ ____
ROOT
ATOM      1  F   UNL     1      31.927 -24.779 -13.737  0.00  0.00    -0.204 F 
ATOM      2  O   UNL     1      36.296 -22.920 -12.315  0.00  0.00    -0.270 OA
ATOM      3  N   UNL     1      33.587 -22.021 -17.378  0.00  0.00    -0.353 N 
ATOM      4  N   UNL     1      37.505 -22.401 -14.170  0.00  0.00    -0.301 N 
ATOM      5  C   UNL     1      35.592 -21.665 -16.487  0.00  0.00    -0.003 A 
ATOM      6  C   UNL     1      34.836 -22.470 -15.579  0.00  0.00    +0.018 A 
ATOM      7  C   UNL     1      37.004 -21.241 -16.299  0.00  0.00    +0.049 C 
ATOM      8  C   UNL     1      34.787 -21.399 -17.574  0.00  0.00    +0.053 A 
ATOM      9  C   UNL     1      33.591 -22.691 -16.177  0.00  0.00    +0.059 A 
ATOM     10  C   UNL     1      35.092 -23.037 -14.310  0.00  0.00    +0.057 C 
ATOM     11  C   UNL     1      37.807 -22.324 -15.591  0.00  0.00    +0.094 C 
ATOM     12  C   UNL     1      36.336 -22.787 -13.540  0.00  0.00    +0.246 C 
ATOM     13  C   UNL     1      32.588 -23.466 -15.585  0.00  0.00    +0.047 C 
ATOM     14  C   UNL     1      34.084 -23.817 -13.708  0.00  0.00    +0.034 C 
ATOM     15  C   UNL     1      32.860 -24.030 -14.340  0.00  0.00    +0.142 C 
ATOM     16  H   UNL     1      32.829 -21.994 -18.005  0.00  0.00    +0.166 HD
ATOM     17  H   UNL     1      38.240 -22.141 -13.569  0.00  0.00    +0.150 HD
ENDROOT
BRANCH   8  18
ATOM     18  C   UNL     1      35.046 -20.634 -18.773  0.00  0.00    +0.015 C 
ATOM     19  C   UNL     1      36.354 -20.294 -19.111  0.00  0.00    +0.001 C 
ATOM     20  C   UNL     1      33.986 -20.239 -19.588  0.00  0.00    +0.001 C 
ATOM     21  C   UNL     1      35.544 -19.160 -21.085  0.00  0.00    -0.044 C 
ATOM     22  C   UNL     1      36.604 -19.556 -20.268  0.00  0.00    -0.006 C 
ATOM     23  C   UNL     1      34.237 -19.501 -20.745  0.00  0.00    -0.006 C 
BRANCH  21  24
ATOM     24  C   UNL     1      35.811 -18.371 -22.322  0.00  0.00    -0.054 C 
BRANCH  24  25
ATOM     25  N   UNL     1      36.327 -17.056 -22.032  0.00  0.00    +0.385 N 
ATOM     26  C   UNL     1      35.308 -16.202 -21.424  0.00  0.00    -0.105 C 
ATOM     27  H   UNL     1      36.643 -16.626 -22.902  0.00  0.00    -0.084 HD
ATOM     28  H   UNL     1      37.098 -17.153 -21.373  0.00  0.00    -0.084 HD
ENDBRANCH  24  25
ENDBRANCH  21  24
ENDBRANCH   8  18
TORSDOF 3
ENDMDL
MODEL 3
REMARK VINA RESULT:      -9.9      8.687     13.618
REMARK  Name = 9931954
REMARK  3 active torsions:
REMARK  status: ('A' for Active; 'I' for Inactive)
REMARK    1  A    between atoms: C_8  and  C_18
REMARK    2  A    between atoms: C_21  and  C_24
REMARK    3  A    between atoms: C_24  and  N_25
REMARK                            x       y       z     vdW  Elec       q    Type
REMARK                         _______ _______ _______ _____ _____    ______ ____
ROOT
ATOM      1  F   UNL     1      34.553  -6.216 -24.495  0.00  0.00    -0.204 F 
ATOM      2  O   UNL     1      32.203  -7.364 -20.285  0.00  0.00    -0.270 OA
ATOM      3  N   UNL     1      34.710 -11.049 -24.015  0.00  0.00    -0.353 N 
ATOM      4  N   UNL     1      31.464  -9.510 -20.425  0.00  0.00    -0.301 N 
ATOM      5  C   UNL     1      33.346 -11.140 -22.262  0.00  0.00    -0.003 A 
ATOM      6  C   UNL     1      33.512  -9.768 -22.628  0.00  0.00    +0.018 A 
ATOM      7  C   UNL     1      32.471 -11.645 -21.172  0.00  0.00    +0.049 C 
ATOM      8  C   UNL     1      34.107 -11.896 -23.128  0.00  0.00    +0.053 A 
ATOM      9  C   UNL     1      34.357  -9.748 -23.743  0.00  0.00    +0.059 A 
ATOM     10  C   UNL     1      33.021  -8.543 -22.124  0.00  0.00    +0.057 C 
ATOM     11  C   UNL     1      31.210 -10.799 -21.050  0.00  0.00    +0.094 C 
ATOM     12  C   UNL     1      32.200  -8.437 -20.892  0.00  0.00    +0.246 C 
ATOM     13  C   UNL     1      34.727  -8.569 -24.398  0.00  0.00    +0.047 C 
ATOM     14  C   UNL     1      33.393  -7.351 -22.780  0.00  0.00    +0.034 C 
ATOM     15  C   UNL     1      34.224  -7.369 -23.898  0.00  0.00    +0.142 C 
ATOM     16  H   UNL     1      35.310 -11.330 -24.742  0.00  0.00    +0.166 HD
ATOM     17  H   UNL     1      31.053  -9.383 -19.540  0.00  0.00    +0.150 HD
ENDROOT
BRANCH   8  18
ATOM     18  C   UNL     1      34.305 -13.325 -23.206  0.00  0.00    +0.015 C 
ATOM     19  C   UNL     1      33.852 -14.029 -24.320  0.00  0.00    +0.001 C 
ATOM     20  C   UNL     1      34.947 -13.996 -22.166  0.00  0.00    +0.001 C 
ATOM     21  C   UNL     1      34.686 -16.082 -23.356  0.00  0.00    -0.044 C 
ATOM     22  C   UNL     1      34.043 -15.409 -24.395  0.00  0.00    -0.006 C 
ATOM     23  C   UNL     1      35.138 -15.376 -22.243  0.00  0.00    -0.006 C 
BRANCH  21  24
ATOM     24  C   UNL     1      34.890 -17.557 -23.437  0.00  0.00    -0.054 C 
BRANCH  24  25
ATOM     25  N   UNL     1      35.711 -18.056 -22.362  0.00  0.00    +0.385 N 
ATOM     26  C   UNL     1      34.950 -18.925 -21.466  0.00  0.00    -0.105 C 
ATOM     27  H   UNL     1      36.074 -17.266 -21.828  0.00  0.00    -0.084 HD
ATOM     28  H   UNL     1      36.471 -18.602 -22.767  0.00  0.00    -0.084 HD
ENDBRANCH  24  25
ENDBRANCH  21  24
ENDBRANCH   8  18
TORSDOF 3
ENDMDL
MODEL 4
REMARK VINA RESULT:      -9.8      9.480     14.499
REMARK  Name = 9931954
REMARK  3 active torsions:
REMARK  status: ('A' for Active; 'I' for Inactive)
REMARK    1  A    between atoms: C_8  and  C_18
REMARK    2  A    between atoms: C_21  and  C_24
REMARK    3  A    between atoms: C_24  and  N_25
REMARK                            x       y       z     vdW  Elec       q    Type
REMARK                         _______ _______ _______ _____ _____    ______ ____
ROOT
ATOM      1  F   UNL     1      31.299  -6.152 -20.585  0.00  0.00    -0.204 F 
ATOM      2  O   UNL     1      33.898  -5.607 -24.770  0.00  0.00    -0.270 OA
ATOM      3  N   UNL     1      32.801 -10.568 -21.948  0.00  0.00    -0.353 N 
ATOM      4  N   UNL     1      35.324  -7.365 -24.976  0.00  0.00    -0.301 N 
ATOM      5  C   UNL     1      34.113  -9.855 -23.594  0.00  0.00    -0.003 A 
ATOM      6  C   UNL     1      33.489  -8.717 -22.996  0.00  0.00    +0.018 A 
ATOM      7  C   UNL     1      35.108  -9.816 -24.698  0.00  0.00    +0.049 C 
ATOM      8  C   UNL     1      33.656 -10.975 -22.933  0.00  0.00    +0.053 A 
ATOM      9  C   UNL     1      32.688  -9.197 -21.954  0.00  0.00    +0.059 A 
ATOM     10  C   UNL     1      33.532  -7.325 -23.234  0.00  0.00    +0.057 C 
ATOM     11  C   UNL     1      36.003  -8.590 -24.580  0.00  0.00    +0.094 C 
ATOM     12  C   UNL     1      34.267  -6.713 -24.370  0.00  0.00    +0.246 C 
ATOM     13  C   UNL     1      31.939  -8.361 -21.121  0.00  0.00    +0.047 C 
ATOM     14  C   UNL     1      32.777  -6.477 -22.398  0.00  0.00    +0.034 C 
ATOM     15  C   UNL     1      32.002  -6.989 -21.359  0.00  0.00    +0.142 C 
ATOM     16  H   UNL     1      32.333 -11.169 -21.325  0.00  0.00    +0.166 HD
ATOM     17  H   UNL     1      35.667  -6.939 -25.794  0.00  0.00    +0.150 HD
ENDROOT
BRANCH   8  18
ATOM     18  C   UNL     1      33.958 -12.374 -23.130  0.00  0.00    +0.015 C 
ATOM     19  C   UNL     1      34.660 -13.078 -22.153  0.00  0.00    +0.001 C 
ATOM     20  C   UNL     1      33.547 -13.017 -24.297  0.00  0.00    +0.001 C 
ATOM     21  C   UNL     1      34.540 -15.073 -23.510  0.00  0.00    -0.044 C 
ATOM     22  C   UNL     1      34.951 -14.429 -22.343  0.00  0.00    -0.006 C 
ATOM     23  C   UNL     1      33.839 -14.368 -24.486  0.00  0.00    -0.006 C 
BRANCH  21  24
ATOM     24  C   UNL     1      34.852 -16.517 -23.714  0.00  0.00    -0.054 C 
BRANCH  24  25
ATOM     25  N   UNL     1      35.829 -17.005 -22.773  0.00  0.00    +0.385 N 
ATOM     26  C   UNL     1      35.464 -18.322 -22.255  0.00  0.00    -0.105 C 
ATOM     27  H   UNL     1      35.895 -16.349 -21.994  0.00  0.00    -0.084 HD
ATOM     28  H   UNL     1      36.724 -17.087 -23.255  0.00  0.00    -0.084 HD
ENDBRANCH  24  25
ENDBRANCH  21  24
ENDBRANCH   8  18
TORSDOF 3
ENDMDL
MODEL 5
REMARK VINA RESULT:      -9.6      7.997     12.815
REMARK  Name = 9931954
REMARK  3 active torsions:
REMARK  status: ('A' for Active; 'I' for Inactive)
REMARK    1  A    between atoms: C_8  and  C_18
REMARK    2  A    between atoms: C_21  and  C_24
REMARK    3  A    between atoms: C_24  and  N_25
REMARK                            x       y       z     vdW  Elec       q    Type
REMARK                         _______ _______ _______ _____ _____    ______ ____
ROOT
ATOM      1  F   UNL     1      33.599  -7.062 -24.431  0.00  0.00    -0.204 F 
ATOM      2  O   UNL     1      31.926  -8.018 -19.864  0.00  0.00    -0.270 OA
ATOM      3  N   UNL     1      34.505 -11.745 -23.503  0.00  0.00    -0.353 N 
ATOM      4  N   UNL     1      31.495 -10.244 -19.698  0.00  0.00    -0.301 N 
ATOM      5  C   UNL     1      33.374 -11.813 -21.590  0.00  0.00    -0.003 A 
ATOM      6  C   UNL     1      33.298 -10.482 -22.107  0.00  0.00    +0.018 A 
ATOM      7  C   UNL     1      32.708 -12.300 -20.354  0.00  0.00    +0.049 C 
ATOM      8  C   UNL     1      34.134 -12.556 -22.467  0.00  0.00    +0.053 A 
ATOM      9  C   UNL     1      34.000 -10.479 -23.317  0.00  0.00    +0.059 A 
ATOM     10  C   UNL     1      32.694  -9.282 -21.668  0.00  0.00    +0.057 C 
ATOM     11  C   UNL     1      31.361 -11.619 -20.157  0.00  0.00    +0.094 C 
ATOM     12  C   UNL     1      32.010  -9.145 -20.358  0.00  0.00    +0.246 C 
ATOM     13  C   UNL     1      34.120  -9.345 -24.126  0.00  0.00    +0.047 C 
ATOM     14  C   UNL     1      32.814  -8.135 -22.479  0.00  0.00    +0.034 C 
ATOM     15  C   UNL     1      33.508  -8.172 -23.686  0.00  0.00    +0.142 C 
ATOM     16  H   UNL     1      35.054 -12.026 -24.270  0.00  0.00    +0.166 HD
ATOM     17  H   UNL     1      31.171 -10.072 -18.785  0.00  0.00    +0.150 HD
ENDROOT
BRANCH   8  18
ATOM     18  C   UNL     1      34.526 -13.947 -22.429  0.00  0.00    +0.015 C 
ATOM     19  C   UNL     1      34.895 -14.532 -21.220  0.00  0.00    +0.001 C 
ATOM     20  C   UNL     1      34.535 -14.699 -23.603  0.00  0.00    +0.001 C 
ATOM     21  C   UNL     1      35.283 -16.628 -22.357  0.00  0.00    -0.044 C 
ATOM     22  C   UNL     1      35.274 -15.874 -21.183  0.00  0.00    -0.006 C 
ATOM     23  C   UNL     1      34.914 -16.041 -23.566  0.00  0.00    -0.006 C 
BRANCH  21  24
ATOM     24  C   UNL     1      35.687 -18.063 -22.317  0.00  0.00    -0.054 C 
BRANCH  24  25
ATOM     25  N   UNL     1      34.823 -18.853 -21.477  0.00  0.00    +0.385 N 
ATOM     26  C   UNL     1      35.562 -19.468 -20.375  0.00  0.00    -0.105 C 
ATOM     27  H   UNL     1      34.396 -19.589 -22.040  0.00  0.00    -0.084 HD
ATOM     28  H   UNL     1      34.112 -18.238 -21.082  0.00  0.00    -0.084 HD
ENDBRANCH  24  25
ENDBRANCH  21  24
ENDBRANCH   8  18
TORSDOF 3
ENDMDL
MODEL 6
REMARK VINA RESULT:      -9.6      9.130     13.434
REMARK  Name = 9931954
REMARK  3 active torsions:
REMARK  status: ('A' for Active; 'I' for Inactive)
REMARK    1  A    between atoms: C_8  and  C_18
REMARK    2  A    between atoms: C_21  and  C_24
REMARK    3  A    between atoms: C_24  and  N_25
REMARK                            x       y       z     vdW  Elec       q    Type
REMARK                         _______ _______ _______ _____ _____    ______ ____
ROOT
ATOM      1  F   UNL     1      32.871  -5.657 -23.339  0.00  0.00    -0.204 F 
ATOM      2  O   UNL     1      31.921  -7.571 -18.867  0.00  0.00    -0.270 OA
ATOM      3  N   UNL     1      33.750 -10.431 -23.584  0.00  0.00    -0.353 N 
ATOM      4  N   UNL     1      31.443  -9.780 -19.106  0.00  0.00    -0.301 N 
ATOM      5  C   UNL     1      32.938 -10.907 -21.570  0.00  0.00    -0.003 A 
ATOM      6  C   UNL     1      32.827  -9.497 -21.774  0.00  0.00    +0.018 A 
ATOM      7  C   UNL     1      32.463 -11.648 -20.373  0.00  0.00    +0.049 C 
ATOM      8  C   UNL     1      33.521 -11.445 -22.697  0.00  0.00    +0.053 A 
ATOM      9  C   UNL     1      33.326  -9.234 -23.055  0.00  0.00    +0.059 A 
ATOM     10  C   UNL     1      32.344  -8.419 -20.998  0.00  0.00    +0.057 C 
ATOM     11  C   UNL     1      31.189 -11.025 -19.817  0.00  0.00    +0.094 C 
ATOM     12  C   UNL     1      31.885  -8.565 -19.595  0.00  0.00    +0.246 C 
ATOM     13  C   UNL     1      33.354  -7.953 -23.614  0.00  0.00    +0.047 C 
ATOM     14  C   UNL     1      32.373  -7.125 -21.557  0.00  0.00    +0.034 C 
ATOM     15  C   UNL     1      32.863  -6.901 -22.842  0.00  0.00    +0.142 C 
ATOM     16  H   UNL     1      34.158 -10.541 -24.473  0.00  0.00    +0.166 HD
ATOM     17  H   UNL     1      31.277  -9.808 -18.137  0.00  0.00    +0.150 HD
ENDROOT
BRANCH   8  18
ATOM     18  C   UNL     1      33.865 -12.811 -23.019  0.00  0.00    +0.015 C 
ATOM     19  C   UNL     1      34.622 -13.566 -22.125  0.00  0.00    +0.001 C 
ATOM     20  C   UNL     1      33.439 -13.371 -24.223  0.00  0.00    +0.001 C 
ATOM     21  C   UNL     1      34.528 -15.446 -23.640  0.00  0.00    -0.044 C 
ATOM     22  C   UNL     1      34.954 -14.885 -22.436  0.00  0.00    -0.006 C 
ATOM     23  C   UNL     1      33.771 -14.690 -24.533  0.00  0.00    -0.006 C 
BRANCH  21  24
ATOM     24  C   UNL     1      34.883 -16.856 -23.972  0.00  0.00    -0.054 C 
BRANCH  24  25
ATOM     25  N   UNL     1      35.605 -17.505 -22.906  0.00  0.00    +0.385 N 
ATOM     26  C   UNL     1      34.883 -18.673 -22.404  0.00  0.00    -0.105 C 
ATOM     27  H   UNL     1      35.734 -16.842 -22.141  0.00  0.00    -0.084 HD
ATOM     28  H   UNL     1      36.503 -17.818 -23.272  0.00  0.00    -0.084 HD
ENDBRANCH  24  25
ENDBRANCH  21  24
ENDBRANCH   8  18
TORSDOF 3
ENDMDL
MODEL 7
REMARK VINA RESULT:      -9.4      6.186     10.531
REMARK  Name = 9931954
REMARK  3 active torsions:
REMARK  status: ('A' for Active; 'I' for Inactive)
REMARK    1  A    between atoms: C_8  and  C_18
REMARK    2  A    between atoms: C_21  and  C_24
REMARK    3  A    between atoms: C_24  and  N_25
REMARK                            x       y       z     vdW  Elec       q    Type
REMARK                         _______ _______ _______ _____ _____    ______ ____
ROOT
ATOM      1  F   UNL     1      33.944 -13.464 -26.642  0.00  0.00    -0.204 F 
ATOM      2  O   UNL     1      34.003 -11.117 -22.276  0.00  0.00    -0.270 OA
ATOM      3  N   UNL     1      35.167 -16.727 -23.255  0.00  0.00    -0.353 N 
ATOM      4  N   UNL     1      33.681 -12.645 -20.624  0.00  0.00    -0.301 N 
ATOM      5  C   UNL     1      34.786 -15.393 -21.518  0.00  0.00    -0.003 A 
ATOM      6  C   UNL     1      34.518 -14.657 -22.713  0.00  0.00    +0.018 A 
ATOM      7  C   UNL     1      34.605 -14.889 -20.131  0.00  0.00    +0.049 C 
ATOM      8  C   UNL     1      35.194 -16.656 -21.890  0.00  0.00    +0.053 A 
ATOM      9  C   UNL     1      34.748 -15.528 -23.783  0.00  0.00    +0.059 A 
ATOM     10  C   UNL     1      34.097 -13.337 -22.989  0.00  0.00    +0.057 C 
ATOM     11  C   UNL     1      33.408 -13.952 -20.045  0.00  0.00    +0.094 C 
ATOM     12  C   UNL     1      33.919 -12.301 -21.941  0.00  0.00    +0.246 C 
ATOM     13  C   UNL     1      34.562 -15.160 -25.119  0.00  0.00    +0.047 C 
ATOM     14  C   UNL     1      33.910 -12.960 -24.335  0.00  0.00    +0.034 C 
ATOM     15  C   UNL     1      34.134 -13.858 -25.376  0.00  0.00    +0.142 C 
ATOM     16  H   UNL     1      35.412 -17.520 -23.783  0.00  0.00    +0.166 HD
ATOM     17  H   UNL     1      33.699 -11.898 -19.984  0.00  0.00    +0.150 HD
ENDROOT
BRANCH   8  18
ATOM     18  C   UNL     1      35.589 -17.793 -21.091  0.00  0.00    +0.015 C 
ATOM     19  C   UNL     1      34.623 -18.684 -20.626  0.00  0.00    +0.001 C 
ATOM     20  C   UNL     1      36.934 -17.996 -20.786  0.00  0.00    +0.001 C 
ATOM     21  C   UNL     1      36.350 -19.986 -19.548  0.00  0.00    -0.044 C 
ATOM     22  C   UNL     1      35.004 -19.782 -19.854  0.00  0.00    -0.006 C 
ATOM     23  C   UNL     1      37.314 -19.094 -20.014  0.00  0.00    -0.006 C 
BRANCH  21  24
ATOM     24  C   UNL     1      36.757 -21.159 -18.723  0.00  0.00    -0.054 C 
BRANCH  24  25
ATOM     25  N   UNL     1      36.169 -21.134 -17.407  0.00  0.00    +0.385 N 
ATOM     26  C   UNL     1      37.181 -21.293 -16.364  0.00  0.00    -0.105 C 
ATOM     27  H   UNL     1      35.493 -21.895 -17.332  0.00  0.00    -0.084 HD
ATOM     28  H   UNL     1      35.715 -20.231 -17.277  0.00  0.00    -0.084 HD
ENDBRANCH  24  25
ENDBRANCH  21  24
ENDBRANCH   8  18
TORSDOF 3
ENDMDL
MODEL 8
REMARK VINA RESULT:      -9.3     10.299     14.158
REMARK  Name = 9931954
REMARK  3 active torsions:
REMARK  status: ('A' for Active; 'I' for Inactive)
REMARK    1  A    between atoms: C_8  and  C_18
REMARK    2  A    between atoms: C_21  and  C_24
REMARK    3  A    between atoms: C_24  and  N_25
REMARK                            x       y       z     vdW  Elec       q    Type
REMARK                         _______ _______ _______ _____ _____    ______ ____
ROOT
ATOM      1  F   UNL     1      31.968 -14.065 -18.756  0.00  0.00    -0.204 F 
ATOM      2  O   UNL     1      35.213 -14.143 -22.501  0.00  0.00    -0.270 OA
ATOM      3  N   UNL     1      31.926  -9.659 -20.806  0.00  0.00    -0.353 N 
ATOM      4  N   UNL     1      34.636 -12.533 -23.998  0.00  0.00    -0.301 N 
ATOM      5  C   UNL     1      33.216 -10.208 -22.531  0.00  0.00    -0.003 A 
ATOM      6  C   UNL     1      33.066 -11.362 -21.701  0.00  0.00    +0.018 A 
ATOM      7  C   UNL     1      33.959 -10.158 -23.817  0.00  0.00    +0.049 C 
ATOM      8  C   UNL     1      32.513  -9.179 -21.943  0.00  0.00    +0.053 A 
ATOM      9  C   UNL     1      32.235 -10.989 -20.639  0.00  0.00    +0.059 A 
ATOM     10  C   UNL     1      33.549 -12.689 -21.753  0.00  0.00    +0.057 C 
ATOM     11  C   UNL     1      33.824 -11.472 -24.575  0.00  0.00    +0.094 C 
ATOM     12  C   UNL     1      34.512 -13.167 -22.776  0.00  0.00    +0.246 C 
ATOM     13  C   UNL     1      31.844 -11.875 -19.630  0.00  0.00    +0.047 C 
ATOM     14  C   UNL     1      33.159 -13.585 -20.737  0.00  0.00    +0.034 C 
ATOM     15  C   UNL     1      32.318 -13.184 -19.702  0.00  0.00    +0.142 C 
ATOM     16  H   UNL     1      31.365  -9.131 -20.195  0.00  0.00    +0.166 HD
ATOM     17  H   UNL     1      35.382 -12.844 -24.559  0.00  0.00    +0.150 HD
ENDROOT
BRANCH   8  18
ATOM     18  C   UNL     1      32.332  -7.806 -22.354  0.00  0.00    +0.015 C 
ATOM     19  C   UNL     1      32.482  -6.777 -21.426  0.00  0.00    +0.001 C 
ATOM     20  C   UNL     1      32.008  -7.513 -23.678  0.00  0.00    +0.001 C 
ATOM     21  C   UNL     1      31.983  -5.157 -23.148  0.00  0.00    -0.044 C 
ATOM     22  C   UNL     1      32.307  -5.451 -21.823  0.00  0.00    -0.006 C 
ATOM     23  C   UNL     1      31.834  -6.187 -24.075  0.00  0.00    -0.006 C 
BRANCH  21  24
ATOM     24  C   UNL     1      31.797  -3.740 -23.572  0.00  0.00    -0.054 C 
BRANCH  24  25
ATOM     25  N   UNL     1      31.486  -2.872 -22.464  0.00  0.00    +0.385 N 
ATOM     26  C   UNL     1      32.532  -1.872 -22.256  0.00  0.00    -0.105 C 
ATOM     27  H   UNL     1      31.393  -3.435 -21.618  0.00  0.00    -0.084 HD
ATOM     28  H   UNL     1      30.615  -2.385 -22.673  0.00  0.00    -0.084 HD
ENDBRANCH  24  25
ENDBRANCH  21  24
ENDBRANCH   8  18
TORSDOF 3
ENDMDL
MODEL 9
REMARK VINA RESULT:      -9.3      4.011      7.851
REMARK  Name = 9931954
REMARK  3 active torsions:
REMARK  status: ('A' for Active; 'I' for Inactive)
REMARK    1  A    between atoms: C_8  and  C_18
REMARK    2  A    between atoms: C_21  and  C_24
REMARK    3  A    between atoms: C_24  and  N_25
REMARK                            x       y       z     vdW  Elec       q    Type
REMARK                         _______ _______ _______ _____ _____    ______ ____
ROOT
ATOM      1  F   UNL     1      36.923 -18.185 -21.473  0.00  0.00    -0.204 F 
ATOM      2  O   UNL     1      32.450 -19.822 -20.101  0.00  0.00    -0.270 OA
ATOM      3  N   UNL     1      37.500 -20.719 -17.367  0.00  0.00    -0.353 N 
ATOM      4  N   UNL     1      32.718 -21.662 -18.793  0.00  0.00    -0.301 N 
ATOM      5  C   UNL     1      35.415 -21.485 -17.287  0.00  0.00    -0.003 A 
ATOM      6  C   UNL     1      35.539 -20.648 -18.438  0.00  0.00    +0.018 A 
ATOM      7  C   UNL     1      34.197 -22.240 -16.893  0.00  0.00    +0.049 C 
ATOM      8  C   UNL     1      36.636 -21.495 -16.647  0.00  0.00    +0.053 A 
ATOM      9  C   UNL     1      36.864 -20.200 -18.470  0.00  0.00    +0.059 A 
ATOM     10  C   UNL     1      34.656 -20.232 -19.460  0.00  0.00    +0.057 C 
ATOM     11  C   UNL     1      33.440 -22.731 -18.120  0.00  0.00    +0.094 C 
ATOM     12  C   UNL     1      33.209 -20.564 -19.474  0.00  0.00    +0.246 C 
ATOM     13  C   UNL     1      37.364 -19.371 -19.479  0.00  0.00    +0.047 C 
ATOM     14  C   UNL     1      35.155 -19.395 -20.478  0.00  0.00    +0.034 C 
ATOM     15  C   UNL     1      36.485 -18.980 -20.487  0.00  0.00    +0.142 C 
ATOM     16  H   UNL     1      38.441 -20.556 -17.130  0.00  0.00    +0.166 HD
ATOM     17  H   UNL     1      31.737 -21.731 -18.759  0.00  0.00    +0.150 HD
ENDROOT
BRANCH   8  18
ATOM     18  C   UNL     1      37.063 -22.171 -15.443  0.00  0.00    +0.015 C 
ATOM     19  C   UNL     1      38.304 -22.804 -15.405  0.00  0.00    +0.001 C 
ATOM     20  C   UNL     1      36.233 -22.186 -14.323  0.00  0.00    +0.001 C 
ATOM     21  C   UNL     1      37.887 -23.473 -13.120  0.00  0.00    -0.044 C 
ATOM     22  C   UNL     1      38.716 -23.456 -14.242  0.00  0.00    -0.006 C 
ATOM     23  C   UNL     1      36.646 -22.838 -13.161  0.00  0.00    -0.006 C 
BRANCH  21  24
ATOM     24  C   UNL     1      38.328 -24.170 -11.878  0.00  0.00    -0.054 C 
BRANCH  24  25
ATOM     25  N   UNL     1      37.548 -25.351 -11.606  0.00  0.00    +0.385 N 
ATOM     26  C   UNL     1      37.492 -26.236 -12.769  0.00  0.00    -0.105 C 
ATOM     27  H   UNL     1      36.599 -25.072 -11.357  0.00  0.00    -0.084 HD
ATOM     28  H   UNL     1      37.991 -25.858 -10.840  0.00  0.00    -0.084 HD
ENDBRANCH  24  25
ENDBRANCH  21  24
ENDBRANCH   8  18
TORSDOF 3
ENDMDL
