MODEL 1
REMARK VINA RESULT:     -12.8      0.000      0.000
REMARK  Name = 11282283
REMARK  4 active torsions:
REMARK  status: ('A' for Active; 'I' for Inactive)
REMARK    1  A    between atoms: N_3  and  C_21
REMARK    2  A    between atoms: C_21  and  N_22
REMARK    3  A    between atoms: N_22  and  C_24
REMARK    4  A    between atoms: C_24  and  C_27
REMARK                            x       y       z     vdW  Elec       q    Type
REMARK                         _______ _______ _______ _____ _____    ______ ____
ROOT
ATOM      1  O   UNL     1      34.627 -10.550 -23.327  0.00  0.00    -0.466 OA
ATOM      2  N   UNL     1      33.630 -12.897 -21.859  0.00  0.00    -0.290 N 
ATOM      3  N   UNL     1      34.886 -15.486 -21.939  0.00  0.00    -0.288 N 
ATOM      4  N   UNL     1      31.904 -11.436 -21.086  0.00  0.00    -0.230 NA
ATOM      5  N   UNL     1      31.804  -9.091 -21.761  0.00  0.00    -0.245 NA
ATOM      6  C   UNL     1      33.550 -13.806 -20.710  0.00  0.00    +0.113 C 
ATOM      7  C   UNL     1      34.365 -13.338 -23.049  0.00  0.00    +0.113 C 
ATOM      8  C   UNL     1      34.747 -14.755 -20.688  0.00  0.00    +0.114 C 
ATOM      9  C   UNL     1      34.370 -14.862 -23.148  0.00  0.00    +0.114 C 
ATOM     10  C   UNL     1      33.019 -11.645 -21.821  0.00  0.00    +0.152 C 
ATOM     11  C   UNL     1      33.529 -10.576 -22.528  0.00  0.00    +0.258 C 
ATOM     12  C   UNL     1      32.922  -9.329 -22.489  0.00  0.00    +0.106 C 
ATOM     13  C   UNL     1      33.698  -8.479 -23.319  0.00  0.00    +0.051 C 
ATOM     14  C   UNL     1      34.732  -9.277 -23.808  0.00  0.00    +0.141 C 
ATOM     15  C   UNL     1      31.373 -10.189 -21.101  0.00  0.00    +0.251 C 
ATOM     16  C   UNL     1      33.647  -7.131 -23.712  0.00  0.00    +0.004 C 
ATOM     17  C   UNL     1      35.727  -8.818 -24.670  0.00  0.00    +0.037 C 
ATOM     18  C   UNL     1      34.635  -6.643 -24.578  0.00  0.00    +0.000 C 
ATOM     19  C   UNL     1      35.655  -7.474 -25.047  0.00  0.00    +0.003 C 
ENDROOT
BRANCH   3  21
ATOM     20  S   UNL     1      35.543 -17.594 -23.393  0.00  0.00    -0.019 S 
ATOM     21  C   UNL     1      35.477 -16.707 -21.976  0.00  0.00    +0.135 C 
BRANCH  21  22
ATOM     22  N   UNL     1      36.019 -17.188 -20.811  0.00  0.00    -0.312 N 
ATOM     23  H   UNL     1      36.068 -16.565 -20.050  0.00  0.00    +0.149 HD
BRANCH  22  24
ATOM     24  C   UNL     1      36.526 -18.529 -20.596  0.00  0.00    +0.116 C 
BRANCH  24  27
ATOM     25  O   UNL     1      35.141 -22.099 -17.478  0.00  0.00    -0.435 OA
ATOM     26  O   UNL     1      32.821 -21.899 -18.097  0.00  0.00    -0.435 OA
ATOM     27  C   UNL     1      35.506 -19.418 -19.945  0.00  0.00    +0.001 C 
ATOM     28  C   UNL     1      35.914 -20.345 -18.992  0.00  0.00    +0.038 C 
ATOM     29  C   UNL     1      34.158 -19.296 -20.310  0.00  0.00    +0.001 C 
ATOM     30  C   UNL     1      34.939 -21.139 -18.421  0.00  0.00    +0.176 C 
ATOM     31  C   UNL     1      33.614 -21.025 -18.775  0.00  0.00    +0.176 C 
ATOM     32  C   UNL     1      33.191 -20.111 -19.719  0.00  0.00    +0.040 C 
ATOM     33  C   UNL     1      33.795 -22.575 -17.277  0.00  0.00    +0.429 C 
ENDBRANCH  24  27
ENDBRANCH  22  24
ENDBRANCH  21  22
ENDBRANCH   3  21
TORSDOF 4
ENDMDL
MODEL 2
REMARK VINA RESULT:     -12.2      1.770      3.342
REMARK  Name = 11282283
REMARK  4 active torsions:
REMARK  status: ('A' for Active; 'I' for Inactive)
REMARK    1  A    between atoms: N_3  and  C_21
REMARK    2  A    between atoms: C_21  and  N_22
REMARK    3  A    between atoms: N_22  and  C_24
REMARK    4  A    between atoms: C_24  and  C_27
REMARK                            x       y       z     vdW  Elec       q    Type
REMARK                         _______ _______ _______ _____ _____    ______ ____
ROOT
ATOM      1  O   UNL     1      32.893 -11.921 -21.167  0.00  0.00    -0.466 OA
ATOM      2  N   UNL     1      34.045 -13.325 -23.482  0.00  0.00    -0.290 N 
ATOM      3  N   UNL     1      34.571 -16.155 -23.537  0.00  0.00    -0.288 N 
ATOM      4  N   UNL     1      34.073 -11.175 -24.524  0.00  0.00    -0.230 NA
ATOM      5  N   UNL     1      33.268  -9.176 -23.375  0.00  0.00    -0.245 NA
ATOM      6  C   UNL     1      33.985 -14.076 -24.741  0.00  0.00    +0.113 C 
ATOM      7  C   UNL     1      34.379 -14.051 -22.251  0.00  0.00    +0.113 C 
ATOM      8  C   UNL     1      33.647 -15.542 -24.480  0.00  0.00    +0.114 C 
ATOM      9  C   UNL     1      35.218 -15.288 -22.564  0.00  0.00    +0.114 C 
ATOM     10  C   UNL     1      33.794 -11.955 -23.456  0.00  0.00    +0.152 C 
ATOM     11  C   UNL     1      33.250 -11.346 -22.344  0.00  0.00    +0.258 C 
ATOM     12  C   UNL     1      32.998  -9.982 -22.318  0.00  0.00    +0.106 C 
ATOM     13  C   UNL     1      32.449  -9.699 -21.041  0.00  0.00    +0.051 C 
ATOM     14  C   UNL     1      32.405 -10.923 -20.374  0.00  0.00    +0.141 C 
ATOM     15  C   UNL     1      33.797  -9.852 -24.419  0.00  0.00    +0.251 C 
ATOM     16  C   UNL     1      31.984  -8.553 -20.374  0.00  0.00    +0.004 C 
ATOM     17  C   UNL     1      31.925 -11.084 -19.075  0.00  0.00    +0.037 C 
ATOM     18  C   UNL     1      31.497  -8.686 -19.066  0.00  0.00    +0.000 C 
ATOM     19  C   UNL     1      31.469  -9.930 -18.431  0.00  0.00    +0.003 C 
ENDROOT
BRANCH   3  21
ATOM     20  S   UNL     1      34.020 -18.495 -24.636  0.00  0.00    -0.019 S 
ATOM     21  C   UNL     1      34.819 -17.489 -23.565  0.00  0.00    +0.135 C 
BRANCH  21  22
ATOM     22  N   UNL     1      35.749 -17.982 -22.685  0.00  0.00    -0.312 N 
ATOM     23  H   UNL     1      36.403 -18.626 -23.041  0.00  0.00    +0.149 HD
BRANCH  22  24
ATOM     24  C   UNL     1      35.860 -17.641 -21.281  0.00  0.00    +0.116 C 
BRANCH  24  27
ATOM     25  O   UNL     1      33.022 -20.953 -18.967  0.00  0.00    -0.435 OA
ATOM     26  O   UNL     1      34.921 -22.074 -17.995  0.00  0.00    -0.435 OA
ATOM     27  C   UNL     1      35.644 -18.834 -20.395  0.00  0.00    +0.001 C 
ATOM     28  C   UNL     1      34.349 -19.277 -20.146  0.00  0.00    +0.038 C 
ATOM     29  C   UNL     1      36.753 -19.480 -19.833  0.00  0.00    +0.001 C 
ATOM     30  C   UNL     1      34.201 -20.377 -19.326  0.00  0.00    +0.176 C 
ATOM     31  C   UNL     1      35.285 -21.017 -18.771  0.00  0.00    +0.176 C 
ATOM     32  C   UNL     1      36.577 -20.591 -19.006  0.00  0.00    +0.040 C 
ATOM     33  C   UNL     1      33.485 -22.028 -18.125  0.00  0.00    +0.429 C 
ENDBRANCH  24  27
ENDBRANCH  22  24
ENDBRANCH  21  22
ENDBRANCH   3  21
TORSDOF 4
ENDMDL
MODEL 3
REMARK VINA RESULT:     -12.0      1.609      2.357
REMARK  Name = 11282283
REMARK  4 active torsions:
REMARK  status: ('A' for Active; 'I' for Inactive)
REMARK    1  A    between atoms: N_3  and  C_21
REMARK    2  A    between atoms: C_21  and  N_22
REMARK    3  A    between atoms: N_22  and  C_24
REMARK    4  A    between atoms: C_24  and  C_27
REMARK                            x       y       z     vdW  Elec       q    Type
REMARK                         _______ _______ _______ _____ _____    ______ ____
ROOT
ATOM      1  O   UNL     1      33.102  -9.493 -22.184  0.00  0.00    -0.466 OA
ATOM      2  N   UNL     1      33.119 -12.238 -21.127  0.00  0.00    -0.290 N 
ATOM      3  N   UNL     1      34.392 -14.455 -22.451  0.00  0.00    -0.288 N 
ATOM      4  N   UNL     1      31.856 -11.337 -19.309  0.00  0.00    -0.230 NA
ATOM      5  N   UNL     1      31.257  -8.971 -19.206  0.00  0.00    -0.245 NA
ATOM      6  C   UNL     1      33.670 -13.358 -20.356  0.00  0.00    +0.113 C 
ATOM      7  C   UNL     1      33.232 -12.274 -22.589  0.00  0.00    +0.113 C 
ATOM      8  C   UNL     1      34.805 -14.034 -21.121  0.00  0.00    +0.114 C 
ATOM      9  C   UNL     1      33.314 -13.715 -23.089  0.00  0.00    +0.114 C 
ATOM     10  C   UNL     1      32.500 -11.167 -20.486  0.00  0.00    +0.152 C 
ATOM     11  C   UNL     1      32.523  -9.898 -21.025  0.00  0.00    +0.258 C 
ATOM     12  C   UNL     1      31.908  -8.830 -20.386  0.00  0.00    +0.106 C 
ATOM     13  C   UNL     1      32.124  -7.693 -21.207  0.00  0.00    +0.051 C 
ATOM     14  C   UNL     1      32.862  -8.154 -22.297  0.00  0.00    +0.141 C 
ATOM     15  C   UNL     1      31.283 -10.244 -18.750  0.00  0.00    +0.251 C 
ATOM     16  C   UNL     1      31.782  -6.331 -21.154  0.00  0.00    +0.004 C 
ATOM     17  C   UNL     1      33.286  -7.342 -23.348  0.00  0.00    +0.037 C 
ATOM     18  C   UNL     1      32.195  -5.492 -22.198  0.00  0.00    +0.000 C 
ATOM     19  C   UNL     1      32.933  -5.991 -23.274  0.00  0.00    +0.003 C 
ENDROOT
BRANCH   3  21
ATOM     20  S   UNL     1      34.820 -15.740 -24.721  0.00  0.00    -0.019 S 
ATOM     21  C   UNL     1      34.991 -15.501 -23.074  0.00  0.00    +0.135 C 
BRANCH  21  22
ATOM     22  N   UNL     1      35.744 -16.354 -22.307  0.00  0.00    -0.312 N 
ATOM     23  H   UNL     1      36.136 -15.985 -21.483  0.00  0.00    +0.149 HD
BRANCH  22  24
ATOM     24  C   UNL     1      36.014 -17.748 -22.597  0.00  0.00    +0.116 C 
BRANCH  24  27
ATOM     25  O   UNL     1      32.946 -20.283 -19.675  0.00  0.00    -0.435 OA
ATOM     26  O   UNL     1      34.740 -21.049 -18.261  0.00  0.00    -0.435 OA
ATOM     27  C   UNL     1      35.707 -18.635 -21.425  0.00  0.00    +0.001 C 
ATOM     28  C   UNL     1      34.390 -19.003 -21.171  0.00  0.00    +0.038 C 
ATOM     29  C   UNL     1      36.756 -19.077 -20.607  0.00  0.00    +0.001 C 
ATOM     30  C   UNL     1      34.158 -19.820 -20.083  0.00  0.00    +0.176 C 
ATOM     31  C   UNL     1      35.183 -20.258 -19.276  0.00  0.00    +0.176 C 
ATOM     32  C   UNL     1      36.496 -19.903 -19.512  0.00  0.00    +0.040 C 
ATOM     33  C   UNL     1      33.321 -21.061 -18.521  0.00  0.00    +0.429 C 
ENDBRANCH  24  27
ENDBRANCH  22  24
ENDBRANCH  21  22
ENDBRANCH   3  21
TORSDOF 4
ENDMDL
MODEL 4
REMARK VINA RESULT:     -11.2      2.003      3.491
REMARK  Name = 11282283
REMARK  4 active torsions:
REMARK  status: ('A' for Active; 'I' for Inactive)
REMARK    1  A    between atoms: N_3  and  C_21
REMARK    2  A    between atoms: C_21  and  N_22
REMARK    3  A    between atoms: N_22  and  C_24
REMARK    4  A    between atoms: C_24  and  C_27
REMARK                            x       y       z     vdW  Elec       q    Type
REMARK                         _______ _______ _______ _____ _____    ______ ____
ROOT
ATOM      1  O   UNL     1      32.923 -12.511 -21.023  0.00  0.00    -0.466 OA
ATOM      2  N   UNL     1      34.210 -13.999 -23.211  0.00  0.00    -0.290 N 
ATOM      3  N   UNL     1      34.699 -16.835 -23.147  0.00  0.00    -0.288 N 
ATOM      4  N   UNL     1      34.340 -11.881 -24.312  0.00  0.00    -0.230 NA
ATOM      5  N   UNL     1      33.486  -9.839 -23.280  0.00  0.00    -0.245 NA
ATOM      6  C   UNL     1      34.226 -14.786 -24.449  0.00  0.00    +0.113 C 
ATOM      7  C   UNL     1      34.449 -14.690 -21.940  0.00  0.00    +0.113 C 
ATOM      8  C   UNL     1      33.850 -16.240 -24.168  0.00  0.00    +0.114 C 
ATOM      9  C   UNL     1      35.290 -15.947 -22.157  0.00  0.00    +0.114 C 
ATOM     10  C   UNL     1      33.977 -12.625 -23.243  0.00  0.00    +0.152 C 
ATOM     11  C   UNL     1      33.368 -11.976 -22.189  0.00  0.00    +0.258 C 
ATOM     12  C   UNL     1      33.134 -10.609 -22.221  0.00  0.00    +0.106 C 
ATOM     13  C   UNL     1      32.503 -10.281 -20.994  0.00  0.00    +0.051 C 
ATOM     14  C   UNL     1      32.397 -11.483 -20.295  0.00  0.00    +0.141 C 
ATOM     15  C   UNL     1      34.076 -10.553 -24.265  0.00  0.00    +0.251 C 
ATOM     16  C   UNL     1      32.010  -9.110 -20.394  0.00  0.00    +0.004 C 
ATOM     17  C   UNL     1      31.828 -11.599 -19.028  0.00  0.00    +0.037 C 
ATOM     18  C   UNL     1      31.433  -9.197 -19.119  0.00  0.00    +0.000 C 
ATOM     19  C   UNL     1      31.345 -10.420 -18.451  0.00  0.00    +0.003 C 
ENDROOT
BRANCH   3  21
ATOM     20  S   UNL     1      35.127 -19.046 -24.530  0.00  0.00    -0.019 S 
ATOM     21  C   UNL     1      34.929 -18.172 -23.118  0.00  0.00    +0.135 C 
BRANCH  21  22
ATOM     22  N   UNL     1      34.998 -18.780 -21.890  0.00  0.00    -0.312 N 
ATOM     23  H   UNL     1      35.892 -18.884 -21.492  0.00  0.00    +0.149 HD
BRANCH  22  24
ATOM     24  C   UNL     1      33.875 -19.284 -21.124  0.00  0.00    +0.116 C 
BRANCH  24  27
ATOM     25  O   UNL     1      37.244 -20.707 -17.807  0.00  0.00    -0.435 OA
ATOM     26  O   UNL     1      35.658 -22.070 -16.609  0.00  0.00    -0.435 OA
ATOM     27  C   UNL     1      34.320 -20.044 -19.908  0.00  0.00    +0.001 C 
ATOM     28  C   UNL     1      35.643 -19.952 -19.489  0.00  0.00    +0.038 C 
ATOM     29  C   UNL     1      33.391 -20.835 -19.217  0.00  0.00    +0.001 C 
ATOM     30  C   UNL     1      36.004 -20.668 -18.366  0.00  0.00    +0.176 C 
ATOM     31  C   UNL     1      35.098 -21.447 -17.682  0.00  0.00    +0.176 C 
ATOM     32  C   UNL     1      33.782 -21.551 -18.083  0.00  0.00    +0.040 C 
ATOM     33  C   UNL     1      37.017 -21.595 -16.694  0.00  0.00    +0.429 C 
ENDBRANCH  24  27
ENDBRANCH  22  24
ENDBRANCH  21  22
ENDBRANCH   3  21
TORSDOF 4
ENDMDL
MODEL 5
REMARK VINA RESULT:     -11.1      3.900     11.744
REMARK  Name = 11282283
REMARK  4 active torsions:
REMARK  status: ('A' for Active; 'I' for Inactive)
REMARK    1  A    between atoms: N_3  and  C_21
REMARK    2  A    between atoms: C_21  and  N_22
REMARK    3  A    between atoms: N_22  and  C_24
REMARK    4  A    between atoms: C_24  and  C_27
REMARK                            x       y       z     vdW  Elec       q    Type
REMARK                         _______ _______ _______ _____ _____    ______ ____
ROOT
ATOM      1  O   UNL     1      34.530 -14.378 -21.735  0.00  0.00    -0.466 OA
ATOM      2  N   UNL     1      33.445 -11.995 -23.077  0.00  0.00    -0.290 N 
ATOM      3  N   UNL     1      32.682  -9.589 -21.694  0.00  0.00    -0.288 N 
ATOM      4  N   UNL     1      33.684 -13.261 -25.090  0.00  0.00    -0.230 NA
ATOM      5  N   UNL     1      34.567 -15.538 -25.083  0.00  0.00    -0.245 NA
ATOM      6  C   UNL     1      33.537 -10.689 -23.737  0.00  0.00    +0.113 C 
ATOM      7  C   UNL     1      32.955 -12.047 -21.695  0.00  0.00    +0.113 C 
ATOM      8  C   UNL     1      33.725  -9.576 -22.708  0.00  0.00    +0.114 C 
ATOM      9  C   UNL     1      32.039 -10.861 -21.402  0.00  0.00    +0.114 C 
ATOM     10  C   UNL     1      33.811 -13.161 -23.748  0.00  0.00    +0.152 C 
ATOM     11  C   UNL     1      34.317 -14.250 -23.070  0.00  0.00    +0.258 C 
ATOM     12  C   UNL     1      34.683 -15.410 -23.738  0.00  0.00    +0.106 C 
ATOM     13  C   UNL     1      35.154 -16.311 -22.748  0.00  0.00    +0.051 C 
ATOM     14  C   UNL     1      35.040 -15.629 -21.537  0.00  0.00    +0.141 C 
ATOM     15  C   UNL     1      34.064 -14.427 -25.666  0.00  0.00    +0.251 C 
ATOM     16  C   UNL     1      35.662 -17.621 -22.736  0.00  0.00    +0.004 C 
ATOM     17  C   UNL     1      35.401 -16.169 -20.303  0.00  0.00    +0.037 C 
ATOM     18  C   UNL     1      36.033 -18.189 -21.510  0.00  0.00    +0.000 C 
ATOM     19  C   UNL     1      35.904 -17.473 -20.317  0.00  0.00    +0.003 C 
ENDROOT
BRANCH   3  21
ATOM     20  S   UNL     1      32.322  -8.377 -19.372  0.00  0.00    -0.019 S 
ATOM     21  C   UNL     1      32.322  -8.454 -21.044  0.00  0.00    +0.135 C 
BRANCH  21  22
ATOM     22  N   UNL     1      31.961  -7.370 -21.804  0.00  0.00    -0.312 N 
ATOM     23  H   UNL     1      31.920  -7.502 -22.779  0.00  0.00    +0.149 HD
BRANCH  22  24
ATOM     24  C   UNL     1      31.633  -6.049 -21.305  0.00  0.00    +0.116 C 
BRANCH  24  27
ATOM     25  O   UNL     1      32.455  -4.418 -25.892  0.00  0.00    -0.435 OA
ATOM     26  O   UNL     1      32.763  -2.145 -25.153  0.00  0.00    -0.435 OA
ATOM     27  C   UNL     1      31.937  -4.977 -22.311  0.00  0.00    +0.001 C 
ATOM     28  C   UNL     1      32.037  -5.310 -23.658  0.00  0.00    +0.038 C 
ATOM     29  C   UNL     1      32.114  -3.657 -21.873  0.00  0.00    +0.001 C 
ATOM     30  C   UNL     1      32.318  -4.291 -24.544  0.00  0.00    +0.176 C 
ATOM     31  C   UNL     1      32.493  -2.992 -24.122  0.00  0.00    +0.176 C 
ATOM     32  C   UNL     1      32.398  -2.643 -22.790  0.00  0.00    +0.040 C 
ATOM     33  C   UNL     1      32.736  -3.056 -26.271  0.00  0.00    +0.429 C 
ENDBRANCH  24  27
ENDBRANCH  22  24
ENDBRANCH  21  22
ENDBRANCH   3  21
TORSDOF 4
ENDMDL
MODEL 6
REMARK VINA RESULT:     -11.0      4.007     12.029
REMARK  Name = 11282283
REMARK  4 active torsions:
REMARK  status: ('A' for Active; 'I' for Inactive)
REMARK    1  A    between atoms: N_3  and  C_21
REMARK    2  A    between atoms: C_21  and  N_22
REMARK    3  A    between atoms: N_22  and  C_24
REMARK    4  A    between atoms: C_24  and  C_27
REMARK                            x       y       z     vdW  Elec       q    Type
REMARK                         _______ _______ _______ _____ _____    ______ ____
ROOT
ATOM      1  O   UNL     1      33.021 -22.223 -16.008  0.00  0.00    -0.466 OA
ATOM      2  N   UNL     1      35.633 -21.655 -17.237  0.00  0.00    -0.290 N 
ATOM      3  N   UNL     1      35.983 -19.968 -19.543  0.00  0.00    -0.288 N 
ATOM      4  N   UNL     1      36.525 -23.068 -15.528  0.00  0.00    -0.230 NA
ATOM      5  N   UNL     1      35.094 -24.128 -13.857  0.00  0.00    -0.245 NA
ATOM      6  C   UNL     1      36.870 -20.890 -17.427  0.00  0.00    +0.113 C 
ATOM      7  C   UNL     1      34.578 -21.541 -18.250  0.00  0.00    +0.113 C 
ATOM      8  C   UNL     1      36.610 -19.644 -18.271  0.00  0.00    +0.114 C 
ATOM      9  C   UNL     1      35.171 -21.174 -19.609  0.00  0.00    +0.114 C 
ATOM     10  C   UNL     1      35.466 -22.475 -16.122  0.00  0.00    +0.152 C 
ATOM     11  C   UNL     1      34.217 -22.707 -15.584  0.00  0.00    +0.258 C 
ATOM     12  C   UNL     1      34.050 -23.521 -14.472  0.00  0.00    +0.106 C 
ATOM     13  C   UNL     1      32.659 -23.539 -14.194  0.00  0.00    +0.051 C 
ATOM     14  C   UNL     1      32.072 -22.727 -15.165  0.00  0.00    +0.141 C 
ATOM     15  C   UNL     1      36.277 -23.847 -14.448  0.00  0.00    +0.251 C 
ATOM     16  C   UNL     1      31.829 -24.146 -13.236  0.00  0.00    +0.004 C 
ATOM     17  C   UNL     1      30.703 -22.476 -15.246  0.00  0.00    +0.037 C 
ATOM     18  C   UNL     1      30.449 -23.911 -13.295  0.00  0.00    +0.000 C 
ATOM     19  C   UNL     1      29.898 -23.091 -14.283  0.00  0.00    +0.003 C 
ENDROOT
BRANCH   3  21
ATOM     20  S   UNL     1      37.604 -18.399 -20.921  0.00  0.00    -0.019 S 
ATOM     21  C   UNL     1      36.149 -19.174 -20.630  0.00  0.00    +0.135 C 
BRANCH  21  22
ATOM     22  N   UNL     1      35.085 -19.029 -21.483  0.00  0.00    -0.312 N 
ATOM     23  H   UNL     1      34.185 -19.077 -21.087  0.00  0.00    +0.149 HD
BRANCH  22  24
ATOM     24  C   UNL     1      35.163 -18.811 -22.915  0.00  0.00    +0.116 C 
BRANCH  24  27
ATOM     25  O   UNL     1      35.056 -13.949 -22.062  0.00  0.00    -0.435 OA
ATOM     26  O   UNL     1      34.004 -13.484 -24.179  0.00  0.00    -0.435 OA
ATOM     27  C   UNL     1      34.838 -17.393 -23.286  0.00  0.00    +0.001 C 
ATOM     28  C   UNL     1      35.150 -16.365 -22.401  0.00  0.00    +0.038 C 
ATOM     29  C   UNL     1      34.226 -17.130 -24.519  0.00  0.00    +0.001 C 
ATOM     30  C   UNL     1      34.833 -15.079 -22.787  0.00  0.00    +0.176 C 
ATOM     31  C   UNL     1      34.232 -14.813 -23.996  0.00  0.00    +0.176 C 
ATOM     32  C   UNL     1      33.915 -15.819 -24.886  0.00  0.00    +0.040 C 
ATOM     33  C   UNL     1      34.530 -12.943 -22.950  0.00  0.00    +0.429 C 
ENDBRANCH  24  27
ENDBRANCH  22  24
ENDBRANCH  21  22
ENDBRANCH   3  21
TORSDOF 4
ENDMDL
MODEL 7
REMARK VINA RESULT:     -10.8      2.127      3.517
REMARK  Name = 11282283
REMARK  4 active torsions:
REMARK  status: ('A' for Active; 'I' for Inactive)
REMARK    1  A    between atoms: N_3  and  C_21
REMARK    2  A    between atoms: C_21  and  N_22
REMARK    3  A    between atoms: N_22  and  C_24
REMARK    4  A    between atoms: C_24  and  C_27
REMARK                            x       y       z     vdW  Elec       q    Type
REMARK                         _______ _______ _______ _____ _____    ______ ____
ROOT
ATOM      1  O   UNL     1      33.161  -9.681 -21.628  0.00  0.00    -0.466 OA
ATOM      2  N   UNL     1      34.260 -11.327 -23.805  0.00  0.00    -0.290 N 
ATOM      3  N   UNL     1      34.190 -14.205 -23.826  0.00  0.00    -0.288 N 
ATOM      4  N   UNL     1      34.855  -9.245 -24.816  0.00  0.00    -0.230 NA
ATOM      5  N   UNL     1      34.353  -7.106 -23.749  0.00  0.00    -0.245 NA
ATOM      6  C   UNL     1      34.193 -12.067 -25.070  0.00  0.00    +0.113 C 
ATOM      7  C   UNL     1      34.289 -12.088 -22.551  0.00  0.00    +0.113 C 
ATOM      8  C   UNL     1      33.531 -13.428 -24.865  0.00  0.00    +0.114 C 
ATOM      9  C   UNL     1      34.884 -13.476 -22.775  0.00  0.00    +0.114 C 
ATOM     10  C   UNL     1      34.297  -9.934 -23.796  0.00  0.00    +0.152 C 
ATOM     11  C   UNL     1      33.765  -9.209 -22.749  0.00  0.00    +0.258 C 
ATOM     12  C   UNL     1      33.800  -7.822 -22.740  0.00  0.00    +0.106 C 
ATOM     13  C   UNL     1      33.176  -7.413 -21.534  0.00  0.00    +0.051 C 
ATOM     14  C   UNL     1      32.801  -8.591 -20.888  0.00  0.00    +0.141 C 
ATOM     15  C   UNL     1      34.849  -7.893 -24.731  0.00  0.00    +0.251 C 
ATOM     16  C   UNL     1      32.884  -6.186 -20.914  0.00  0.00    +0.004 C 
ATOM     17  C   UNL     1      32.150  -8.630 -19.656  0.00  0.00    +0.037 C 
ATOM     18  C   UNL     1      32.231  -6.196 -19.674  0.00  0.00    +0.000 C 
ATOM     19  C   UNL     1      31.871  -7.397 -19.059  0.00  0.00    +0.003 C 
ENDROOT
BRANCH   3  21
ATOM     20  S   UNL     1      33.496 -16.400 -25.125  0.00  0.00    -0.019 S 
ATOM     21  C   UNL     1      34.158 -15.561 -23.837  0.00  0.00    +0.135 C 
BRANCH  21  22
ATOM     22  N   UNL     1      34.689 -16.221 -22.758  0.00  0.00    -0.312 N 
ATOM     23  H   UNL     1      34.323 -15.994 -21.872  0.00  0.00    +0.149 HD
BRANCH  22  24
ATOM     24  C   UNL     1      35.737 -17.221 -22.801  0.00  0.00    +0.116 C 
BRANCH  24  27
ATOM     25  O   UNL     1      33.306 -20.358 -19.863  0.00  0.00    -0.435 OA
ATOM     26  O   UNL     1      35.264 -20.814 -18.535  0.00  0.00    -0.435 OA
ATOM     27  C   UNL     1      35.645 -18.180 -21.649  0.00  0.00    +0.001 C 
ATOM     28  C   UNL     1      34.430 -18.794 -21.363  0.00  0.00    +0.038 C 
ATOM     29  C   UNL     1      36.789 -18.441 -20.881  0.00  0.00    +0.001 C 
ATOM     30  C   UNL     1      34.396 -19.667 -20.296  0.00  0.00    +0.176 C 
ATOM     31  C   UNL     1      35.514 -19.928 -19.538  0.00  0.00    +0.176 C 
ATOM     32  C   UNL     1      36.728 -19.329 -19.806  0.00  0.00    +0.040 C 
ATOM     33  C   UNL     1      33.864 -21.083 -18.748  0.00  0.00    +0.429 C 
ENDBRANCH  24  27
ENDBRANCH  22  24
ENDBRANCH  21  22
ENDBRANCH   3  21
TORSDOF 4
ENDMDL
MODEL 8
REMARK VINA RESULT:     -10.7      3.768     11.512
REMARK  Name = 11282283
REMARK  4 active torsions:
REMARK  status: ('A' for Active; 'I' for Inactive)
REMARK    1  A    between atoms: N_3  and  C_21
REMARK    2  A    between atoms: C_21  and  N_22
REMARK    3  A    between atoms: N_22  and  C_24
REMARK    4  A    between atoms: C_24  and  C_27
REMARK                            x       y       z     vdW  Elec       q    Type
REMARK                         _______ _______ _______ _____ _____    ______ ____
ROOT
ATOM      1  O   UNL     1      34.619 -14.929 -21.661  0.00  0.00    -0.466 OA
ATOM      2  N   UNL     1      33.427 -12.542 -22.901  0.00  0.00    -0.290 N 
ATOM      3  N   UNL     1      32.567 -10.229 -21.419  0.00  0.00    -0.288 N 
ATOM      4  N   UNL     1      33.711 -13.714 -24.965  0.00  0.00    -0.230 NA
ATOM      5  N   UNL     1      34.692 -15.948 -25.053  0.00  0.00    -0.245 NA
ATOM      6  C   UNL     1      33.460 -11.207 -23.507  0.00  0.00    +0.113 C 
ATOM      7  C   UNL     1      32.945 -12.672 -21.521  0.00  0.00    +0.113 C 
ATOM      8  C   UNL     1      33.604 -10.130 -22.434  0.00  0.00    +0.114 C 
ATOM      9  C   UNL     1      31.980 -11.539 -21.177  0.00  0.00    +0.114 C 
ATOM     10  C   UNL     1      33.840 -13.663 -23.620  0.00  0.00    +0.152 C 
ATOM     11  C   UNL     1      34.395 -14.756 -22.989  0.00  0.00    +0.258 C 
ATOM     12  C   UNL     1      34.808 -15.870 -23.704  0.00  0.00    +0.106 C 
ATOM     13  C   UNL     1      35.321 -16.790 -22.754  0.00  0.00    +0.051 C 
ATOM     14  C   UNL     1      35.183 -16.164 -21.515  0.00  0.00    +0.141 C 
ATOM     15  C   UNL     1      34.139 -14.837 -25.589  0.00  0.00    +0.251 C 
ATOM     16  C   UNL     1      35.886 -18.076 -22.797  0.00  0.00    +0.004 C 
ATOM     17  C   UNL     1      35.572 -16.738 -20.306  0.00  0.00    +0.037 C 
ATOM     18  C   UNL     1      36.286 -18.677 -21.595  0.00  0.00    +0.000 C 
ATOM     19  C   UNL     1      36.130 -18.017 -20.374  0.00  0.00    +0.003 C 
ENDROOT
BRANCH   3  21
ATOM     20  S   UNL     1      31.626  -9.271 -19.141  0.00  0.00    -0.019 S 
ATOM     21  C   UNL     1      32.161  -9.138 -20.721  0.00  0.00    +0.135 C 
BRANCH  21  22
ATOM     22  N   UNL     1      32.207  -7.923 -21.356  0.00  0.00    -0.312 N 
ATOM     23  H   UNL     1      32.847  -7.261 -21.008  0.00  0.00    +0.149 HD
BRANCH  22  24
ATOM     24  C   UNL     1      31.401  -7.523 -22.493  0.00  0.00    +0.116 C 
BRANCH  24  27
ATOM     25  O   UNL     1      32.545  -2.783 -21.721  0.00  0.00    -0.435 OA
ATOM     26  O   UNL     1      32.634  -2.300 -24.080  0.00  0.00    -0.435 OA
ATOM     27  C   UNL     1      31.729  -6.133 -22.953  0.00  0.00    +0.001 C 
ATOM     28  C   UNL     1      31.978  -5.140 -22.011  0.00  0.00    +0.038 C 
ATOM     29  C   UNL     1      31.779  -5.860 -24.327  0.00  0.00    +0.001 C 
ATOM     30  C   UNL     1      32.276  -3.878 -22.483  0.00  0.00    +0.176 C 
ATOM     31  C   UNL     1      32.326  -3.602 -23.830  0.00  0.00    +0.176 C 
ATOM     32  C   UNL     1      32.082  -4.574 -24.780  0.00  0.00    +0.040 C 
ATOM     33  C   UNL     1      32.772  -1.788 -22.740  0.00  0.00    +0.429 C 
ENDBRANCH  24  27
ENDBRANCH  22  24
ENDBRANCH  21  22
ENDBRANCH   3  21
TORSDOF 4
ENDMDL
MODEL 9
REMARK VINA RESULT:     -10.7      4.238     12.490
REMARK  Name = 11282283
REMARK  4 active torsions:
REMARK  status: ('A' for Active; 'I' for Inactive)
REMARK    1  A    between atoms: N_3  and  C_21
REMARK    2  A    between atoms: C_21  and  N_22
REMARK    3  A    between atoms: N_22  and  C_24
REMARK    4  A    between atoms: C_24  and  C_27
REMARK                            x       y       z     vdW  Elec       q    Type
REMARK                         _______ _______ _______ _____ _____    ______ ____
ROOT
ATOM      1  O   UNL     1      37.255 -23.138 -15.444  0.00  0.00    -0.466 OA
ATOM      2  N   UNL     1      35.247 -21.651 -16.998  0.00  0.00    -0.290 N 
ATOM      3  N   UNL     1      35.863 -20.112 -19.351  0.00  0.00    -0.288 N 
ATOM      4  N   UNL     1      33.681 -22.472 -15.390  0.00  0.00    -0.230 NA
ATOM      5  N   UNL     1      34.369 -23.912 -13.541  0.00  0.00    -0.245 NA
ATOM      6  C   UNL     1      34.256 -21.483 -18.066  0.00  0.00    +0.113 C 
ATOM      7  C   UNL     1      36.560 -21.016 -17.157  0.00  0.00    +0.113 C 
ATOM      8  C   UNL     1      34.944 -21.238 -19.407  0.00  0.00    +0.114 C 
ATOM      9  C   UNL     1      36.462 -19.792 -18.064  0.00  0.00    +0.114 C 
ATOM     10  C   UNL     1      34.947 -22.393 -15.857  0.00  0.00    +0.152 C 
ATOM     11  C   UNL     1      35.927 -23.074 -15.166  0.00  0.00    +0.258 C 
ATOM     12  C   UNL     1      35.629 -23.814 -14.031  0.00  0.00    +0.106 C 
ATOM     13  C   UNL     1      36.854 -24.372 -13.582  0.00  0.00    +0.051 C 
ATOM     14  C   UNL     1      37.820 -23.927 -14.484  0.00  0.00    +0.141 C 
ATOM     15  C   UNL     1      33.473 -23.216 -14.277  0.00  0.00    +0.251 C 
ATOM     16  C   UNL     1      37.257 -25.199 -12.520  0.00  0.00    +0.004 C 
ATOM     17  C   UNL     1      39.173 -24.253 -14.399  0.00  0.00    +0.037 C 
ATOM     18  C   UNL     1      38.611 -25.543 -12.410  0.00  0.00    +0.000 C 
ATOM     19  C   UNL     1      39.550 -25.077 -13.334  0.00  0.00    +0.003 C 
ENDROOT
BRANCH   3  21
ATOM     20  S   UNL     1      37.667 -18.711 -20.683  0.00  0.00    -0.019 S 
ATOM     21  C   UNL     1      36.152 -19.386 -20.460  0.00  0.00    +0.135 C 
BRANCH  21  22
ATOM     22  N   UNL     1      35.160 -19.227 -21.394  0.00  0.00    -0.312 N 
ATOM     23  H   UNL     1      34.231 -19.287 -21.074  0.00  0.00    +0.149 HD
BRANCH  22  24
ATOM     24  C   UNL     1      35.353 -18.977 -22.809  0.00  0.00    +0.116 C 
BRANCH  24  27
ATOM     25  O   UNL     1      35.207 -14.094 -22.097  0.00  0.00    -0.435 OA
ATOM     26  O   UNL     1      33.956 -13.719 -24.122  0.00  0.00    -0.435 OA
ATOM     27  C   UNL     1      34.962 -17.579 -23.192  0.00  0.00    +0.001 C 
ATOM     28  C   UNL     1      35.327 -16.517 -22.370  0.00  0.00    +0.038 C 
ATOM     29  C   UNL     1      34.235 -17.369 -24.371  0.00  0.00    +0.001 C 
ATOM     30  C   UNL     1      34.946 -15.251 -22.764  0.00  0.00    +0.176 C 
ATOM     31  C   UNL     1      34.232 -15.037 -23.921  0.00  0.00    +0.176 C 
ATOM     32  C   UNL     1      33.860 -16.078 -24.748  0.00  0.00    +0.040 C 
ATOM     33  C   UNL     1      34.578 -13.128 -22.963  0.00  0.00    +0.429 C 
ENDBRANCH  24  27
ENDBRANCH  22  24
ENDBRANCH  21  22
ENDBRANCH   3  21
TORSDOF 4
ENDMDL
