MODEL 1
REMARK VINA RESULT:     -13.9      0.000      0.000
REMARK  Name = 10074640
REMARK  6 active torsions:
REMARK  status: ('A' for Active; 'I' for Inactive)
REMARK    1  A    between atoms: N_2  and  C_5
REMARK    2  A    between atoms: C_3  and  C_30
REMARK    3  A    between atoms: C_6  and  N_13
REMARK    4  A    between atoms: C_16  and  C_20
REMARK    5  A    between atoms: C_25  and  C_31
REMARK    6  A    between atoms: C_31  and  N_32
REMARK                            x       y       z     vdW  Elec       q    Type
REMARK                         _______ _______ _______ _____ _____    ______ ____
ROOT
ATOM      1  O   UNL     1      33.923 -23.195 -18.560  0.00  0.00    -0.270 OA
ATOM      2  N   UNL     1      33.486 -21.583 -16.912  0.00  0.00    -0.280 N 
ATOM      3  C   UNL     1      33.941 -22.018 -18.164  0.00  0.00    +0.249 C 
ATOM      4  H   UNL     1      33.564 -20.617 -16.741  0.00  0.00    +0.155 HD
ENDROOT
BRANCH   2   5
ATOM      5  C   UNL     1      32.928 -22.351 -15.861  0.00  0.00    +0.052 C 
ATOM      6  C   UNL     1      33.061 -23.210 -13.627  0.00  0.00    +0.048 C 
ATOM      7  C   UNL     1      33.612 -22.454 -14.662  0.00  0.00    +0.029 C 
ATOM      8  C   UNL     1      31.836 -23.851 -13.806  0.00  0.00    -0.008 C 
ATOM      9  C   UNL     1      31.711 -22.981 -16.056  0.00  0.00    +0.014 C 
ATOM     10  C   UNL     1      31.160 -23.737 -15.022  0.00  0.00    -0.002 C 
ATOM     11  C   UNL     1      31.224 -24.668 -12.715  0.00  0.00    +0.032 C 
BRANCH   6  13
ATOM     12  S   UNL     1      35.591 -23.840 -10.548  0.00  0.00    -0.059 S 
ATOM     13  N   UNL     1      33.758 -23.315 -12.403  0.00  0.00    -0.283 N 
ATOM     14  N   UNL     1      35.979 -23.730 -13.102  0.00  0.00    -0.384 NA
ATOM     15  C   UNL     1      35.072 -23.609 -12.164  0.00  0.00    +0.211 C 
ATOM     16  C   UNL     1      37.190 -24.030 -12.508  0.00  0.00    +0.124 C 
ATOM     17  C   UNL     1      37.177 -24.130 -11.132  0.00  0.00    +0.125 C 
ATOM     18  H   UNL     1      33.215 -23.151 -11.598  0.00  0.00    +0.155 HD
BRANCH  16  20
ATOM     19  N   UNL     1      39.746 -23.559 -15.164  0.00  0.00    -0.242 NA
ATOM     20  C   UNL     1      38.380 -24.222 -13.284  0.00  0.00    +0.046 C 
ATOM     21  C   UNL     1      39.301 -25.208 -12.951  0.00  0.00    +0.005 C 
ATOM     22  C   UNL     1      38.645 -23.431 -14.390  0.00  0.00    +0.101 C 
ATOM     23  C   UNL     1      40.446 -25.370 -13.723  0.00  0.00    +0.021 C 
ATOM     24  C   UNL     1      40.620 -24.528 -14.809  0.00  0.00    +0.099 C 
ENDBRANCH  16  20
ENDBRANCH   6  13
ENDBRANCH   2   5
BRANCH   3  30
ATOM     25  C   UNL     1      35.545 -19.025 -20.686  0.00  0.00    -0.043 C 
ATOM     26  C   UNL     1      36.400 -19.793 -19.907  0.00  0.00    -0.006 C 
ATOM     27  C   UNL     1      34.172 -19.225 -20.651  0.00  0.00    -0.006 C 
ATOM     28  C   UNL     1      35.870 -20.781 -19.076  0.00  0.00    +0.004 C 
ATOM     29  C   UNL     1      33.643 -20.213 -19.821  0.00  0.00    +0.004 C 
ATOM     30  C   UNL     1      34.492 -20.990 -19.033  0.00  0.00    +0.054 C 
BRANCH  25  31
ATOM     31  C   UNL     1      36.117 -17.961 -21.585  0.00  0.00    -0.050 C 
BRANCH  31  32
ATOM     32  N   UNL     1      35.257 -16.780 -21.645  0.00  0.00    +0.387 N 
ATOM     33  N   UNL     1      34.801 -13.927 -21.753  0.00  0.00    +0.383 N 
ATOM     34  C   UNL     1      35.453 -15.932 -20.463  0.00  0.00    -0.100 C 
ATOM     35  C   UNL     1      35.507 -16.014 -22.872  0.00  0.00    -0.100 C 
ATOM     36  C   UNL     1      34.553 -14.693 -20.526  0.00  0.00    -0.101 C 
ATOM     37  C   UNL     1      34.606 -14.777 -22.935  0.00  0.00    -0.101 C 
ATOM     38  C   UNL     1      33.940 -12.748 -21.814  0.00  0.00    -0.101 C 
ATOM     39  H   UNL     1      34.287 -17.098 -21.656  0.00  0.00    -0.079 HD
ATOM     40  H   UNL     1      35.770 -13.608 -21.742  0.00  0.00    -0.080 HD
ENDBRANCH  31  32
ENDBRANCH  25  31
ENDBRANCH   3  30
TORSDOF 6
ENDMDL
