MODEL 1
REMARK VINA RESULT:     -11.7      0.000      0.000
REMARK  Name = 9912771
REMARK  7 active torsions:
REMARK  status: ('A' for Active; 'I' for Inactive)
REMARK    1  A    between atoms: C_1  and  N_8
REMARK    2  A    between atoms: C_2  and  N_27
REMARK    3  A    between atoms: C_3  and  O_38
REMARK    4  A    between atoms: C_9  and  C_16
REMARK    5  A    between atoms: C_11  and  N_17
REMARK    6  A    between atoms: C_28  and  C_30
REMARK    7  A    between atoms: C_35  and  O_36
REMARK                            x       y       z     vdW  Elec       q    Type
REMARK                         _______ _______ _______ _____ _____    ______ ____
ROOT
ATOM      1  C   UNL     1      31.564 -22.455 -15.727  0.00  0.00    +0.098 C 
ATOM      2  C   UNL     1      32.179 -23.151 -14.698  0.00  0.00    +0.067 C 
ATOM      3  C   UNL     1      30.184 -22.328 -15.785  0.00  0.00    +0.148 C 
ATOM      4  C   UNL     1      31.396 -23.735 -13.702  0.00  0.00    +0.016 C 
ATOM      5  C   UNL     1      29.401 -22.911 -14.789  0.00  0.00    +0.038 C 
ATOM      6  C   UNL     1      30.007 -23.615 -13.748  0.00  0.00    +0.004 C 
ENDROOT
BRANCH   1   8
ATOM      7  O   UNL     1      33.761 -23.612 -17.406  0.00  0.00    -0.270 OA
ATOM      8  N   UNL     1      32.352 -21.858 -16.742  0.00  0.00    -0.277 N 
ATOM      9  C   UNL     1      33.374 -22.437 -17.507  0.00  0.00    +0.250 C 
ATOM     10  H   UNL     1      32.156 -20.913 -16.935  0.00  0.00    +0.155 HD
BRANCH   9  16
ATOM     11  C   UNL     1      35.293 -19.850 -20.324  0.00  0.00    +0.048 C 
ATOM     12  C   UNL     1      33.893 -19.820 -20.138  0.00  0.00    +0.015 C 
ATOM     13  C   UNL     1      36.036 -20.765 -19.545  0.00  0.00    +0.015 C 
ATOM     14  C   UNL     1      33.268 -20.663 -19.219  0.00  0.00    +0.006 C 
ATOM     15  C   UNL     1      35.411 -21.608 -18.627  0.00  0.00    +0.006 C 
ATOM     16  C   UNL     1      34.027 -21.557 -18.464  0.00  0.00    +0.054 C 
BRANCH  11  17
ATOM     17  N   UNL     1      35.918 -19.010 -21.243  0.00  0.00    -0.310 N 
ATOM     18  N   UNL     1      34.961 -16.375 -20.668  0.00  0.00    +0.387 N 
ATOM     19  C   UNL     1      35.421 -18.829 -22.610  0.00  0.00    +0.089 C 
ATOM     20  C   UNL     1      34.381 -17.712 -22.682  0.00  0.00    -0.001 C 
ATOM     21  C   UNL     1      36.920 -18.020 -20.832  0.00  0.00    +0.068 C 
ATOM     22  C   UNL     1      34.848 -16.354 -22.131  0.00  0.00    -0.076 C 
ATOM     23  C   UNL     1      36.280 -16.796 -20.164  0.00  0.00    -0.056 C 
ATOM     24  C   UNL     1      34.604 -15.078 -20.091  0.00  0.00    -0.101 C 
ATOM     25  H   UNL     1      34.297 -17.088 -20.365  0.00  0.00    -0.080 HD
ENDBRANCH  11  17
ENDBRANCH   9  16
ENDBRANCH   1   8
BRANCH   2  27
ATOM     26  O   UNL     1      33.983 -23.452 -12.323  0.00  0.00    -0.270 OA
ATOM     27  N   UNL     1      33.569 -23.286 -14.631  0.00  0.00    -0.279 N 
ATOM     28  C   UNL     1      34.365 -23.423 -13.488  0.00  0.00    +0.250 C 
ATOM     29  H   UNL     1      34.046 -23.284 -15.492  0.00  0.00    +0.155 HD
BRANCH  28  30
ATOM     30  C   UNL     1      35.827 -23.518 -13.740  0.00  0.00    +0.054 C 
ATOM     31  C   UNL     1      36.573 -24.409 -12.997  0.00  0.00    +0.008 C 
ATOM     32  C   UNL     1      36.389 -22.713 -14.708  0.00  0.00    +0.008 C 
ATOM     33  C   UNL     1      37.945 -24.499 -13.233  0.00  0.00    +0.037 C 
ATOM     34  C   UNL     1      37.761 -22.803 -14.944  0.00  0.00    +0.037 C 
ATOM     35  C   UNL     1      38.539 -23.695 -14.207  0.00  0.00    +0.139 C 
BRANCH  35  36
ATOM     36  O   UNL     1      39.877 -23.785 -14.438  0.00  0.00    -0.471 OA
ATOM     37  C   UNL     1      40.525 -24.992 -14.040  0.00  0.00    +0.252 C 
ENDBRANCH  35  36
ENDBRANCH  28  30
ENDBRANCH   2  27
BRANCH   3  38
ATOM     38  O   UNL     1      29.570 -21.644 -16.791  0.00  0.00    -0.504 OA
ATOM     39  H   UNL     1      28.638 -21.552 -16.794  0.00  0.00    +0.292 HD
ENDBRANCH   3  38
TORSDOF 7
ENDMDL
MODEL 2
REMARK VINA RESULT:     -10.1      1.587      5.598
REMARK  Name = 9912771
REMARK  7 active torsions:
REMARK  status: ('A' for Active; 'I' for Inactive)
REMARK    1  A    between atoms: C_1  and  N_8
REMARK    2  A    between atoms: C_2  and  N_27
REMARK    3  A    between atoms: C_3  and  O_38
REMARK    4  A    between atoms: C_9  and  C_16
REMARK    5  A    between atoms: C_11  and  N_17
REMARK    6  A    between atoms: C_28  and  C_30
REMARK    7  A    between atoms: C_35  and  O_36
REMARK                            x       y       z     vdW  Elec       q    Type
REMARK                         _______ _______ _______ _____ _____    ______ ____
ROOT
ATOM      1  C   UNL     1      37.485 -23.986 -14.204  0.00  0.00    +0.098 C 
ATOM      2  C   UNL     1      36.438 -24.541 -13.484  0.00  0.00    +0.067 C 
ATOM      3  C   UNL     1      38.805 -24.194 -13.829  0.00  0.00    +0.148 C 
ATOM      4  C   UNL     1      36.716 -25.322 -12.362  0.00  0.00    +0.016 C 
ATOM      5  C   UNL     1      39.082 -24.976 -12.708  0.00  0.00    +0.038 C 
ATOM      6  C   UNL     1      38.038 -25.539 -11.975  0.00  0.00    +0.004 C 
ENDROOT
BRANCH   1   8
ATOM      7  O   UNL     1      35.827 -21.505 -14.485  0.00  0.00    -0.270 OA
ATOM      8  N   UNL     1      37.212 -23.192 -15.345  0.00  0.00    -0.277 N 
ATOM      9  C   UNL     1      36.428 -22.034 -15.434  0.00  0.00    +0.250 C 
ATOM     10  H   UNL     1      37.627 -23.494 -16.185  0.00  0.00    +0.155 HD
BRANCH   9  16
ATOM     11  C   UNL     1      36.081 -20.307 -19.334  0.00  0.00    +0.048 C 
ATOM     12  C   UNL     1      37.221 -20.079 -18.531  0.00  0.00    +0.015 C 
ATOM     13  C   UNL     1      35.061 -21.128 -18.803  0.00  0.00    +0.015 C 
ATOM     14  C   UNL     1      37.333 -20.643 -17.260  0.00  0.00    +0.006 C 
ATOM     15  C   UNL     1      35.174 -21.691 -17.532  0.00  0.00    +0.006 C 
ATOM     16  C   UNL     1      36.310 -21.448 -16.761  0.00  0.00    +0.054 C 
BRANCH  11  17
ATOM     17  N   UNL     1      35.967 -19.743 -20.604  0.00  0.00    -0.310 N 
ATOM     18  N   UNL     1      35.249 -17.006 -20.180  0.00  0.00    +0.387 N 
ATOM     19  C   UNL     1      34.756 -19.875 -21.418  0.00  0.00    +0.089 C 
ATOM     20  C   UNL     1      33.755 -18.761 -21.112  0.00  0.00    -0.001 C 
ATOM     21  C   UNL     1      36.911 -18.732 -21.090  0.00  0.00    +0.068 C 
ATOM     22  C   UNL     1      34.309 -17.334 -21.259  0.00  0.00    -0.076 C 
ATOM     23  C   UNL     1      36.652 -17.354 -20.467  0.00  0.00    -0.056 C 
ATOM     24  C   UNL     1      35.157 -15.593 -19.810  0.00  0.00    -0.101 C 
ATOM     25  H   UNL     1      34.961 -17.593 -19.396  0.00  0.00    -0.080 HD
ENDBRANCH  11  17
ENDBRANCH   9  16
ENDBRANCH   1   8
BRANCH   2  27
ATOM     26  O   UNL     1      34.179 -23.289 -11.963  0.00  0.00    -0.270 OA
ATOM     27  N   UNL     1      35.105 -24.336 -13.852  0.00  0.00    -0.279 N 
ATOM     28  C   UNL     1      34.086 -23.743 -13.098  0.00  0.00    +0.250 C 
ATOM     29  H   UNL     1      34.853 -24.647 -14.751  0.00  0.00    +0.155 HD
BRANCH  28  30
ATOM     30  C   UNL     1      32.755 -23.694 -13.757  0.00  0.00    +0.054 C 
ATOM     31  C   UNL     1      32.589 -22.886 -14.863  0.00  0.00    +0.008 C 
ATOM     32  C   UNL     1      31.729 -24.459 -13.243  0.00  0.00    +0.008 C 
ATOM     33  C   UNL     1      31.341 -22.840 -15.482  0.00  0.00    +0.037 C 
ATOM     34  C   UNL     1      30.480 -24.413 -13.863  0.00  0.00    +0.037 C 
ATOM     35  C   UNL     1      30.286 -23.604 -14.982  0.00  0.00    +0.139 C 
BRANCH  35  36
ATOM     36  O   UNL     1      29.068 -23.560 -15.587  0.00  0.00    -0.471 OA
ATOM     37  C   UNL     1      28.339 -22.337 -15.490  0.00  0.00    +0.252 C 
ENDBRANCH  35  36
ENDBRANCH  28  30
ENDBRANCH   2  27
BRANCH   3  38
ATOM     38  O   UNL     1      39.841 -23.655 -14.531  0.00  0.00    -0.504 OA
ATOM     39  H   UNL     1      40.098 -24.030 -15.350  0.00  0.00    +0.292 HD
ENDBRANCH   3  38
TORSDOF 7
ENDMDL
