MODEL 1
REMARK VINA RESULT:     -12.2      0.000      0.000
REMARK  Name = 42628060
REMARK  6 active torsions:
REMARK  status: ('A' for Active; 'I' for Inactive)
REMARK    1  A    between atoms: N_2  and  C_6
REMARK    2  A    between atoms: C_3  and  C_19
REMARK    3  A    between atoms: C_9  and  N_13
REMARK    4  A    between atoms: C_19  and  N_20
REMARK    5  A    between atoms: C_21  and  N_27
REMARK    6  A    between atoms: C_28  and  C_32
REMARK                            x       y       z     vdW  Elec       q    Type
REMARK                         _______ _______ _______ _____ _____    ______ ____
ROOT
ATOM      1  O   UNL     1      36.756 -20.574 -19.684  0.00  0.00    -0.277 OA
ATOM      2  N   UNL     1      34.885 -20.827 -18.288  0.00  0.00    -0.284 N 
ATOM      3  C   UNL     1      35.566 -20.415 -19.432  0.00  0.00    +0.205 C 
ATOM      4  H   UNL     1      33.926 -20.609 -18.251  0.00  0.00    +0.155 HD
ENDROOT
BRANCH   2   6
ATOM      5  F   UNL     1      33.321 -22.585 -16.795  0.00  0.00    -0.203 F 
ATOM      6  C   UNL     1      35.411 -21.522 -17.174  0.00  0.00    +0.078 C 
ATOM      7  C   UNL     1      34.602 -22.395 -16.447  0.00  0.00    +0.155 C 
ATOM      8  C   UNL     1      36.742 -21.332 -16.801  0.00  0.00    +0.018 C 
ATOM      9  C   UNL     1      36.454 -22.888 -14.977  0.00  0.00    +0.061 C 
ATOM     10  C   UNL     1      35.124 -23.079 -15.348  0.00  0.00    +0.046 C 
ATOM     11  C   UNL     1      37.264 -22.015 -15.702  0.00  0.00    +0.017 C 
BRANCH   9  13
ATOM     12  O   UNL     1      37.163 -25.692 -14.933  0.00  0.00    -0.269 OA
ATOM     13  N   UNL     1      36.996 -23.598 -13.834  0.00  0.00    -0.233 N 
ATOM     14  C   UNL     1      37.266 -24.987 -13.928  0.00  0.00    +0.257 C 
ATOM     15  C   UNL     1      37.276 -22.919 -12.645  0.00  0.00    +0.072 C 
ATOM     16  C   UNL     1      37.781 -25.651 -12.690  0.00  0.00    +0.059 C 
ATOM     17  C   UNL     1      37.767 -23.530 -11.562  0.00  0.00    +0.017 C 
ATOM     18  C   UNL     1      38.020 -24.939 -11.587  0.00  0.00    +0.006 C 
ENDBRANCH   9  13
ENDBRANCH   2   6
BRANCH   3  19
ATOM     19  C   UNL     1      34.617 -19.700 -20.379  0.00  0.00    +0.010 C 
BRANCH  19  20
ATOM     20  N   UNL     1      35.352 -18.698 -21.135  0.00  0.00    +0.394 N 
ATOM     21  C   UNL     1      35.616 -16.491 -21.841  0.00  0.00    +0.049 C 
ATOM     22  C   UNL     1      35.569 -17.399 -23.073  0.00  0.00    -0.005 C 
ATOM     23  C   UNL     1      35.030 -17.333 -20.712  0.00  0.00    -0.057 C 
ATOM     24  C   UNL     1      35.035 -18.732 -22.563  0.00  0.00    -0.075 C 
ATOM     25  H   UNL     1      36.330 -18.924 -20.961  0.00  0.00    -0.079 HD
BRANCH  21  27
ATOM     26  O   UNL     1      35.193 -14.442 -19.876  0.00  0.00    -0.270 OA
ATOM     27  N   UNL     1      34.904 -15.258 -22.028  0.00  0.00    -0.304 N 
ATOM     28  C   UNL     1      34.747 -14.320 -21.015  0.00  0.00    +0.252 C 
ATOM     29  H   UNL     1      34.509 -15.070 -22.911  0.00  0.00    +0.150 HD
BRANCH  28  32
ATOM     30 CL   UNL     1      30.966 -10.283 -20.975  0.00  0.00    -0.075 Cl
ATOM     31  S   UNL     1      32.613 -12.684 -20.394  0.00  0.00    -0.071 S 
ATOM     32  C   UNL     1      33.961 -13.107 -21.361  0.00  0.00    +0.084 C 
ATOM     33  C   UNL     1      34.156 -12.218 -22.395  0.00  0.00    +0.012 C 
ATOM     34  C   UNL     1      33.185 -11.175 -22.393  0.00  0.00    +0.019 C 
ATOM     35  C   UNL     1      32.286 -11.306 -21.358  0.00  0.00    +0.087 C 
ENDBRANCH  28  32
ENDBRANCH  21  27
ENDBRANCH  19  20
ENDBRANCH   3  19
TORSDOF 6
ENDMDL
MODEL 2
REMARK VINA RESULT:     -12.0      4.888     12.059
REMARK  Name = 42628060
REMARK  6 active torsions:
REMARK  status: ('A' for Active; 'I' for Inactive)
REMARK    1  A    between atoms: N_2  and  C_6
REMARK    2  A    between atoms: C_3  and  C_19
REMARK    3  A    between atoms: C_9  and  N_13
REMARK    4  A    between atoms: C_19  and  N_20
REMARK    5  A    between atoms: C_21  and  N_27
REMARK    6  A    between atoms: C_28  and  C_32
REMARK                            x       y       z     vdW  Elec       q    Type
REMARK                         _______ _______ _______ _____ _____    ______ ____
ROOT
ATOM      1  O   UNL     1      34.209 -19.153 -21.087  0.00  0.00    -0.277 OA
ATOM      2  N   UNL     1      35.891 -17.683 -20.363  0.00  0.00    -0.284 N 
ATOM      3  C   UNL     1      35.290 -18.926 -20.553  0.00  0.00    +0.205 C 
ATOM      4  H   UNL     1      36.764 -17.687 -19.909  0.00  0.00    +0.155 HD
ENDROOT
BRANCH   2   6
ATOM      5  F   UNL     1      35.744 -16.928 -23.041  0.00  0.00    -0.203 F 
ATOM      6  C   UNL     1      35.393 -16.416 -20.749  0.00  0.00    +0.078 C 
ATOM      7  C   UNL     1      35.333 -16.069 -22.098  0.00  0.00    +0.155 C 
ATOM      8  C   UNL     1      34.964 -15.512 -19.776  0.00  0.00    +0.018 C 
ATOM      9  C   UNL     1      34.413 -13.915 -21.503  0.00  0.00    +0.061 C 
ATOM     10  C   UNL     1      34.842 -14.818 -22.475  0.00  0.00    +0.046 C 
ATOM     11  C   UNL     1      34.473 -14.262 -20.153  0.00  0.00    +0.017 C 
BRANCH   9  13
ATOM     12  O   UNL     1      32.256 -12.502 -20.194  0.00  0.00    -0.269 OA
ATOM     13  N   UNL     1      33.904 -12.615 -21.894  0.00  0.00    -0.233 N 
ATOM     14  C   UNL     1      32.811 -12.044 -21.193  0.00  0.00    +0.257 C 
ATOM     15  C   UNL     1      34.496 -11.909 -22.944  0.00  0.00    +0.072 C 
ATOM     16  C   UNL     1      32.318 -10.721 -21.691  0.00  0.00    +0.059 C 
ATOM     17  C   UNL     1      34.057 -10.713 -23.349  0.00  0.00    +0.017 C 
ATOM     18  C   UNL     1      32.931 -10.107 -22.705  0.00  0.00    +0.006 C 
ENDBRANCH   9  13
ENDBRANCH   2   6
BRANCH   3  19
ATOM     19  C   UNL     1      36.169 -20.027 -19.985  0.00  0.00    +0.010 C 
BRANCH  19  20
ATOM     20  N   UNL     1      35.708 -20.374 -18.650  0.00  0.00    +0.394 N 
ATOM     21  C   UNL     1      36.082 -21.385 -16.582  0.00  0.00    +0.049 C 
ATOM     22  C   UNL     1      34.799 -21.962 -17.186  0.00  0.00    -0.005 C 
ATOM     23  C   UNL     1      36.810 -20.737 -17.756  0.00  0.00    -0.057 C 
ATOM     24  C   UNL     1      34.827 -21.542 -18.651  0.00  0.00    -0.075 C 
ATOM     25  H   UNL     1      35.224 -19.537 -18.329  0.00  0.00    -0.079 HD
BRANCH  21  27
ATOM     26  O   UNL     1      35.800 -22.297 -13.875  0.00  0.00    -0.270 OA
ATOM     27  N   UNL     1      36.886 -22.377 -15.923  0.00  0.00    -0.304 N 
ATOM     28  C   UNL     1      36.676 -22.758 -14.604  0.00  0.00    +0.252 C 
ATOM     29  H   UNL     1      37.615 -22.805 -16.428  0.00  0.00    +0.150 HD
BRANCH  28  32
ATOM     30 CL   UNL     1      41.081 -26.014 -13.833  0.00  0.00    -0.075 Cl
ATOM     31  S   UNL     1      39.124 -24.013 -14.824  0.00  0.00    -0.071 S 
ATOM     32  C   UNL     1      37.610 -23.779 -14.061  0.00  0.00    +0.084 C 
ATOM     33  C   UNL     1      37.442 -24.613 -12.978  0.00  0.00    +0.012 C 
ATOM     34  C   UNL     1      38.572 -25.456 -12.772  0.00  0.00    +0.019 C 
ATOM     35  C   UNL     1      39.560 -25.234 -13.705  0.00  0.00    +0.087 C 
ENDBRANCH  28  32
ENDBRANCH  21  27
ENDBRANCH  19  20
ENDBRANCH   3  19
TORSDOF 6
ENDMDL
MODEL 3
REMARK VINA RESULT:     -11.3      5.140      8.568
REMARK  Name = 42628060
REMARK  6 active torsions:
REMARK  status: ('A' for Active; 'I' for Inactive)
REMARK    1  A    between atoms: N_2  and  C_6
REMARK    2  A    between atoms: C_3  and  C_19
REMARK    3  A    between atoms: C_9  and  N_13
REMARK    4  A    between atoms: C_19  and  N_20
REMARK    5  A    between atoms: C_21  and  N_27
REMARK    6  A    between atoms: C_28  and  C_32
REMARK                            x       y       z     vdW  Elec       q    Type
REMARK                         _______ _______ _______ _____ _____    ______ ____
ROOT
ATOM      1  O   UNL     1      32.747 -12.981 -22.655  0.00  0.00    -0.277 OA
ATOM      2  N   UNL     1      34.716 -13.871 -23.574  0.00  0.00    -0.284 N 
ATOM      3  C   UNL     1      33.684 -12.944 -23.446  0.00  0.00    +0.205 C 
ATOM      4  H   UNL     1      35.385 -13.684 -24.271  0.00  0.00    +0.155 HD
ENDROOT
BRANCH   2   6
ATOM      5  F   UNL     1      34.877 -16.372 -24.792  0.00  0.00    -0.203 F 
ATOM      6  C   UNL     1      34.914 -15.051 -22.819  0.00  0.00    +0.078 C 
ATOM      7  C   UNL     1      34.990 -16.288 -23.459  0.00  0.00    +0.155 C 
ATOM      8  C   UNL     1      35.032 -14.976 -21.431  0.00  0.00    +0.018 C 
ATOM      9  C   UNL     1      35.302 -17.374 -21.324  0.00  0.00    +0.061 C 
ATOM     10  C   UNL     1      35.185 -17.450 -22.711  0.00  0.00    +0.046 C 
ATOM     11  C   UNL     1      35.226 -16.138 -20.683  0.00  0.00    +0.017 C 
BRANCH   9  13
ATOM     12  O   UNL     1      37.869 -18.432 -20.513  0.00  0.00    -0.269 OA
ATOM     13  N   UNL     1      35.503 -18.582 -20.546  0.00  0.00    -0.233 N 
ATOM     14  C   UNL     1      36.819 -19.018 -20.247  0.00  0.00    +0.257 C 
ATOM     15  C   UNL     1      34.409 -19.309 -20.071  0.00  0.00    +0.072 C 
ATOM     16  C   UNL     1      36.938 -20.297 -19.480  0.00  0.00    +0.059 C 
ATOM     17  C   UNL     1      34.543 -20.432 -19.359  0.00  0.00    +0.017 C 
ATOM     18  C   UNL     1      35.847 -20.943 -19.062  0.00  0.00    +0.006 C 
ENDBRANCH   9  13
ENDBRANCH   2   6
BRANCH   3  19
ATOM     19  C   UNL     1      33.856 -11.824 -24.459  0.00  0.00    +0.010 C 
BRANCH  19  20
ATOM     20  N   UNL     1      34.604 -10.734 -23.853  0.00  0.00    +0.394 N 
ATOM     21  C   UNL     1      34.683  -8.565 -23.001  0.00  0.00    +0.049 C 
ATOM     22  C   UNL     1      35.749  -8.704 -24.091  0.00  0.00    -0.005 C 
ATOM     23  C   UNL     1      33.731  -9.734 -23.234  0.00  0.00    -0.057 C 
ATOM     24  C   UNL     1      35.394  -9.987 -24.832  0.00  0.00    -0.075 C 
ATOM     25  H   UNL     1      35.197 -11.194 -23.163  0.00  0.00    -0.079 HD
BRANCH  21  27
ATOM     26  O   UNL     1      33.331  -7.278 -20.820  0.00  0.00    -0.270 OA
ATOM     27  N   UNL     1      34.007  -7.297 -23.038  0.00  0.00    -0.304 N 
ATOM     28  C   UNL     1      33.377  -6.749 -21.928  0.00  0.00    +0.252 C 
ATOM     29  H   UNL     1      33.990  -6.796 -23.886  0.00  0.00    +0.150 HD
BRANCH  28  32
ATOM     30 CL   UNL     1      31.129  -2.279 -24.286  0.00  0.00    -0.075 Cl
ATOM     31  S   UNL     1      32.471  -4.869 -23.734  0.00  0.00    -0.071 S 
ATOM     32  C   UNL     1      32.701  -5.443 -22.137  0.00  0.00    +0.084 C 
ATOM     33  C   UNL     1      32.199  -4.569 -21.197  0.00  0.00    +0.012 C 
ATOM     34  C   UNL     1      31.619  -3.414 -21.796  0.00  0.00    +0.019 C 
ATOM     35  C   UNL     1      31.698  -3.449 -23.170  0.00  0.00    +0.087 C 
ENDBRANCH  28  32
ENDBRANCH  21  27
ENDBRANCH  19  20
ENDBRANCH   3  19
TORSDOF 6
ENDMDL
MODEL 4
REMARK VINA RESULT:     -11.2      4.715      7.791
REMARK  Name = 42628060
REMARK  6 active torsions:
REMARK  status: ('A' for Active; 'I' for Inactive)
REMARK    1  A    between atoms: N_2  and  C_6
REMARK    2  A    between atoms: C_3  and  C_19
REMARK    3  A    between atoms: C_9  and  N_13
REMARK    4  A    between atoms: C_19  and  N_20
REMARK    5  A    between atoms: C_21  and  N_27
REMARK    6  A    between atoms: C_28  and  C_32
REMARK                            x       y       z     vdW  Elec       q    Type
REMARK                         _______ _______ _______ _____ _____    ______ ____
ROOT
ATOM      1  O   UNL     1      32.834 -13.721 -23.196  0.00  0.00    -0.277 OA
ATOM      2  N   UNL     1      34.612 -14.928 -24.144  0.00  0.00    -0.284 N 
ATOM      3  C   UNL     1      33.667 -13.906 -24.078  0.00  0.00    +0.205 C 
ATOM      4  H   UNL     1      35.201 -14.925 -24.932  0.00  0.00    +0.155 HD
ENDROOT
BRANCH   2   6
ATOM      5  F   UNL     1      34.233 -17.601 -24.834  0.00  0.00    -0.203 F 
ATOM      6  C   UNL     1      34.822 -15.970 -23.211  0.00  0.00    +0.078 C 
ATOM      7  C   UNL     1      34.623 -17.298 -23.588  0.00  0.00    +0.155 C 
ATOM      8  C   UNL     1      35.227 -15.667 -21.910  0.00  0.00    +0.018 C 
ATOM      9  C   UNL     1      35.235 -18.020 -21.365  0.00  0.00    +0.061 C 
ATOM     10  C   UNL     1      34.830 -18.324 -22.664  0.00  0.00    +0.046 C 
ATOM     11  C   UNL     1      35.434 -16.693 -20.987  0.00  0.00    +0.017 C 
BRANCH   9  13
ATOM     12  O   UNL     1      33.167 -19.709 -20.252  0.00  0.00    -0.269 OA
ATOM     13  N   UNL     1      35.450 -19.086 -20.404  0.00  0.00    -0.233 N 
ATOM     14  C   UNL     1      34.343 -19.818 -19.903  0.00  0.00    +0.257 C 
ATOM     15  C   UNL     1      36.741 -19.412 -19.984  0.00  0.00    +0.072 C 
ATOM     16  C   UNL     1      34.647 -20.869 -18.882  0.00  0.00    +0.059 C 
ATOM     17  C   UNL     1      36.989 -20.379 -19.095  0.00  0.00    +0.017 C 
ATOM     18  C   UNL     1      35.908 -21.123 -18.524  0.00  0.00    +0.006 C 
ENDBRANCH   9  13
ENDBRANCH   2   6
BRANCH   3  19
ATOM     19  C   UNL     1      33.787 -13.000 -25.292  0.00  0.00    +0.010 C 
BRANCH  19  20
ATOM     20  N   UNL     1      34.481 -11.777 -24.917  0.00  0.00    +0.394 N 
ATOM     21  C   UNL     1      34.648  -9.881 -23.571  0.00  0.00    +0.049 C 
ATOM     22  C   UNL     1      34.651  -9.444 -25.038  0.00  0.00    -0.005 C 
ATOM     23  C   UNL     1      34.093 -11.302 -23.587  0.00  0.00    -0.057 C 
ATOM     24  C   UNL     1      34.176 -10.665 -25.816  0.00  0.00    -0.075 C 
ATOM     25  H   UNL     1      35.467 -12.031 -24.953  0.00  0.00    -0.079 HD
BRANCH  21  27
ATOM     26  O   UNL     1      35.372  -7.229 -22.745  0.00  0.00    -0.270 OA
ATOM     27  N   UNL     1      33.881  -9.006 -22.728  0.00  0.00    -0.304 N 
ATOM     28  C   UNL     1      34.312  -7.732 -22.378  0.00  0.00    +0.252 C 
ATOM     29  H   UNL     1      33.014  -9.323 -22.384  0.00  0.00    +0.150 HD
BRANCH  28  32
ATOM     30 CL   UNL     1      30.490  -4.221 -20.466  0.00  0.00    -0.075 Cl
ATOM     31  S   UNL     1      32.337  -5.818 -22.155  0.00  0.00    -0.071 S 
ATOM     32  C   UNL     1      33.415  -6.962 -21.478  0.00  0.00    +0.084 C 
ATOM     33  C   UNL     1      33.307  -7.026 -20.106  0.00  0.00    +0.012 C 
ATOM     34  C   UNL     1      32.324  -6.124 -19.605  0.00  0.00    +0.019 C 
ATOM     35  C   UNL     1      31.720  -5.405 -20.612  0.00  0.00    +0.087 C 
ENDBRANCH  28  32
ENDBRANCH  21  27
ENDBRANCH  19  20
ENDBRANCH   3  19
TORSDOF 6
ENDMDL
MODEL 5
REMARK VINA RESULT:     -11.1      2.279      3.532
REMARK  Name = 42628060
REMARK  6 active torsions:
REMARK  status: ('A' for Active; 'I' for Inactive)
REMARK    1  A    between atoms: N_2  and  C_6
REMARK    2  A    between atoms: C_3  and  C_19
REMARK    3  A    between atoms: C_9  and  N_13
REMARK    4  A    between atoms: C_19  and  N_20
REMARK    5  A    between atoms: C_21  and  N_27
REMARK    6  A    between atoms: C_28  and  C_32
REMARK                            x       y       z     vdW  Elec       q    Type
REMARK                         _______ _______ _______ _____ _____    ______ ____
ROOT
ATOM      1  O   UNL     1      36.525 -17.894 -22.190  0.00  0.00    -0.277 OA
ATOM      2  N   UNL     1      34.577 -19.087 -21.644  0.00  0.00    -0.284 N 
ATOM      3  C   UNL     1      35.371 -18.242 -22.418  0.00  0.00    +0.205 C 
ATOM      4  H   UNL     1      33.667 -19.254 -21.979  0.00  0.00    +0.155 HD
ENDROOT
BRANCH   2   6
ATOM      5  F   UNL     1      32.654 -20.288 -20.025  0.00  0.00    -0.203 F 
ATOM      6  C   UNL     1      34.926 -19.730 -20.434  0.00  0.00    +0.078 C 
ATOM      7  C   UNL     1      33.939 -20.321 -19.646  0.00  0.00    +0.155 C 
ATOM      8  C   UNL     1      36.260 -19.770 -20.028  0.00  0.00    +0.018 C 
ATOM      9  C   UNL     1      35.621 -20.995 -18.046  0.00  0.00    +0.061 C 
ATOM     10  C   UNL     1      34.287 -20.954 -18.451  0.00  0.00    +0.046 C 
ATOM     11  C   UNL     1      36.608 -20.403 -18.834  0.00  0.00    +0.017 C 
BRANCH   9  13
ATOM     12  O   UNL     1      33.873 -22.683 -16.478  0.00  0.00    -0.269 OA
ATOM     13  N   UNL     1      35.982 -21.652 -16.805  0.00  0.00    -0.233 N 
ATOM     14  C   UNL     1      35.018 -22.424 -16.108  0.00  0.00    +0.257 C 
ATOM     15  C   UNL     1      37.281 -21.548 -16.300  0.00  0.00    +0.072 C 
ATOM     16  C   UNL     1      35.460 -23.029 -14.813  0.00  0.00    +0.059 C 
ATOM     17  C   UNL     1      37.660 -22.127 -15.156  0.00  0.00    +0.017 C 
ATOM     18  C   UNL     1      36.717 -22.884 -14.389  0.00  0.00    +0.006 C 
ENDBRANCH   9  13
ENDBRANCH   2   6
BRANCH   3  19
ATOM     19  C   UNL     1      34.601 -17.771 -23.640  0.00  0.00    +0.010 C 
BRANCH  19  20
ATOM     20  N   UNL     1      34.891 -16.365 -23.882  0.00  0.00    +0.394 N 
ATOM     21  C   UNL     1      34.664 -14.123 -23.284  0.00  0.00    +0.049 C 
ATOM     22  C   UNL     1      34.218 -14.292 -24.739  0.00  0.00    -0.005 C 
ATOM     23  C   UNL     1      34.642 -15.533 -22.703  0.00  0.00    -0.057 C 
ATOM     24  C   UNL     1      34.045 -15.794 -24.930  0.00  0.00    -0.075 C 
ATOM     25  H   UNL     1      35.875 -16.358 -24.146  0.00  0.00    -0.079 HD
BRANCH  21  27
ATOM     26  O   UNL     1      34.552 -11.270 -23.581  0.00  0.00    -0.270 OA
ATOM     27  N   UNL     1      33.830 -13.216 -22.545  0.00  0.00    -0.304 N 
ATOM     28  C   UNL     1      33.842 -11.843 -22.757  0.00  0.00    +0.252 C 
ATOM     29  H   UNL     1      33.225 -13.583 -21.860  0.00  0.00    +0.150 HD
BRANCH  28  32
ATOM     30 CL   UNL     1      30.496 -10.242 -18.654  0.00  0.00    -0.075 Cl
ATOM     31  S   UNL     1      32.303 -11.744 -20.468  0.00  0.00    -0.071 S 
ATOM     32  C   UNL     1      32.940 -11.039 -21.893  0.00  0.00    +0.084 C 
ATOM     33  C   UNL     1      32.509  -9.742 -22.064  0.00  0.00    +0.012 C 
ATOM     34  C   UNL     1      31.646  -9.321 -21.012  0.00  0.00    +0.019 C 
ATOM     35  C   UNL     1      31.449 -10.313 -20.076  0.00  0.00    +0.087 C 
ENDBRANCH  28  32
ENDBRANCH  21  27
ENDBRANCH  19  20
ENDBRANCH   3  19
TORSDOF 6
ENDMDL
MODEL 6
REMARK VINA RESULT:     -11.1      4.915     12.699
REMARK  Name = 42628060
REMARK  6 active torsions:
REMARK  status: ('A' for Active; 'I' for Inactive)
REMARK    1  A    between atoms: N_2  and  C_6
REMARK    2  A    between atoms: C_3  and  C_19
REMARK    3  A    between atoms: C_9  and  N_13
REMARK    4  A    between atoms: C_19  and  N_20
REMARK    5  A    between atoms: C_21  and  N_27
REMARK    6  A    between atoms: C_28  and  C_32
REMARK                            x       y       z     vdW  Elec       q    Type
REMARK                         _______ _______ _______ _____ _____    ______ ____
ROOT
ATOM      1  O   UNL     1      35.306 -15.549 -25.505  0.00  0.00    -0.277 OA
ATOM      2  N   UNL     1      33.904 -14.884 -23.742  0.00  0.00    -0.284 N 
ATOM      3  C   UNL     1      34.565 -15.799 -24.560  0.00  0.00    +0.205 C 
ATOM      4  H   UNL     1      33.343 -15.264 -23.030  0.00  0.00    +0.155 HD
ENDROOT
BRANCH   2   6
ATOM      5  F   UNL     1      34.309 -13.315 -21.476  0.00  0.00    -0.203 F 
ATOM      6  C   UNL     1      33.947 -13.472 -23.818  0.00  0.00    +0.078 C 
ATOM      7  C   UNL     1      34.151 -12.715 -22.665  0.00  0.00    +0.155 C 
ATOM      8  C   UNL     1      33.782 -12.837 -25.049  0.00  0.00    +0.018 C 
ATOM      9  C   UNL     1      34.027 -10.688 -23.973  0.00  0.00    +0.061 C 
ATOM     10  C   UNL     1      34.192 -11.322 -22.742  0.00  0.00    +0.046 C 
ATOM     11  C   UNL     1      33.823 -11.444 -25.127  0.00  0.00    +0.017 C 
BRANCH   9  13
ATOM     12  O   UNL     1      36.274  -9.130 -24.918  0.00  0.00    -0.269 OA
ATOM     13  N   UNL     1      34.068  -9.241 -24.054  0.00  0.00    -0.233 N 
ATOM     14  C   UNL     1      35.249  -8.591 -24.499  0.00  0.00    +0.257 C 
ATOM     15  C   UNL     1      32.946  -8.479 -23.718  0.00  0.00    +0.072 C 
ATOM     16  C   UNL     1      35.222  -7.095 -24.509  0.00  0.00    +0.059 C 
ATOM     17  C   UNL     1      32.938  -7.144 -23.766  0.00  0.00    +0.017 C 
ATOM     18  C   UNL     1      34.114  -6.433 -24.168  0.00  0.00    +0.006 C 
ENDBRANCH   9  13
ENDBRANCH   2   6
BRANCH   3  19
ATOM     19  C   UNL     1      34.240 -17.219 -24.128  0.00  0.00    +0.010 C 
BRANCH  19  20
ATOM     20  N   UNL     1      35.172 -17.635 -23.090  0.00  0.00    +0.394 N 
ATOM     21  C   UNL     1      35.674 -18.956 -21.237  0.00  0.00    +0.049 C 
ATOM     22  C   UNL     1      35.906 -17.488 -20.871  0.00  0.00    -0.005 C 
ATOM     23  C   UNL     1      34.798 -18.914 -22.485  0.00  0.00    -0.057 C 
ATOM     24  C   UNL     1      35.220 -16.691 -21.973  0.00  0.00    -0.075 C 
ATOM     25  H   UNL     1      36.069 -17.694 -23.572  0.00  0.00    -0.079 HD
BRANCH  21  27
ATOM     26  O   UNL     1      37.023 -20.671 -19.371  0.00  0.00    -0.270 OA
ATOM     27  N   UNL     1      35.070 -19.709 -20.172  0.00  0.00    -0.304 N 
ATOM     28  C   UNL     1      35.805 -20.517 -19.313  0.00  0.00    +0.252 C 
ATOM     29  H   UNL     1      34.095 -19.650 -20.046  0.00  0.00    +0.150 HD
BRANCH  28  32
ATOM     30 CL   UNL     1      34.356 -23.154 -14.671  0.00  0.00    -0.075 Cl
ATOM     31  S   UNL     1      35.798 -21.692 -16.816  0.00  0.00    -0.071 S 
ATOM     32  C   UNL     1      35.029 -21.251 -18.281  0.00  0.00    +0.084 C 
ATOM     33  C   UNL     1      33.712 -21.656 -18.315  0.00  0.00    +0.012 C 
ATOM     34  C   UNL     1      33.331 -22.336 -17.123  0.00  0.00    +0.019 C 
ATOM     35  C   UNL     1      34.369 -22.426 -16.223  0.00  0.00    +0.087 C 
ENDBRANCH  28  32
ENDBRANCH  21  27
ENDBRANCH  19  20
ENDBRANCH   3  19
TORSDOF 6
ENDMDL
MODEL 7
REMARK VINA RESULT:     -10.9      1.946      2.186
REMARK  Name = 42628060
REMARK  6 active torsions:
REMARK  status: ('A' for Active; 'I' for Inactive)
REMARK    1  A    between atoms: N_2  and  C_6
REMARK    2  A    between atoms: C_3  and  C_19
REMARK    3  A    between atoms: C_9  and  N_13
REMARK    4  A    between atoms: C_19  and  N_20
REMARK    5  A    between atoms: C_21  and  N_27
REMARK    6  A    between atoms: C_28  and  C_32
REMARK                            x       y       z     vdW  Elec       q    Type
REMARK                         _______ _______ _______ _____ _____    ______ ____
ROOT
ATOM      1  O   UNL     1      32.701 -21.536 -18.165  0.00  0.00    -0.277 OA
ATOM      2  N   UNL     1      34.997 -21.048 -18.252  0.00  0.00    -0.284 N 
ATOM      3  C   UNL     1      33.680 -21.035 -18.709  0.00  0.00    +0.205 C 
ATOM      4  H   UNL     1      35.660 -20.598 -18.823  0.00  0.00    +0.155 HD
ENDROOT
BRANCH   2   6
ATOM      5  F   UNL     1      37.538 -20.450 -17.281  0.00  0.00    -0.203 F 
ATOM      6  C   UNL     1      35.491 -21.633 -17.062  0.00  0.00    +0.078 C 
ATOM      7  C   UNL     1      36.768 -21.312 -16.603  0.00  0.00    +0.155 C 
ATOM      8  C   UNL     1      34.699 -22.533 -16.349  0.00  0.00    +0.018 C 
ATOM      9  C   UNL     1      36.461 -22.791 -14.717  0.00  0.00    +0.061 C 
ATOM     10  C   UNL     1      37.253 -21.891 -15.429  0.00  0.00    +0.046 C 
ATOM     11  C   UNL     1      35.184 -23.112 -15.176  0.00  0.00    +0.017 C 
BRANCH   9  13
ATOM     12  O   UNL     1      37.752 -25.373 -14.539  0.00  0.00    -0.269 OA
ATOM     13  N   UNL     1      36.965 -23.394 -13.498  0.00  0.00    -0.233 N 
ATOM     14  C   UNL     1      37.544 -24.688 -13.537  0.00  0.00    +0.257 C 
ATOM     15  C   UNL     1      36.904 -22.700 -12.287  0.00  0.00    +0.072 C 
ATOM     16  C   UNL     1      37.997 -25.255 -12.228  0.00  0.00    +0.059 C 
ATOM     17  C   UNL     1      37.346 -23.216 -11.136  0.00  0.00    +0.017 C 
ATOM     18  C   UNL     1      37.903 -24.536 -11.108  0.00  0.00    +0.006 C 
ENDBRANCH   9  13
ENDBRANCH   2   6
BRANCH   3  19
ATOM     19  C   UNL     1      33.592 -20.297 -20.034  0.00  0.00    +0.010 C 
BRANCH  19  20
ATOM     20  N   UNL     1      34.662 -19.313 -20.112  0.00  0.00    +0.394 N 
ATOM     21  C   UNL     1      35.409 -17.182 -20.691  0.00  0.00    +0.049 C 
ATOM     22  C   UNL     1      36.299 -18.219 -21.381  0.00  0.00    -0.005 C 
ATOM     23  C   UNL     1      34.155 -17.950 -20.287  0.00  0.00    -0.057 C 
ATOM     24  C   UNL     1      35.541 -19.536 -21.259  0.00  0.00    -0.075 C 
ATOM     25  H   UNL     1      35.160 -19.419 -19.229  0.00  0.00    -0.079 HD
BRANCH  21  27
ATOM     26  O   UNL     1      34.853 -14.501 -19.828  0.00  0.00    -0.270 OA
ATOM     27  N   UNL     1      35.110 -16.055 -21.531  0.00  0.00    -0.304 N 
ATOM     28  C   UNL     1      34.853 -14.788 -21.023  0.00  0.00    +0.252 C 
ATOM     29  H   UNL     1      35.087 -16.186 -22.507  0.00  0.00    +0.150 HD
BRANCH  28  32
ATOM     30 CL   UNL     1      33.733 -12.161 -25.761  0.00  0.00    -0.075 Cl
ATOM     31  S   UNL     1      34.373 -14.169 -23.670  0.00  0.00    -0.071 S 
ATOM     32  C   UNL     1      34.535 -13.734 -22.022  0.00  0.00    +0.084 C 
ATOM     33  C   UNL     1      34.336 -12.386 -21.821  0.00  0.00    +0.012 C 
ATOM     34  C   UNL     1      34.048 -11.701 -23.037  0.00  0.00    +0.019 C 
ATOM     35  C   UNL     1      34.036 -12.552 -24.120  0.00  0.00    +0.087 C 
ENDBRANCH  28  32
ENDBRANCH  21  27
ENDBRANCH  19  20
ENDBRANCH   3  19
TORSDOF 6
ENDMDL
MODEL 8
REMARK VINA RESULT:     -10.8      4.957      9.931
REMARK  Name = 42628060
REMARK  6 active torsions:
REMARK  status: ('A' for Active; 'I' for Inactive)
REMARK    1  A    between atoms: N_2  and  C_6
REMARK    2  A    between atoms: C_3  and  C_19
REMARK    3  A    between atoms: C_9  and  N_13
REMARK    4  A    between atoms: C_19  and  N_20
REMARK    5  A    between atoms: C_21  and  N_27
REMARK    6  A    between atoms: C_28  and  C_32
REMARK                            x       y       z     vdW  Elec       q    Type
REMARK                         _______ _______ _______ _____ _____    ______ ____
ROOT
ATOM      1  O   UNL     1      35.565 -21.484 -15.441  0.00  0.00    -0.277 OA
ATOM      2  N   UNL     1      34.617 -22.468 -17.351  0.00  0.00    -0.284 N 
ATOM      3  C   UNL     1      35.033 -22.424 -16.021  0.00  0.00    +0.205 C 
ATOM      4  H   UNL     1      34.211 -23.312 -17.652  0.00  0.00    +0.155 HD
ENDROOT
BRANCH   2   6
ATOM      5  F   UNL     1      37.077 -21.404 -18.112  0.00  0.00    -0.203 F 
ATOM      6  C   UNL     1      34.712 -21.439 -18.318  0.00  0.00    +0.078 C 
ATOM      7  C   UNL     1      35.959 -20.928 -18.676  0.00  0.00    +0.155 C 
ATOM      8  C   UNL     1      33.554 -20.934 -18.911  0.00  0.00    +0.018 C 
ATOM      9  C   UNL     1      34.892 -19.409 -20.223  0.00  0.00    +0.061 C 
ATOM     10  C   UNL     1      36.049 -19.913 -19.630  0.00  0.00    +0.046 C 
ATOM     11  C   UNL     1      33.644 -19.919 -19.864  0.00  0.00    +0.017 C 
BRANCH   9  13
ATOM     12  O   UNL     1      35.686 -16.680 -19.686  0.00  0.00    -0.269 OA
ATOM     13  N   UNL     1      34.985 -18.353 -21.212  0.00  0.00    -0.233 N 
ATOM     14  C   UNL     1      35.349 -17.041 -20.814  0.00  0.00    +0.257 C 
ATOM     15  C   UNL     1      34.739 -18.622 -22.561  0.00  0.00    +0.072 C 
ATOM     16  C   UNL     1      35.377 -16.002 -21.890  0.00  0.00    +0.059 C 
ATOM     17  C   UNL     1      34.803 -17.682 -23.509  0.00  0.00    +0.017 C 
ATOM     18  C   UNL     1      35.125 -16.331 -23.159  0.00  0.00    +0.006 C 
ENDBRANCH   9  13
ENDBRANCH   2   6
BRANCH   3  19
ATOM     19  C   UNL     1      34.742 -23.750 -15.337  0.00  0.00    +0.010 C 
BRANCH  19  20
ATOM     20  N   UNL     1      33.605 -23.593 -14.443  0.00  0.00    +0.394 N 
ATOM     21  C   UNL     1      31.341 -23.147 -14.113  0.00  0.00    +0.049 C 
ATOM     22  C   UNL     1      32.162 -22.184 -13.251  0.00  0.00    -0.005 C 
ATOM     23  C   UNL     1      32.324 -23.682 -15.148  0.00  0.00    -0.057 C 
ATOM     24  C   UNL     1      33.584 -22.284 -13.791  0.00  0.00    -0.075 C 
ATOM     25  H   UNL     1      33.715 -24.349 -13.768  0.00  0.00    -0.079 HD
BRANCH  21  27
ATOM     26  O   UNL     1      28.720 -24.280 -14.414  0.00  0.00    -0.270 OA
ATOM     27  N   UNL     1      30.199 -22.519 -14.719  0.00  0.00    -0.304 N 
ATOM     28  C   UNL     1      28.964 -23.146 -14.821  0.00  0.00    +0.252 C 
ATOM     29  H   UNL     1      30.296 -21.607 -15.076  0.00  0.00    +0.150 HD
BRANCH  28  32
ATOM     30 CL   UNL     1      25.700 -20.899 -18.681  0.00  0.00    -0.075 Cl
ATOM     31  S   UNL     1      27.799 -22.396 -17.208  0.00  0.00    -0.071 S 
ATOM     32  C   UNL     1      27.891 -22.373 -15.499  0.00  0.00    +0.084 C 
ATOM     33  C   UNL     1      26.900 -21.597 -14.938  0.00  0.00    +0.012 C 
ATOM     34  C   UNL     1      26.055 -21.013 -15.926  0.00  0.00    +0.019 C 
ATOM     35  C   UNL     1      26.431 -21.366 -17.203  0.00  0.00    +0.087 C 
ENDBRANCH  28  32
ENDBRANCH  21  27
ENDBRANCH  19  20
ENDBRANCH   3  19
TORSDOF 6
ENDMDL
MODEL 9
REMARK VINA RESULT:     -10.5      5.398     10.884
REMARK  Name = 42628060
REMARK  6 active torsions:
REMARK  status: ('A' for Active; 'I' for Inactive)
REMARK    1  A    between atoms: N_2  and  C_6
REMARK    2  A    between atoms: C_3  and  C_19
REMARK    3  A    between atoms: C_9  and  N_13
REMARK    4  A    between atoms: C_19  and  N_20
REMARK    5  A    between atoms: C_21  and  N_27
REMARK    6  A    between atoms: C_28  and  C_32
REMARK                            x       y       z     vdW  Elec       q    Type
REMARK                         _______ _______ _______ _____ _____    ______ ____
ROOT
ATOM      1  O   UNL     1      30.437 -21.304 -16.568  0.00  0.00    -0.277 OA
ATOM      2  N   UNL     1      32.389 -22.537 -16.994  0.00  0.00    -0.284 N 
ATOM      3  C   UNL     1      31.146 -22.293 -16.414  0.00  0.00    +0.205 C 
ATOM      4  H   UNL     1      32.822 -23.388 -16.753  0.00  0.00    +0.155 HD
ENDROOT
BRANCH   2   6
ATOM      5  F   UNL     1      35.174 -22.465 -17.011  0.00  0.00    -0.203 F 
ATOM      6  C   UNL     1      33.102 -21.705 -17.889  0.00  0.00    +0.078 C 
ATOM      7  C   UNL     1      34.497 -21.692 -17.872  0.00  0.00    +0.155 C 
ATOM      8  C   UNL     1      32.408 -20.895 -18.787  0.00  0.00    +0.018 C 
ATOM      9  C   UNL     1      34.502 -20.059 -19.653  0.00  0.00    +0.061 C 
ATOM     10  C   UNL     1      35.197 -20.869 -18.755  0.00  0.00    +0.046 C 
ATOM     11  C   UNL     1      33.108 -20.072 -19.670  0.00  0.00    +0.017 C 
BRANCH   9  13
ATOM     12  O   UNL     1      37.171 -19.030 -19.219  0.00  0.00    -0.269 OA
ATOM     13  N   UNL     1      35.230 -19.203 -20.570  0.00  0.00    -0.233 N 
ATOM     14  C   UNL     1      36.522 -18.731 -20.221  0.00  0.00    +0.257 C 
ATOM     15  C   UNL     1      34.678 -18.856 -21.805  0.00  0.00    +0.072 C 
ATOM     16  C   UNL     1      37.184 -17.816 -21.204  0.00  0.00    +0.059 C 
ATOM     17  C   UNL     1      35.304 -18.063 -22.680  0.00  0.00    +0.017 C 
ATOM     18  C   UNL     1      36.593 -17.523 -22.364  0.00  0.00    +0.006 C 
ENDBRANCH   9  13
ENDBRANCH   2   6
BRANCH   3  19
ATOM     19  C   UNL     1      30.749 -23.452 -15.515  0.00  0.00    +0.010 C 
BRANCH  19  20
ATOM     20  N   UNL     1      31.422 -23.320 -14.231  0.00  0.00    +0.394 N 
ATOM     21  C   UNL     1      33.383 -23.090 -12.991  0.00  0.00    +0.049 C 
ATOM     22  C   UNL     1      32.614 -24.309 -12.474  0.00  0.00    -0.005 C 
ATOM     23  C   UNL     1      32.787 -22.807 -14.366  0.00  0.00    -0.057 C 
ATOM     24  C   UNL     1      31.570 -24.603 -13.544  0.00  0.00    -0.075 C 
ATOM     25  H   UNL     1      30.829 -22.677 -13.706  0.00  0.00    -0.079 HD
BRANCH  21  27
ATOM     26  O   UNL     1      35.046 -24.105 -10.882  0.00  0.00    -0.270 OA
ATOM     27  N   UNL     1      34.802 -23.306 -13.047  0.00  0.00    -0.304 N 
ATOM     28  C   UNL     1      35.529 -23.803 -11.972  0.00  0.00    +0.252 C 
ATOM     29  H   UNL     1      35.280 -23.093 -13.881  0.00  0.00    +0.150 HD
BRANCH  28  32
ATOM     30 CL   UNL     1      40.468 -25.483 -13.811  0.00  0.00    -0.075 Cl
ATOM     31  S   UNL     1      37.567 -25.107 -13.299  0.00  0.00    -0.071 S 
ATOM     32  C   UNL     1      36.993 -23.945 -12.180  0.00  0.00    +0.084 C 
ATOM     33  C   UNL     1      38.022 -23.249 -11.583  0.00  0.00    +0.012 C 
ATOM     34  C   UNL     1      39.298 -23.676 -12.051  0.00  0.00    +0.019 C 
ATOM     35  C   UNL     1      39.196 -24.681 -12.987  0.00  0.00    +0.087 C 
ENDBRANCH  28  32
ENDBRANCH  21  27
ENDBRANCH  19  20
ENDBRANCH   3  19
TORSDOF 6
ENDMDL
