MODEL 1
REMARK VINA RESULT:     -11.9      0.000      0.000
REMARK  Name = 42628063
REMARK  6 active torsions:
REMARK  status: ('A' for Active; 'I' for Inactive)
REMARK    1  A    between atoms: C_1  and  N_3
REMARK    2  A    between atoms: C_1  and  C_21
REMARK    3  A    between atoms: C_4  and  N_10
REMARK    4  A    between atoms: C_11  and  C_15
REMARK    5  A    between atoms: N_20  and  C_24
REMARK    6  A    between atoms: C_27  and  N_31
REMARK                            x       y       z     vdW  Elec       q    Type
REMARK                         _______ _______ _______ _____ _____    ______ ____
ROOT
ATOM      1  C   UNL     1      36.211 -19.963 -20.094  0.00  0.00    +0.010 C 
ENDROOT
BRANCH   1   3
ATOM      2  F   UNL     1      33.730 -21.756 -16.827  0.00  0.00    -0.238 F 
ATOM      3  N   UNL     1      35.717 -20.378 -18.790  0.00  0.00    +0.396 N 
ATOM      4  C   UNL     1      36.044 -21.379 -16.725  0.00  0.00    +0.082 C 
ATOM      5  C   UNL     1      34.900 -22.106 -17.425  0.00  0.00    +0.156 C 
ATOM      6  C   UNL     1      36.799 -20.691 -17.855  0.00  0.00    -0.054 C 
ATOM      7  C   UNL     1      34.903 -21.596 -18.860  0.00  0.00    -0.039 C 
ATOM      8  H   UNL     1      35.167 -19.582 -18.469  0.00  0.00    -0.079 HD
BRANCH   4  10
ATOM      9  O   UNL     1      35.637 -22.241 -14.017  0.00  0.00    -0.270 OA
ATOM     10  N   UNL     1      36.889 -22.262 -15.970  0.00  0.00    -0.302 N 
ATOM     11  C   UNL     1      36.612 -22.626 -14.657  0.00  0.00    +0.252 C 
ATOM     12  H   UNL     1      37.698 -22.624 -16.399  0.00  0.00    +0.150 HD
BRANCH  11  15
ATOM     13 CL   UNL     1      40.996 -25.864 -13.713  0.00  0.00    -0.075 Cl
ATOM     14  S   UNL     1      38.952 -24.069 -14.902  0.00  0.00    -0.071 S 
ATOM     15  C   UNL     1      37.598 -23.527 -14.005  0.00  0.00    +0.084 C 
ATOM     16  C   UNL     1      37.597 -24.021 -12.720  0.00  0.00    +0.012 C 
ATOM     17  C   UNL     1      38.723 -24.858 -12.467  0.00  0.00    +0.019 C 
ATOM     18  C   UNL     1      39.541 -24.970 -13.570  0.00  0.00    +0.087 C 
ENDBRANCH  11  15
ENDBRANCH   4  10
ENDBRANCH   1   3
BRANCH   1  21
ATOM     19  O   UNL     1      34.244 -19.090 -21.184  0.00  0.00    -0.277 OA
ATOM     20  N   UNL     1      35.909 -17.616 -20.431  0.00  0.00    -0.284 N 
ATOM     21  C   UNL     1      35.321 -18.861 -20.644  0.00  0.00    +0.205 C 
ATOM     22  H   UNL     1      36.780 -17.619 -19.974  0.00  0.00    +0.155 HD
BRANCH  20  24
ATOM     23  F   UNL     1      35.686 -16.844 -23.100  0.00  0.00    -0.203 F 
ATOM     24  C   UNL     1      35.398 -16.348 -20.794  0.00  0.00    +0.078 C 
ATOM     25  C   UNL     1      35.299 -15.991 -22.140  0.00  0.00    +0.155 C 
ATOM     26  C   UNL     1      34.993 -15.451 -19.805  0.00  0.00    +0.018 C 
ATOM     27  C   UNL     1      34.390 -13.845 -21.506  0.00  0.00    +0.061 C 
ATOM     28  C   UNL     1      34.796 -14.741 -22.496  0.00  0.00    +0.046 C 
ATOM     29  C   UNL     1      34.489 -14.201 -20.161  0.00  0.00    +0.017 C 
BRANCH  27  31
ATOM     30  O   UNL     1      32.224 -12.473 -20.169  0.00  0.00    -0.269 OA
ATOM     31  N   UNL     1      33.867 -12.545 -21.876  0.00  0.00    -0.233 N 
ATOM     32  C   UNL     1      32.770 -11.995 -21.162  0.00  0.00    +0.257 C 
ATOM     33  C   UNL     1      34.447 -11.816 -22.917  0.00  0.00    +0.072 C 
ATOM     34  C   UNL     1      32.263 -10.671 -21.638  0.00  0.00    +0.059 C 
ATOM     35  C   UNL     1      33.995 -10.618 -23.303  0.00  0.00    +0.017 C 
ATOM     36  C   UNL     1      32.865 -10.034 -22.646  0.00  0.00    +0.006 C 
ENDBRANCH  27  31
ENDBRANCH  20  24
ENDBRANCH   1  21
TORSDOF 6
ENDMDL
MODEL 2
REMARK VINA RESULT:     -11.6      4.436     11.924
REMARK  Name = 42628063
REMARK  6 active torsions:
REMARK  status: ('A' for Active; 'I' for Inactive)
REMARK    1  A    between atoms: C_1  and  N_3
REMARK    2  A    between atoms: C_1  and  C_21
REMARK    3  A    between atoms: C_4  and  N_10
REMARK    4  A    between atoms: C_11  and  C_15
REMARK    5  A    between atoms: N_20  and  C_24
REMARK    6  A    between atoms: C_27  and  N_31
REMARK                            x       y       z     vdW  Elec       q    Type
REMARK                         _______ _______ _______ _____ _____    ______ ____
ROOT
ATOM      1  C   UNL     1      34.933 -19.774 -20.513  0.00  0.00    +0.010 C 
ENDROOT
BRANCH   1   3
ATOM      2  F   UNL     1      36.093 -16.707 -23.562  0.00  0.00    -0.238 F 
ATOM      3  N   UNL     1      35.369 -18.540 -21.150  0.00  0.00    +0.396 N 
ATOM      4  C   UNL     1      35.220 -16.245 -21.433  0.00  0.00    +0.082 C 
ATOM      5  C   UNL     1      34.990 -16.902 -22.791  0.00  0.00    +0.156 C 
ATOM      6  C   UNL     1      34.924 -17.349 -20.426  0.00  0.00    -0.054 C 
ATOM      7  C   UNL     1      34.831 -18.390 -22.507  0.00  0.00    -0.039 C 
ATOM      8  H   UNL     1      36.385 -18.613 -21.160  0.00  0.00    -0.079 HD
BRANCH   4  10
ATOM      9  O   UNL     1      35.294 -13.794 -22.927  0.00  0.00    -0.270 OA
ATOM     10  N   UNL     1      34.395 -15.087 -21.224  0.00  0.00    -0.302 N 
ATOM     11  C   UNL     1      34.501 -13.938 -22.000  0.00  0.00    +0.252 C 
ATOM     12  H   UNL     1      33.727 -15.108 -20.502  0.00  0.00    +0.150 HD
BRANCH  11  15
ATOM     13 CL   UNL     1      30.743 -10.799 -19.429  0.00  0.00    -0.075 Cl
ATOM     14  S   UNL     1      32.595 -12.966 -20.257  0.00  0.00    -0.071 S 
ATOM     15  C   UNL     1      33.593 -12.819 -21.641  0.00  0.00    +0.084 C 
ATOM     16  C   UNL     1      33.417 -11.611 -22.279  0.00  0.00    +0.012 C 
ATOM     17  C   UNL     1      32.449 -10.796 -21.624  0.00  0.00    +0.019 C 
ATOM     18  C   UNL     1      31.923 -11.412 -20.510  0.00  0.00    +0.087 C 
ENDBRANCH  11  15
ENDBRANCH   4  10
ENDBRANCH   1   3
BRANCH   1  21
ATOM     19  O   UNL     1      36.929 -19.549 -19.177  0.00  0.00    -0.277 OA
ATOM     20  N   UNL     1      35.211 -20.986 -18.473  0.00  0.00    -0.284 N 
ATOM     21  C   UNL     1      35.829 -20.072 -19.323  0.00  0.00    +0.205 C 
ATOM     22  H   UNL     1      34.320 -21.300 -18.745  0.00  0.00    +0.155 HD
BRANCH  20  24
ATOM     23  F   UNL     1      33.613 -22.500 -16.763  0.00  0.00    -0.203 F 
ATOM     24  C   UNL     1      35.717 -21.515 -17.262  0.00  0.00    +0.078 C 
ATOM     25  C   UNL     1      34.891 -22.270 -16.427  0.00  0.00    +0.155 C 
ATOM     26  C   UNL     1      37.044 -21.282 -16.901  0.00  0.00    +0.018 C 
ATOM     27  C   UNL     1      36.719 -22.557 -14.875  0.00  0.00    +0.061 C 
ATOM     28  C   UNL     1      35.391 -22.790 -15.235  0.00  0.00    +0.046 C 
ATOM     29  C   UNL     1      37.545 -21.803 -15.708  0.00  0.00    +0.017 C 
BRANCH  27  31
ATOM     30  O   UNL     1      37.919 -25.170 -14.565  0.00  0.00    -0.269 OA
ATOM     31  N   UNL     1      37.239 -23.099 -13.635  0.00  0.00    -0.233 N 
ATOM     32  C   UNL     1      37.770 -24.415 -13.605  0.00  0.00    +0.257 C 
ATOM     33  C   UNL     1      37.244 -22.327 -12.471  0.00  0.00    +0.072 C 
ATOM     34  C   UNL     1      38.243 -24.912 -12.276  0.00  0.00    +0.059 C 
ATOM     35  C   UNL     1      37.704 -22.783 -11.301  0.00  0.00    +0.017 C 
ATOM     36  C   UNL     1      38.211 -24.118 -11.203  0.00  0.00    +0.006 C 
ENDBRANCH  27  31
ENDBRANCH  20  24
ENDBRANCH   1  21
TORSDOF 6
ENDMDL
MODEL 3
REMARK VINA RESULT:     -11.4      6.721     12.822
REMARK  Name = 42628063
REMARK  6 active torsions:
REMARK  status: ('A' for Active; 'I' for Inactive)
REMARK    1  A    between atoms: C_1  and  N_3
REMARK    2  A    between atoms: C_1  and  C_21
REMARK    3  A    between atoms: C_4  and  N_10
REMARK    4  A    between atoms: C_11  and  C_15
REMARK    5  A    between atoms: N_20  and  C_24
REMARK    6  A    between atoms: C_27  and  N_31
REMARK                            x       y       z     vdW  Elec       q    Type
REMARK                         _______ _______ _______ _____ _____    ______ ____
ROOT
ATOM      1  C   UNL     1      33.860 -13.105 -25.272  0.00  0.00    +0.010 C 
ENDROOT
BRANCH   1   3
ATOM      2  F   UNL     1      35.762  -9.060 -25.523  0.00  0.00    -0.238 F 
ATOM      3  N   UNL     1      34.500 -11.844 -24.927  0.00  0.00    +0.396 N 
ATOM      4  C   UNL     1      34.601  -9.903 -23.666  0.00  0.00    +0.082 C 
ATOM      5  C   UNL     1      34.536  -9.505 -25.137  0.00  0.00    +0.156 C 
ATOM      6  C   UNL     1      34.051 -11.323 -23.635  0.00  0.00    -0.054 C 
ATOM      7  C   UNL     1      34.203 -10.783 -25.896  0.00  0.00    -0.039 C 
ATOM      8  H   UNL     1      35.494 -12.067 -24.914  0.00  0.00    -0.079 HD
BRANCH   4  10
ATOM      9  O   UNL     1      35.457  -7.342 -22.692  0.00  0.00    -0.270 OA
ATOM     10  N   UNL     1      33.858  -9.018 -22.812  0.00  0.00    -0.302 N 
ATOM     11  C   UNL     1      34.355  -7.790 -22.388  0.00  0.00    +0.252 C 
ATOM     12  H   UNL     1      32.960  -9.291 -22.516  0.00  0.00    +0.150 HD
BRANCH  11  15
ATOM     13 CL   UNL     1      30.604  -4.203 -20.476  0.00  0.00    -0.075 Cl
ATOM     14  S   UNL     1      32.420  -5.835 -22.165  0.00  0.00    -0.071 S 
ATOM     15  C   UNL     1      33.473  -7.002 -21.488  0.00  0.00    +0.084 C 
ATOM     16  C   UNL     1      33.361  -7.068 -20.117  0.00  0.00    +0.012 C 
ATOM     17  C   UNL     1      32.397  -6.146 -19.614  0.00  0.00    +0.019 C 
ATOM     18  C   UNL     1      31.809  -5.412 -20.622  0.00  0.00    +0.087 C 
ENDBRANCH  11  15
ENDBRANCH   4  10
ENDBRANCH   1   3
BRANCH   1  21
ATOM     19  O   UNL     1      32.986 -13.719 -23.109  0.00  0.00    -0.277 OA
ATOM     20  N   UNL     1      34.630 -15.054 -24.123  0.00  0.00    -0.284 N 
ATOM     21  C   UNL     1      33.755 -13.974 -24.030  0.00  0.00    +0.205 C 
ATOM     22  H   UNL     1      35.172 -15.105 -24.942  0.00  0.00    +0.155 HD
BRANCH  20  24
ATOM     23  F   UNL     1      34.221 -17.732 -24.778  0.00  0.00    -0.203 F 
ATOM     24  C   UNL     1      34.829 -16.086 -23.175  0.00  0.00    +0.078 C 
ATOM     25  C   UNL     1      34.615 -17.418 -23.535  0.00  0.00    +0.155 C 
ATOM     26  C   UNL     1      35.238 -15.772 -21.880  0.00  0.00    +0.018 C 
ATOM     27  C   UNL     1      35.223 -18.119 -21.305  0.00  0.00    +0.061 C 
ATOM     28  C   UNL     1      34.812 -18.433 -22.601  0.00  0.00    +0.046 C 
ATOM     29  C   UNL     1      35.436 -16.788 -20.945  0.00  0.00    +0.017 C 
BRANCH  27  31
ATOM     30  O   UNL     1      33.144 -19.794 -20.194  0.00  0.00    -0.269 OA
ATOM     31  N   UNL     1      35.428 -19.175 -20.333  0.00  0.00    -0.233 N 
ATOM     32  C   UNL     1      34.316 -19.902 -19.833  0.00  0.00    +0.257 C 
ATOM     33  C   UNL     1      36.715 -19.499 -19.899  0.00  0.00    +0.072 C 
ATOM     34  C   UNL     1      34.610 -20.942 -18.799  0.00  0.00    +0.059 C 
ATOM     35  C   UNL     1      36.956 -20.456 -18.997  0.00  0.00    +0.017 C 
ATOM     36  C   UNL     1      35.867 -21.193 -18.427  0.00  0.00    +0.006 C 
ENDBRANCH  27  31
ENDBRANCH  20  24
ENDBRANCH   1  21
TORSDOF 6
ENDMDL
MODEL 4
REMARK VINA RESULT:     -11.2      6.548     12.952
REMARK  Name = 42628063
REMARK  6 active torsions:
REMARK  status: ('A' for Active; 'I' for Inactive)
REMARK    1  A    between atoms: C_1  and  N_3
REMARK    2  A    between atoms: C_1  and  C_21
REMARK    3  A    between atoms: C_4  and  N_10
REMARK    4  A    between atoms: C_11  and  C_15
REMARK    5  A    between atoms: N_20  and  C_24
REMARK    6  A    between atoms: C_27  and  N_31
REMARK                            x       y       z     vdW  Elec       q    Type
REMARK                         _______ _______ _______ _____ _____    ______ ____
ROOT
ATOM      1  C   UNL     1      33.706 -12.458 -25.148  0.00  0.00    +0.010 C 
ENDROOT
BRANCH   1   3
ATOM      2  F   UNL     1      36.636  -9.081 -25.378  0.00  0.00    -0.238 F 
ATOM      3  N   UNL     1      34.636 -11.395 -24.795  0.00  0.00    +0.396 N 
ATOM      4  C   UNL     1      35.169  -9.487 -23.593  0.00  0.00    +0.082 C 
ATOM      5  C   UNL     1      35.313  -9.164 -25.077  0.00  0.00    +0.156 C 
ATOM      6  C   UNL     1      34.257 -10.707 -23.560  0.00  0.00    -0.054 C 
ATOM      7  C   UNL     1      34.701 -10.346 -25.818  0.00  0.00    -0.039 C 
ATOM      8  H   UNL     1      35.531 -11.873 -24.696  0.00  0.00    -0.079 HD
BRANCH   4  10
ATOM      9  O   UNL     1      32.480  -8.486 -23.684  0.00  0.00    -0.270 OA
ATOM     10  N   UNL     1      34.635  -8.393 -22.830  0.00  0.00    -0.302 N 
ATOM     11  C   UNL     1      33.312  -7.976 -22.940  0.00  0.00    +0.252 C 
ATOM     12  H   UNL     1      35.228  -7.921 -22.203  0.00  0.00    +0.150 HD
BRANCH  11  15
ATOM     13 CL   UNL     1      32.433  -4.631 -18.624  0.00  0.00    -0.075 Cl
ATOM     14  S   UNL     1      33.165  -6.888 -20.408  0.00  0.00    -0.071 S 
ATOM     15  C   UNL     1      32.921  -6.813 -22.101  0.00  0.00    +0.084 C 
ATOM     16  C   UNL     1      32.364  -5.616 -22.491  0.00  0.00    +0.012 C 
ATOM     17  C   UNL     1      32.132  -4.748 -21.385  0.00  0.00    +0.019 C 
ATOM     18  C   UNL     1      32.523  -5.315 -20.192  0.00  0.00    +0.087 C 
ENDBRANCH  11  15
ENDBRANCH   4  10
ENDBRANCH   1   3
BRANCH   1  21
ATOM     19  O   UNL     1      32.747 -13.341 -23.118  0.00  0.00    -0.277 OA
ATOM     20  N   UNL     1      34.581 -14.422 -24.106  0.00  0.00    -0.284 N 
ATOM     21  C   UNL     1      33.600 -13.441 -23.994  0.00  0.00    +0.205 C 
ATOM     22  H   UNL     1      35.182 -14.350 -24.882  0.00  0.00    +0.155 HD
BRANCH  20  24
ATOM     23  F   UNL     1      34.381 -17.060 -24.986  0.00  0.00    -0.203 F 
ATOM     24  C   UNL     1      34.814 -15.513 -23.235  0.00  0.00    +0.078 C 
ATOM     25  C   UNL     1      34.706 -16.822 -23.706  0.00  0.00    +0.155 C 
ATOM     26  C   UNL     1      35.151 -15.278 -21.902  0.00  0.00    +0.018 C 
ATOM     27  C   UNL     1      35.274 -17.660 -21.513  0.00  0.00    +0.061 C 
ATOM     28  C   UNL     1      34.935 -17.895 -22.846  0.00  0.00    +0.046 C 
ATOM     29  C   UNL     1      35.382 -16.351 -21.041  0.00  0.00    +0.017 C 
BRANCH  27  31
ATOM     30  O   UNL     1      37.865 -18.497 -20.540  0.00  0.00    -0.269 OA
ATOM     31  N   UNL     1      35.513 -18.775 -20.618  0.00  0.00    -0.233 N 
ATOM     32  C   UNL     1      36.840 -19.110 -20.244  0.00  0.00    +0.257 C 
ATOM     33  C   UNL     1      34.444 -19.511 -20.102  0.00  0.00    +0.072 C 
ATOM     34  C   UNL     1      37.001 -20.302 -19.355  0.00  0.00    +0.059 C 
ATOM     35  C   UNL     1      34.612 -20.554 -19.281  0.00  0.00    +0.017 C 
ATOM     36  C   UNL     1      35.932 -20.963 -18.905  0.00  0.00    +0.006 C 
ENDBRANCH  27  31
ENDBRANCH  20  24
ENDBRANCH   1  21
TORSDOF 6
ENDMDL
MODEL 5
REMARK VINA RESULT:     -11.2      4.794     11.422
REMARK  Name = 42628063
REMARK  6 active torsions:
REMARK  status: ('A' for Active; 'I' for Inactive)
REMARK    1  A    between atoms: C_1  and  N_3
REMARK    2  A    between atoms: C_1  and  C_21
REMARK    3  A    between atoms: C_4  and  N_10
REMARK    4  A    between atoms: C_11  and  C_15
REMARK    5  A    between atoms: N_20  and  C_24
REMARK    6  A    between atoms: C_27  and  N_31
REMARK                            x       y       z     vdW  Elec       q    Type
REMARK                         _______ _______ _______ _____ _____    ______ ____
ROOT
ATOM      1  C   UNL     1      34.526 -17.439 -24.092  0.00  0.00    +0.010 C 
ENDROOT
BRANCH   1   3
ATOM      2  F   UNL     1      34.218 -13.325 -25.830  0.00  0.00    -0.238 F 
ATOM      3  N   UNL     1      34.624 -16.001 -24.289  0.00  0.00    +0.396 N 
ATOM      4  C   UNL     1      34.323 -13.829 -23.540  0.00  0.00    +0.082 C 
ATOM      5  C   UNL     1      33.552 -13.987 -24.847  0.00  0.00    +0.156 C 
ATOM      6  C   UNL     1      34.506 -15.255 -23.036  0.00  0.00    -0.054 C 
ATOM      7  C   UNL     1      33.559 -15.479 -25.152  0.00  0.00    -0.039 C 
ATOM      8  H   UNL     1      35.542 -15.872 -24.714  0.00  0.00    -0.079 HD
BRANCH   4  10
ATOM      9  O   UNL     1      33.925 -10.990 -23.706  0.00  0.00    -0.270 OA
ATOM     10  N   UNL     1      33.642 -13.001 -22.584  0.00  0.00    -0.302 N 
ATOM     11  C   UNL     1      33.496 -11.628 -22.748  0.00  0.00    +0.252 C 
ATOM     12  H   UNL     1      33.262 -13.423 -21.780  0.00  0.00    +0.150 HD
BRANCH  11  15
ATOM     13 CL   UNL     1      31.005 -10.427 -17.958  0.00  0.00    -0.075 Cl
ATOM     14  S   UNL     1      32.412 -11.749 -20.213  0.00  0.00    -0.071 S 
ATOM     15  C   UNL     1      32.787 -10.910 -21.657  0.00  0.00    +0.084 C 
ATOM     16  C   UNL     1      32.361  -9.600 -21.620  0.00  0.00    +0.012 C 
ATOM     17  C   UNL     1      31.717  -9.282 -20.389  0.00  0.00    +0.019 C 
ATOM     18  C   UNL     1      31.676 -10.361 -19.533  0.00  0.00    +0.087 C 
ENDBRANCH  11  15
ENDBRANCH   4  10
ENDBRANCH   1   3
BRANCH   1  21
ATOM     19  O   UNL     1      36.303 -17.296 -22.466  0.00  0.00    -0.277 OA
ATOM     20  N   UNL     1      34.551 -18.825 -22.145  0.00  0.00    -0.284 N 
ATOM     21  C   UNL     1      35.253 -17.825 -22.815  0.00  0.00    +0.205 C 
ATOM     22  H   UNL     1      33.718 -19.131 -22.570  0.00  0.00    +0.155 HD
BRANCH  20  24
ATOM     23  F   UNL     1      32.608 -19.879 -20.446  0.00  0.00    -0.203 F 
ATOM     24  C   UNL     1      34.896 -19.451 -20.924  0.00  0.00    +0.078 C 
ATOM     25  C   UNL     1      33.899 -19.969 -20.095  0.00  0.00    +0.155 C 
ATOM     26  C   UNL     1      36.235 -19.550 -20.547  0.00  0.00    +0.018 C 
ATOM     27  C   UNL     1      35.581 -20.685 -18.517  0.00  0.00    +0.061 C 
ATOM     28  C   UNL     1      34.242 -20.585 -18.893  0.00  0.00    +0.046 C 
ATOM     29  C   UNL     1      36.578 -20.168 -19.345  0.00  0.00    +0.017 C 
BRANCH  27  31
ATOM     30  O   UNL     1      34.006 -22.695 -17.161  0.00  0.00    -0.269 OA
ATOM     31  N   UNL     1      35.938 -21.326 -17.267  0.00  0.00    -0.233 N 
ATOM     32  C   UNL     1      35.057 -22.272 -16.680  0.00  0.00    +0.257 C 
ATOM     33  C   UNL     1      37.153 -21.037 -16.643  0.00  0.00    +0.072 C 
ATOM     34  C   UNL     1      35.479 -22.851 -15.368  0.00  0.00    +0.059 C 
ATOM     35  C   UNL     1      37.524 -21.593 -15.485  0.00  0.00    +0.017 C 
ATOM     36  C   UNL     1      36.655 -22.523 -14.827  0.00  0.00    +0.006 C 
ENDBRANCH  27  31
ENDBRANCH  20  24
ENDBRANCH   1  21
TORSDOF 6
ENDMDL
MODEL 6
REMARK VINA RESULT:     -11.1      3.684      5.410
REMARK  Name = 42628063
REMARK  6 active torsions:
REMARK  status: ('A' for Active; 'I' for Inactive)
REMARK    1  A    between atoms: C_1  and  N_3
REMARK    2  A    between atoms: C_1  and  C_21
REMARK    3  A    between atoms: C_4  and  N_10
REMARK    4  A    between atoms: C_11  and  C_15
REMARK    5  A    between atoms: N_20  and  C_24
REMARK    6  A    between atoms: C_27  and  N_31
REMARK                            x       y       z     vdW  Elec       q    Type
REMARK                         _______ _______ _______ _____ _____    ______ ____
ROOT
ATOM      1  C   UNL     1      34.125 -17.271 -24.255  0.00  0.00    +0.010 C 
ENDROOT
BRANCH   1   3
ATOM      2  F   UNL     1      37.284 -17.559 -21.096  0.00  0.00    -0.238 F 
ATOM      3  N   UNL     1      35.063 -17.783 -23.268  0.00  0.00    +0.396 N 
ATOM      4  C   UNL     1      35.542 -19.098 -21.421  0.00  0.00    +0.082 C 
ATOM      5  C   UNL     1      35.928 -17.660 -21.087  0.00  0.00    +0.156 C 
ATOM      6  C   UNL     1      34.553 -18.965 -22.572  0.00  0.00    -0.054 C 
ATOM      7  C   UNL     1      35.353 -16.808 -22.211  0.00  0.00    -0.039 C 
ATOM      8  H   UNL     1      35.898 -18.002 -23.811  0.00  0.00    -0.079 HD
BRANCH   4  10
ATOM      9  O   UNL     1      36.962 -20.704 -19.511  0.00  0.00    -0.270 OA
ATOM     10  N   UNL     1      34.978 -19.801 -20.302  0.00  0.00    -0.302 N 
ATOM     11  C   UNL     1      35.746 -20.558 -19.425  0.00  0.00    +0.252 C 
ATOM     12  H   UNL     1      34.007 -19.743 -20.149  0.00  0.00    +0.150 HD
BRANCH  11  15
ATOM     13 CL   UNL     1      34.477 -23.012 -14.633  0.00  0.00    -0.075 Cl
ATOM     14  S   UNL     1      35.839 -21.649 -16.891  0.00  0.00    -0.071 S 
ATOM     15  C   UNL     1      35.008 -21.244 -18.332  0.00  0.00    +0.084 C 
ATOM     16  C   UNL     1      33.686 -21.625 -18.291  0.00  0.00    +0.012 C 
ATOM     17  C   UNL     1      33.349 -22.259 -17.060  0.00  0.00    +0.019 C 
ATOM     18  C   UNL     1      34.429 -22.337 -16.207  0.00  0.00    +0.087 C 
ENDBRANCH  11  15
ENDBRANCH   4  10
ENDBRANCH   1   3
BRANCH   1  21
ATOM     19  O   UNL     1      35.341 -15.606 -25.509  0.00  0.00    -0.277 OA
ATOM     20  N   UNL     1      33.806 -14.935 -23.864  0.00  0.00    -0.284 N 
ATOM     21  C   UNL     1      34.516 -15.852 -24.635  0.00  0.00    +0.205 C 
ATOM     22  H   UNL     1      33.176 -15.312 -23.208  0.00  0.00    +0.155 HD
BRANCH  20  24
ATOM     23  F   UNL     1      34.288 -13.419 -21.575  0.00  0.00    -0.203 F 
ATOM     24  C   UNL     1      33.884 -13.523 -23.914  0.00  0.00    +0.078 C 
ATOM     25  C   UNL     1      34.127 -12.792 -22.750  0.00  0.00    +0.155 C 
ATOM     26  C   UNL     1      33.718 -12.860 -25.130  0.00  0.00    +0.018 C 
ATOM     27  C   UNL     1      34.038 -10.739 -24.018  0.00  0.00    +0.061 C 
ATOM     28  C   UNL     1      34.203 -11.402 -22.802  0.00  0.00    +0.046 C 
ATOM     29  C   UNL     1      33.795 -11.468 -25.182  0.00  0.00    +0.017 C 
BRANCH  27  31
ATOM     30  O   UNL     1      36.323  -9.224 -24.937  0.00  0.00    -0.269 OA
ATOM     31  N   UNL     1      34.118  -9.292 -24.072  0.00  0.00    -0.233 N 
ATOM     32  C   UNL     1      35.314  -8.665 -24.507  0.00  0.00    +0.257 C 
ATOM     33  C   UNL     1      33.017  -8.508 -23.720  0.00  0.00    +0.072 C 
ATOM     34  C   UNL     1      35.328  -7.170 -24.489  0.00  0.00    +0.059 C 
ATOM     35  C   UNL     1      33.043  -7.171 -23.744  0.00  0.00    +0.017 C 
ATOM     36  C   UNL     1      34.238  -6.485 -24.134  0.00  0.00    +0.006 C 
ENDBRANCH  27  31
ENDBRANCH  20  24
ENDBRANCH   1  21
TORSDOF 6
ENDMDL
MODEL 7
REMARK VINA RESULT:     -11.0      1.570      2.036
REMARK  Name = 42628063
REMARK  6 active torsions:
REMARK  status: ('A' for Active; 'I' for Inactive)
REMARK    1  A    between atoms: C_1  and  N_3
REMARK    2  A    between atoms: C_1  and  C_21
REMARK    3  A    between atoms: C_4  and  N_10
REMARK    4  A    between atoms: C_11  and  C_15
REMARK    5  A    between atoms: N_20  and  C_24
REMARK    6  A    between atoms: C_27  and  N_31
REMARK                            x       y       z     vdW  Elec       q    Type
REMARK                         _______ _______ _______ _____ _____    ______ ____
ROOT
ATOM      1  C   UNL     1      35.663 -20.322 -20.108  0.00  0.00    +0.010 C 
ENDROOT
BRANCH   1   3
ATOM      2  F   UNL     1      33.316 -21.899 -16.637  0.00  0.00    -0.238 F 
ATOM      3  N   UNL     1      35.239 -20.681 -18.763  0.00  0.00    +0.396 N 
ATOM      4  C   UNL     1      35.650 -21.663 -16.704  0.00  0.00    +0.082 C 
ATOM      5  C   UNL     1      34.418 -22.331 -17.307  0.00  0.00    +0.156 C 
ATOM      6  C   UNL     1      36.364 -21.043 -17.899  0.00  0.00    -0.054 C 
ATOM      7  C   UNL     1      34.351 -21.849 -18.750  0.00  0.00    -0.039 C 
ATOM      8  H   UNL     1      34.761 -19.847 -18.424  0.00  0.00    -0.079 HD
BRANCH   4  10
ATOM      9  O   UNL     1      35.624 -22.167 -13.878  0.00  0.00    -0.270 OA
ATOM     10  N   UNL     1      36.493 -22.581 -15.989  0.00  0.00    -0.302 N 
ATOM     11  C   UNL     1      36.409 -22.760 -14.613  0.00  0.00    +0.252 C 
ATOM     12  H   UNL     1      37.155 -23.104 -16.494  0.00  0.00    +0.150 HD
BRANCH  11  15
ATOM     13 CL   UNL     1      40.916 -25.818 -13.645  0.00  0.00    -0.075 Cl
ATOM     14  S   UNL     1      38.910 -23.922 -14.738  0.00  0.00    -0.071 S 
ATOM     15  C   UNL     1      37.368 -23.729 -14.020  0.00  0.00    +0.084 C 
ATOM     16  C   UNL     1      37.204 -24.541 -12.920  0.00  0.00    +0.012 C 
ATOM     17  C   UNL     1      38.360 -25.334 -12.663  0.00  0.00    +0.019 C 
ATOM     18  C   UNL     1      39.364 -25.096 -13.577  0.00  0.00    +0.087 C 
ENDBRANCH  11  15
ENDBRANCH   4  10
ENDBRANCH   1   3
BRANCH   1  21
ATOM     19  O   UNL     1      33.683 -18.966 -20.359  0.00  0.00    -0.277 OA
ATOM     20  N   UNL     1      35.724 -18.222 -21.248  0.00  0.00    -0.284 N 
ATOM     21  C   UNL     1      34.882 -19.105 -20.575  0.00  0.00    +0.205 C 
ATOM     22  H   UNL     1      36.667 -18.493 -21.325  0.00  0.00    +0.155 HD
BRANCH  20  24
ATOM     23  F   UNL     1      35.393 -15.926 -19.702  0.00  0.00    -0.203 F 
ATOM     24  C   UNL     1      35.382 -16.980 -21.832  0.00  0.00    +0.078 C 
ATOM     25  C   UNL     1      35.223 -15.848 -21.030  0.00  0.00    +0.155 C 
ATOM     26  C   UNL     1      35.202 -16.886 -23.212  0.00  0.00    +0.018 C 
ATOM     27  C   UNL     1      34.707 -14.532 -22.988  0.00  0.00    +0.061 C 
ATOM     28  C   UNL     1      34.886 -14.625 -21.608  0.00  0.00    +0.046 C 
ATOM     29  C   UNL     1      34.865 -15.662 -23.790  0.00  0.00    +0.017 C 
BRANCH  27  31
ATOM     30  O   UNL     1      33.987 -14.136 -25.761  0.00  0.00    -0.269 OA
ATOM     31  N   UNL     1      34.356 -13.260 -23.590  0.00  0.00    -0.233 N 
ATOM     32  C   UNL     1      34.060 -13.191 -24.976  0.00  0.00    +0.257 C 
ATOM     33  C   UNL     1      34.285 -12.103 -22.811  0.00  0.00    +0.072 C 
ATOM     34  C   UNL     1      33.753 -11.834 -25.525  0.00  0.00    +0.059 C 
ATOM     35  C   UNL     1      33.976 -10.905 -23.319  0.00  0.00    +0.017 C 
ATOM     36  C   UNL     1      33.710 -10.769 -24.720  0.00  0.00    +0.006 C 
ENDBRANCH  27  31
ENDBRANCH  20  24
ENDBRANCH   1  21
TORSDOF 6
ENDMDL
MODEL 8
REMARK VINA RESULT:     -10.8      3.527      5.191
REMARK  Name = 42628063
REMARK  6 active torsions:
REMARK  status: ('A' for Active; 'I' for Inactive)
REMARK    1  A    between atoms: C_1  and  N_3
REMARK    2  A    between atoms: C_1  and  C_21
REMARK    3  A    between atoms: C_4  and  N_10
REMARK    4  A    between atoms: C_11  and  C_15
REMARK    5  A    between atoms: N_20  and  C_24
REMARK    6  A    between atoms: C_27  and  N_31
REMARK                            x       y       z     vdW  Elec       q    Type
REMARK                         _______ _______ _______ _____ _____    ______ ____
ROOT
ATOM      1  C   UNL     1      34.180 -17.342 -24.254  0.00  0.00    +0.010 C 
ENDROOT
BRANCH   1   3
ATOM      2  F   UNL     1      37.280 -17.541 -21.031  0.00  0.00    -0.238 F 
ATOM      3  N   UNL     1      35.109 -17.828 -23.246  0.00  0.00    +0.396 N 
ATOM      4  C   UNL     1      35.581 -19.121 -21.381  0.00  0.00    +0.082 C 
ATOM      5  C   UNL     1      35.927 -17.673 -21.049  0.00  0.00    +0.156 C 
ATOM      6  C   UNL     1      34.612 -19.017 -22.553  0.00  0.00    -0.054 C 
ATOM      7  C   UNL     1      35.356 -16.840 -22.189  0.00  0.00    -0.039 C 
ATOM      8  H   UNL     1      35.959 -18.030 -23.770  0.00  0.00    -0.079 HD
BRANCH   4  10
ATOM      9  O   UNL     1      37.000 -20.668 -19.423  0.00  0.00    -0.270 OA
ATOM     10  N   UNL     1      35.010 -19.830 -20.270  0.00  0.00    -0.302 N 
ATOM     11  C   UNL     1      35.779 -20.557 -19.367  0.00  0.00    +0.252 C 
ATOM     12  H   UNL     1      34.035 -19.799 -20.141  0.00  0.00    +0.150 HD
BRANCH  11  15
ATOM     13 CL   UNL     1      34.486 -23.071 -14.613  0.00  0.00    -0.075 Cl
ATOM     14  S   UNL     1      35.861 -21.683 -16.849  0.00  0.00    -0.071 S 
ATOM     15  C   UNL     1      35.035 -21.254 -18.286  0.00  0.00    +0.084 C 
ATOM     16  C   UNL     1      33.710 -21.628 -18.253  0.00  0.00    +0.012 C 
ATOM     17  C   UNL     1      33.368 -22.279 -17.032  0.00  0.00    +0.019 C 
ATOM     18  C   UNL     1      34.445 -22.374 -16.178  0.00  0.00    +0.087 C 
ENDBRANCH  11  15
ENDBRANCH   4  10
ENDBRANCH   1   3
BRANCH   1  21
ATOM     19  O   UNL     1      35.318 -15.643 -25.534  0.00  0.00    -0.277 OA
ATOM     20  N   UNL     1      33.858 -15.017 -23.805  0.00  0.00    -0.284 N 
ATOM     21  C   UNL     1      34.538 -15.913 -24.626  0.00  0.00    +0.205 C 
ATOM     22  H   UNL     1      33.264 -15.413 -23.127  0.00  0.00    +0.155 HD
BRANCH  20  24
ATOM     23  F   UNL     1      34.325 -13.533 -21.492  0.00  0.00    -0.203 F 
ATOM     24  C   UNL     1      33.920 -13.604 -23.833  0.00  0.00    +0.078 C 
ATOM     25  C   UNL     1      34.156 -12.889 -22.657  0.00  0.00    +0.155 C 
ATOM     26  C   UNL     1      33.745 -12.923 -25.038  0.00  0.00    +0.018 C 
ATOM     27  C   UNL     1      34.043 -10.817 -23.892  0.00  0.00    +0.061 C 
ATOM     28  C   UNL     1      34.217 -11.497 -22.687  0.00  0.00    +0.046 C 
ATOM     29  C   UNL     1      33.807 -11.530 -25.067  0.00  0.00    +0.017 C 
BRANCH  27  31
ATOM     30  O   UNL     1      32.117  -9.033 -22.679  0.00  0.00    -0.269 OA
ATOM     31  N   UNL     1      34.106  -9.369 -23.923  0.00  0.00    -0.233 N 
ATOM     32  C   UNL     1      33.074  -8.602 -23.322  0.00  0.00    +0.257 C 
ATOM     33  C   UNL     1      35.188  -8.719 -24.521  0.00  0.00    +0.072 C 
ATOM     34  C   UNL     1      33.193  -7.116 -23.440  0.00  0.00    +0.059 C 
ATOM     35  C   UNL     1      35.288  -7.387 -24.585  0.00  0.00    +0.017 C 
ATOM     36  C   UNL     1      34.255  -6.565 -24.033  0.00  0.00    +0.006 C 
ENDBRANCH  27  31
ENDBRANCH  20  24
ENDBRANCH   1  21
TORSDOF 6
ENDMDL
MODEL 9
REMARK VINA RESULT:     -10.7      4.877     11.972
REMARK  Name = 42628063
REMARK  6 active torsions:
REMARK  status: ('A' for Active; 'I' for Inactive)
REMARK    1  A    between atoms: C_1  and  N_3
REMARK    2  A    between atoms: C_1  and  C_21
REMARK    3  A    between atoms: C_4  and  N_10
REMARK    4  A    between atoms: C_11  and  C_15
REMARK    5  A    between atoms: N_20  and  C_24
REMARK    6  A    between atoms: C_27  and  N_31
REMARK                            x       y       z     vdW  Elec       q    Type
REMARK                         _______ _______ _______ _____ _____    ______ ____
ROOT
ATOM      1  C   UNL     1      34.022 -20.186 -20.111  0.00  0.00    +0.010 C 
ENDROOT
BRANCH   1   3
ATOM      2  F   UNL     1      37.789 -17.991 -21.129  0.00  0.00    -0.238 F 
ATOM      3  N   UNL     1      35.052 -19.163 -20.216  0.00  0.00    +0.396 N 
ATOM      4  C   UNL     1      35.709 -16.993 -20.696  0.00  0.00    +0.082 C 
ATOM      5  C   UNL     1      36.510 -17.937 -21.589  0.00  0.00    +0.156 C 
ATOM      6  C   UNL     1      34.494 -17.812 -20.279  0.00  0.00    -0.054 C 
ATOM      7  C   UNL     1      35.860 -19.305 -21.432  0.00  0.00    -0.039 C 
ATOM      8  H   UNL     1      35.616 -19.294 -19.377  0.00  0.00    -0.079 HD
BRANCH   4  10
ATOM      9  O   UNL     1      34.746 -16.731 -23.388  0.00  0.00    -0.270 OA
ATOM     10  N   UNL     1      35.338 -15.774 -21.359  0.00  0.00    -0.302 N 
ATOM     11  C   UNL     1      34.880 -15.742 -22.672  0.00  0.00    +0.252 C 
ATOM     12  H   UNL     1      35.411 -14.927 -20.864  0.00  0.00    +0.150 HD
BRANCH  11  15
ATOM     13 CL   UNL     1      33.325 -11.645 -26.046  0.00  0.00    -0.075 Cl
ATOM     14  S   UNL     1      34.003 -14.269 -24.835  0.00  0.00    -0.071 S 
ATOM     15  C   UNL     1      34.560 -14.399 -23.221  0.00  0.00    +0.084 C 
ATOM     16  C   UNL     1      34.644 -13.172 -22.602  0.00  0.00    +0.012 C 
ATOM     17  C   UNL     1      34.246 -12.109 -23.464  0.00  0.00    +0.019 C 
ATOM     18  C   UNL     1      33.873 -12.566 -24.710  0.00  0.00    +0.087 C 
ENDBRANCH  11  15
ENDBRANCH   4  10
ENDBRANCH   1   3
BRANCH   1  21
ATOM     19  O   UNL     1      34.505 -22.486 -19.566  0.00  0.00    -0.277 OA
ATOM     20  N   UNL     1      34.965 -20.797 -18.002  0.00  0.00    -0.284 N 
ATOM     21  C   UNL     1      34.516 -21.310 -19.216  0.00  0.00    +0.205 C 
ATOM     22  H   UNL     1      34.904 -19.821 -17.893  0.00  0.00    +0.155 HD
BRANCH  20  24
ATOM     23  F   UNL     1      33.356 -22.406 -16.391  0.00  0.00    -0.203 F 
ATOM     24  C   UNL     1      35.499 -21.516 -16.906  0.00  0.00    +0.078 C 
ATOM     25  C   UNL     1      34.666 -22.313 -16.118  0.00  0.00    +0.155 C 
ATOM     26  C   UNL     1      36.859 -21.427 -16.612  0.00  0.00    +0.018 C 
ATOM     27  C   UNL     1      36.555 -22.932 -14.747  0.00  0.00    +0.061 C 
ATOM     28  C   UNL     1      35.194 -23.020 -15.040  0.00  0.00    +0.046 C 
ATOM     29  C   UNL     1      37.388 -22.136 -15.533  0.00  0.00    +0.017 C 
BRANCH  27  31
ATOM     30  O   UNL     1      37.286 -25.730 -14.779  0.00  0.00    -0.269 OA
ATOM     31  N   UNL     1      37.105 -23.668 -13.625  0.00  0.00    -0.233 N 
ATOM     32  C   UNL     1      37.386 -25.053 -13.756  0.00  0.00    +0.257 C 
ATOM     33  C   UNL     1      37.381 -23.020 -12.419  0.00  0.00    +0.072 C 
ATOM     34  C   UNL     1      37.907 -25.746 -12.537  0.00  0.00    +0.059 C 
ATOM     35  C   UNL     1      37.878 -23.655 -11.352  0.00  0.00    +0.017 C 
ATOM     36  C   UNL     1      38.141 -25.061 -11.415  0.00  0.00    +0.006 C 
ENDBRANCH  27  31
ENDBRANCH  20  24
ENDBRANCH   1  21
TORSDOF 6
ENDMDL
