MODEL 1
REMARK VINA RESULT:     -11.2      0.000      0.000
REMARK  Name = 6852168
REMARK  5 active torsions:
REMARK  status: ('A' for Active; 'I' for Inactive)
REMARK    1  A    between atoms: N_1  and  C_5
REMARK    2  A    between atoms: N_1  and  S_19
REMARK    3  A    between atoms: N_4  and  C_9
REMARK    4  A    between atoms: C_9  and  C_14
REMARK    5  A    between atoms: S_19  and  C_23
REMARK                            x       y       z     vdW  Elec       q    Type
REMARK                         _______ _______ _______ _____ _____    ______ ____
ROOT
ATOM      1  N   UNL     1      35.363 -22.510 -16.465  0.00  0.00    -0.172 NA
ATOM      2  H   UNL     1      35.781 -21.605 -16.678  0.00  0.00    +0.149 HD
ENDROOT
BRANCH   1   5
ATOM      3  O   UNL     1      37.645 -21.935 -14.549  0.00  0.00    -0.273 OA
ATOM      4  N   UNL     1      36.995 -24.185 -14.321  0.00  0.00    -0.272 N 
ATOM      5  C   UNL     1      35.373 -22.647 -14.997  0.00  0.00    +0.153 C 
ATOM      6  C   UNL     1      34.695 -23.939 -14.556  0.00  0.00    +0.048 C 
ATOM      7  C   UNL     1      35.808 -24.970 -14.569  0.00  0.00    +0.096 C 
ATOM      8  C   UNL     1      36.812 -22.829 -14.586  0.00  0.00    +0.242 C 
BRANCH   4   9
ATOM      9  C   UNL     1      38.258 -24.808 -13.990  0.00  0.00    +0.152 C 
ATOM     10  C   UNL     1      39.286 -24.644 -15.084  0.00  0.00    +0.031 C 
BRANCH   9  14
ATOM     11  O   UNL     1      35.891 -23.698  -9.670  0.00  0.00    -0.350 OA
ATOM     12  O   UNL     1      39.775 -23.497 -12.724  0.00  0.00    -0.273 OA
ATOM     13  N   UNL     1      37.848 -24.196 -11.634  0.00  0.00    -0.273 N 
ATOM     14  C   UNL     1      38.702 -24.108 -12.730  0.00  0.00    +0.244 C 
ATOM     15  C   UNL     1      36.634 -25.016 -11.567  0.00  0.00    +0.126 C 
ATOM     16  C   UNL     1      38.201 -23.542 -10.374  0.00  0.00    +0.126 C 
ATOM     17  C   UNL     1      35.495 -24.221 -10.941  0.00  0.00    +0.164 C 
ATOM     18  C   UNL     1      36.998 -22.805  -9.804  0.00  0.00    +0.164 C 
ENDBRANCH   9  14
ENDBRANCH   4   9
ENDBRANCH   1   5
BRANCH   1  19
ATOM     19  S   UNL     1      33.892 -22.585 -17.320  0.00  0.00    +0.061 S 
ATOM     20  O   UNL     1      32.805 -22.216 -16.434  0.00  0.00    -0.153 OA
ATOM     21  O   UNL     1      33.838 -23.831 -18.061  0.00  0.00    -0.153 OA
BRANCH  19  23
ATOM     22 CL   UNL     1      36.062 -16.448 -22.733  0.00  0.00    -0.082 Cl
ATOM     23  C   UNL     1      34.095 -21.289 -18.503  0.00  0.00    +0.122 C 
ATOM     24  C   UNL     1      35.365 -20.801 -18.760  0.00  0.00    +0.020 C 
ATOM     25  C   UNL     1      32.982 -20.785 -19.148  0.00  0.00    +0.020 C 
ATOM     26  C   UNL     1      35.543 -19.771 -19.698  0.00  0.00    +0.001 C 
ATOM     27  C   UNL     1      34.414 -19.244 -20.370  0.00  0.00    +0.001 C 
ATOM     28  C   UNL     1      33.140 -19.763 -20.083  0.00  0.00    +0.001 C 
ATOM     29  C   UNL     1      36.816 -19.254 -19.985  0.00  0.00    +0.001 C 
ATOM     30  C   UNL     1      34.592 -18.214 -21.307  0.00  0.00    +0.011 C 
ATOM     31  C   UNL     1      36.974 -18.230 -20.920  0.00  0.00    +0.011 C 
ATOM     32  C   UNL     1      35.864 -17.711 -21.580  0.00  0.00    +0.058 C 
ENDBRANCH  19  23
ENDBRANCH   1  19
TORSDOF 5
ENDMDL
MODEL 2
REMARK VINA RESULT:     -11.0      7.307     12.239
REMARK  Name = 6852168
REMARK  5 active torsions:
REMARK  status: ('A' for Active; 'I' for Inactive)
REMARK    1  A    between atoms: N_1  and  C_5
REMARK    2  A    between atoms: N_1  and  S_19
REMARK    3  A    between atoms: N_4  and  C_9
REMARK    4  A    between atoms: C_9  and  C_14
REMARK    5  A    between atoms: S_19  and  C_23
REMARK                            x       y       z     vdW  Elec       q    Type
REMARK                         _______ _______ _______ _____ _____    ______ ____
ROOT
ATOM      1  N   UNL     1      34.926 -16.704 -21.810  0.00  0.00    -0.172 NA
ATOM      2  H   UNL     1      34.840 -16.573 -20.802  0.00  0.00    +0.149 HD
ENDROOT
BRANCH   1   5
ATOM      3  O   UNL     1      35.052 -13.972 -20.494  0.00  0.00    -0.273 OA
ATOM      4  N   UNL     1      33.872 -13.798 -22.522  0.00  0.00    -0.272 N 
ATOM      5  C   UNL     1      35.503 -15.461 -22.352  0.00  0.00    +0.153 C 
ATOM      6  C   UNL     1      35.126 -15.268 -23.817  0.00  0.00    +0.048 C 
ATOM      7  C   UNL     1      33.803 -14.525 -23.768  0.00  0.00    +0.096 C 
ATOM      8  C   UNL     1      34.821 -14.318 -21.644  0.00  0.00    +0.242 C 
BRANCH   4   9
ATOM      9  C   UNL     1      32.925 -12.751 -22.205  0.00  0.00    +0.152 C 
ATOM     10  C   UNL     1      32.652 -12.651 -20.722  0.00  0.00    +0.031 C 
BRANCH   9  14
ATOM     11  O   UNL     1      31.512  -7.904 -22.149  0.00  0.00    -0.350 OA
ATOM     12  O   UNL     1      34.558 -11.573 -23.458  0.00  0.00    -0.273 OA
ATOM     13  N   UNL     1      33.008 -10.286 -22.304  0.00  0.00    -0.273 N 
ATOM     14  C   UNL     1      33.577 -11.490 -22.714  0.00  0.00    +0.244 C 
ATOM     15  C   UNL     1      31.925 -10.148 -21.324  0.00  0.00    +0.126 C 
ATOM     16  C   UNL     1      33.575  -9.016 -22.756  0.00  0.00    +0.126 C 
ATOM     17  C   UNL     1      30.889  -9.148 -21.822  0.00  0.00    +0.164 C 
ATOM     18  C   UNL     1      32.469  -8.069 -23.198  0.00  0.00    +0.164 C 
ENDBRANCH   9  14
ENDBRANCH   4   9
ENDBRANCH   1   5
BRANCH   1  19
ATOM     19  S   UNL     1      35.725 -18.190 -22.045  0.00  0.00    +0.061 S 
ATOM     20  O   UNL     1      37.130 -18.033 -21.724  0.00  0.00    -0.153 OA
ATOM     21  O   UNL     1      35.326 -18.744 -23.325  0.00  0.00    -0.153 OA
BRANCH  19  23
ATOM     22 CL   UNL     1      33.341 -23.176 -15.632  0.00  0.00    -0.082 Cl
ATOM     23  C   UNL     1      34.989 -19.198 -20.794  0.00  0.00    +0.122 C 
ATOM     24  C   UNL     1      35.798 -19.787 -19.838  0.00  0.00    +0.020 C 
ATOM     25  C   UNL     1      33.620 -19.381 -20.795  0.00  0.00    +0.020 C 
ATOM     26  C   UNL     1      35.228 -20.591 -18.837  0.00  0.00    +0.001 C 
ATOM     27  C   UNL     1      33.827 -20.789 -18.822  0.00  0.00    +0.001 C 
ATOM     28  C   UNL     1      33.037 -20.176 -19.809  0.00  0.00    +0.001 C 
ATOM     29  C   UNL     1      36.019 -21.203 -17.851  0.00  0.00    +0.001 C 
ATOM     30  C   UNL     1      33.258 -21.593 -17.822  0.00  0.00    +0.011 C 
ATOM     31  C   UNL     1      35.436 -21.999 -16.864  0.00  0.00    +0.011 C 
ATOM     32  C   UNL     1      34.058 -22.194 -16.850  0.00  0.00    +0.058 C 
ENDBRANCH  19  23
ENDBRANCH   1  19
TORSDOF 5
ENDMDL
MODEL 3
REMARK VINA RESULT:     -11.0      1.401      2.732
REMARK  Name = 6852168
REMARK  5 active torsions:
REMARK  status: ('A' for Active; 'I' for Inactive)
REMARK    1  A    between atoms: N_1  and  C_5
REMARK    2  A    between atoms: N_1  and  S_19
REMARK    3  A    between atoms: N_4  and  C_9
REMARK    4  A    between atoms: C_9  and  C_14
REMARK    5  A    between atoms: S_19  and  C_23
REMARK                            x       y       z     vdW  Elec       q    Type
REMARK                         _______ _______ _______ _____ _____    ______ ____
ROOT
ATOM      1  N   UNL     1      34.974 -22.769 -16.325  0.00  0.00    -0.172 NA
ATOM      2  H   UNL     1      35.750 -22.410 -16.881  0.00  0.00    +0.149 HD
ENDROOT
BRANCH   1   5
ATOM      3  O   UNL     1      37.283 -21.958 -14.530  0.00  0.00    -0.273 OA
ATOM      4  N   UNL     1      35.719 -23.185 -13.270  0.00  0.00    -0.272 N 
ATOM      5  C   UNL     1      34.925 -21.961 -15.094  0.00  0.00    +0.153 C 
ATOM      6  C   UNL     1      33.754 -22.370 -14.208  0.00  0.00    +0.048 C 
ATOM      7  C   UNL     1      34.309 -23.488 -13.345  0.00  0.00    +0.096 C 
ATOM      8  C   UNL     1      36.143 -22.327 -14.283  0.00  0.00    +0.242 C 
BRANCH   4   9
ATOM      9  C   UNL     1      36.586 -23.853 -12.324  0.00  0.00    +0.152 C 
ATOM     10  C   UNL     1      35.842 -24.330 -11.098  0.00  0.00    +0.031 C 
BRANCH   9  14
ATOM     11  O   UNL     1      41.213 -24.894 -14.056  0.00  0.00    -0.350 OA
ATOM     12  O   UNL     1      36.382 -25.843 -13.596  0.00  0.00    -0.273 OA
ATOM     13  N   UNL     1      38.539 -25.088 -13.190  0.00  0.00    -0.273 N 
ATOM     14  C   UNL     1      37.152 -25.020 -13.093  0.00  0.00    +0.244 C 
ATOM     15  C   UNL     1      39.484 -24.203 -12.501  0.00  0.00    +0.126 C 
ATOM     16  C   UNL     1      39.170 -26.186 -13.923  0.00  0.00    +0.126 C 
ATOM     17  C   UNL     1      40.584 -23.759 -13.458  0.00  0.00    +0.164 C 
ATOM     18  C   UNL     1      40.277 -25.656 -14.822  0.00  0.00    +0.164 C 
ENDBRANCH   9  14
ENDBRANCH   4   9
ENDBRANCH   1   5
BRANCH   1  19
ATOM     19  S   UNL     1      33.621 -22.835 -17.357  0.00  0.00    +0.061 S 
ATOM     20  O   UNL     1      32.424 -22.535 -16.595  0.00  0.00    -0.153 OA
ATOM     21  O   UNL     1      33.693 -24.045 -18.155  0.00  0.00    -0.153 OA
BRANCH  19  23
ATOM     22 CL   UNL     1      36.286 -16.521 -22.327  0.00  0.00    -0.082 Cl
ATOM     23  C   UNL     1      33.930 -21.479 -18.446  0.00  0.00    +0.122 C 
ATOM     24  C   UNL     1      35.235 -21.076 -18.671  0.00  0.00    +0.020 C 
ATOM     25  C   UNL     1      32.862 -20.845 -19.051  0.00  0.00    +0.020 C 
ATOM     26  C   UNL     1      35.496 -19.999 -19.535  0.00  0.00    +0.001 C 
ATOM     27  C   UNL     1      34.415 -19.338 -20.164  0.00  0.00    +0.001 C 
ATOM     28  C   UNL     1      33.103 -19.774 -19.912  0.00  0.00    +0.001 C 
ATOM     29  C   UNL     1      36.808 -19.565 -19.787  0.00  0.00    +0.001 C 
ATOM     30  C   UNL     1      34.677 -18.262 -21.027  0.00  0.00    +0.011 C 
ATOM     31  C   UNL     1      37.049 -18.493 -20.648  0.00  0.00    +0.011 C 
ATOM     32  C   UNL     1      35.986 -17.843 -21.266  0.00  0.00    +0.058 C 
ENDBRANCH  19  23
ENDBRANCH   1  19
TORSDOF 5
ENDMDL
MODEL 4
REMARK VINA RESULT:     -10.7      7.269     12.201
REMARK  Name = 6852168
REMARK  5 active torsions:
REMARK  status: ('A' for Active; 'I' for Inactive)
REMARK    1  A    between atoms: N_1  and  C_5
REMARK    2  A    between atoms: N_1  and  S_19
REMARK    3  A    between atoms: N_4  and  C_9
REMARK    4  A    between atoms: C_9  and  C_14
REMARK    5  A    between atoms: S_19  and  C_23
REMARK                            x       y       z     vdW  Elec       q    Type
REMARK                         _______ _______ _______ _____ _____    ______ ____
ROOT
ATOM      1  N   UNL     1      36.207 -16.209 -21.412  0.00  0.00    -0.172 NA
ATOM      2  H   UNL     1      36.648 -15.538 -22.040  0.00  0.00    +0.149 HD
ENDROOT
BRANCH   1   5
ATOM      3  O   UNL     1      34.262 -15.412 -23.601  0.00  0.00    -0.273 OA
ATOM      4  N   UNL     1      34.487 -13.629 -22.082  0.00  0.00    -0.272 N 
ATOM      5  C   UNL     1      34.800 -15.796 -21.269  0.00  0.00    +0.153 C 
ATOM      6  C   UNL     1      34.619 -14.836 -20.099  0.00  0.00    +0.048 C 
ATOM      7  C   UNL     1      34.866 -13.464 -20.698  0.00  0.00    +0.096 C 
ATOM      8  C   UNL     1      34.464 -14.964 -22.481  0.00  0.00    +0.242 C 
BRANCH   4   9
ATOM      9  C   UNL     1      34.317 -12.492 -22.960  0.00  0.00    +0.152 C 
ATOM     10  C   UNL     1      33.922 -12.898 -24.360  0.00  0.00    +0.031 C 
BRANCH   9  14
ATOM     11  O   UNL     1      33.572  -7.520 -22.489  0.00  0.00    -0.350 OA
ATOM     12  O   UNL     1      32.407 -12.239 -21.577  0.00  0.00    -0.273 OA
ATOM     13  N   UNL     1      33.218 -10.313 -22.589  0.00  0.00    -0.273 N 
ATOM     14  C   UNL     1      33.225 -11.678 -22.312  0.00  0.00    +0.244 C 
ATOM     15  C   UNL     1      34.093  -9.637 -23.554  0.00  0.00    +0.126 C 
ATOM     16  C   UNL     1      32.195  -9.450 -21.998  0.00  0.00    +0.126 C 
ATOM     17  C   UNL     1      34.640  -8.348 -22.954  0.00  0.00    +0.164 C 
ATOM     18  C   UNL     1      32.826  -8.174 -21.460  0.00  0.00    +0.164 C 
ENDBRANCH   9  14
ENDBRANCH   4   9
ENDBRANCH   1   5
BRANCH   1  19
ATOM     19  S   UNL     1      36.587 -17.760 -22.005  0.00  0.00    +0.061 S 
ATOM     20  O   UNL     1      37.995 -18.025 -21.783  0.00  0.00    -0.153 OA
ATOM     21  O   UNL     1      36.016 -17.912 -23.330  0.00  0.00    -0.153 OA
BRANCH  19  23
ATOM     22 CL   UNL     1      33.208 -22.976 -16.257  0.00  0.00    -0.082 Cl
ATOM     23  C   UNL     1      35.658 -18.800 -20.920  0.00  0.00    +0.122 C 
ATOM     24  C   UNL     1      36.315 -19.479 -19.909  0.00  0.00    +0.020 C 
ATOM     25  C   UNL     1      34.294 -18.917 -21.103  0.00  0.00    +0.020 C 
ATOM     26  C   UNL     1      35.590 -20.310 -19.038  0.00  0.00    +0.001 C 
ATOM     27  C   UNL     1      34.192 -20.441 -19.210  0.00  0.00    +0.001 C 
ATOM     28  C   UNL     1      33.559 -19.736 -20.248  0.00  0.00    +0.001 C 
ATOM     29  C   UNL     1      36.224 -21.013 -18.000  0.00  0.00    +0.001 C 
ATOM     30  C   UNL     1      33.468 -21.271 -18.340  0.00  0.00    +0.011 C 
ATOM     31  C   UNL     1      35.488 -21.834 -17.145  0.00  0.00    +0.011 C 
ATOM     32  C   UNL     1      34.113 -21.963 -17.314  0.00  0.00    +0.058 C 
ENDBRANCH  19  23
ENDBRANCH   1  19
TORSDOF 5
ENDMDL
MODEL 5
REMARK VINA RESULT:     -10.6      7.217     12.523
REMARK  Name = 6852168
REMARK  5 active torsions:
REMARK  status: ('A' for Active; 'I' for Inactive)
REMARK    1  A    between atoms: N_1  and  C_5
REMARK    2  A    between atoms: N_1  and  S_19
REMARK    3  A    between atoms: N_4  and  C_9
REMARK    4  A    between atoms: C_9  and  C_14
REMARK    5  A    between atoms: S_19  and  C_23
REMARK                            x       y       z     vdW  Elec       q    Type
REMARK                         _______ _______ _______ _____ _____    ______ ____
ROOT
ATOM      1  N   UNL     1      34.956 -16.562 -22.050  0.00  0.00    -0.172 NA
ATOM      2  H   UNL     1      34.923 -16.417 -21.042  0.00  0.00    +0.149 HD
ENDROOT
BRANCH   1   5
ATOM      3  O   UNL     1      34.958 -13.754 -20.898  0.00  0.00    -0.273 OA
ATOM      4  N   UNL     1      33.890 -13.727 -22.995  0.00  0.00    -0.272 N 
ATOM      5  C   UNL     1      35.539 -15.341 -22.635  0.00  0.00    +0.153 C 
ATOM      6  C   UNL     1      35.241 -15.244 -24.127  0.00  0.00    +0.048 C 
ATOM      7  C   UNL     1      33.904 -14.529 -24.196  0.00  0.00    +0.096 C 
ATOM      8  C   UNL     1      34.798 -14.173 -22.036  0.00  0.00    +0.242 C 
BRANCH   4   9
ATOM      9  C   UNL     1      32.908 -12.684 -22.794  0.00  0.00    +0.152 C 
ATOM     10  C   UNL     1      32.207 -12.801 -21.461  0.00  0.00    +0.031 C 
BRANCH   9  14
ATOM     11  O   UNL     1      35.159 -10.269 -26.615  0.00  0.00    -0.350 OA
ATOM     12  O   UNL     1      34.077 -10.863 -21.826  0.00  0.00    -0.273 OA
ATOM     13  N   UNL     1      33.965 -10.909 -24.144  0.00  0.00    -0.273 N 
ATOM     14  C   UNL     1      33.701 -11.403 -22.870  0.00  0.00    +0.244 C 
ATOM     15  C   UNL     1      33.428 -11.454 -25.396  0.00  0.00    +0.126 C 
ATOM     16  C   UNL     1      34.732  -9.674 -24.308  0.00  0.00    +0.126 C 
ATOM     17  C   UNL     1      34.527 -11.541 -26.447  0.00  0.00    +0.164 C 
ATOM     18  C   UNL     1      35.779  -9.840 -25.400  0.00  0.00    +0.164 C 
ENDBRANCH   9  14
ENDBRANCH   4   9
ENDBRANCH   1   5
BRANCH   1  19
ATOM     19  S   UNL     1      35.702 -18.071 -22.305  0.00  0.00    +0.061 S 
ATOM     20  O   UNL     1      37.121 -17.957 -22.023  0.00  0.00    -0.153 OA
ATOM     21  O   UNL     1      35.253 -18.614 -23.573  0.00  0.00    -0.153 OA
BRANCH  19  23
ATOM     22 CL   UNL     1      33.345 -22.985 -15.827  0.00  0.00    -0.082 Cl
ATOM     23  C   UNL     1      34.971 -19.056 -21.033  0.00  0.00    +0.122 C 
ATOM     24  C   UNL     1      35.788 -19.675 -20.103  0.00  0.00    +0.020 C 
ATOM     25  C   UNL     1      33.597 -19.190 -20.992  0.00  0.00    +0.020 C 
ATOM     26  C   UNL     1      35.221 -20.461 -19.086  0.00  0.00    +0.001 C 
ATOM     27  C   UNL     1      33.815 -20.609 -19.028  0.00  0.00    +0.001 C 
ATOM     28  C   UNL     1      33.017 -19.966 -19.989  0.00  0.00    +0.001 C 
ATOM     29  C   UNL     1      36.020 -21.102 -18.125  0.00  0.00    +0.001 C 
ATOM     30  C   UNL     1      33.249 -21.395 -18.012  0.00  0.00    +0.011 C 
ATOM     31  C   UNL     1      35.440 -21.879 -17.122  0.00  0.00    +0.011 C 
ATOM     32  C   UNL     1      34.057 -22.026 -17.066  0.00  0.00    +0.058 C 
ENDBRANCH  19  23
ENDBRANCH   1  19
TORSDOF 5
ENDMDL
MODEL 6
REMARK VINA RESULT:     -10.5      4.303      9.866
REMARK  Name = 6852168
REMARK  5 active torsions:
REMARK  status: ('A' for Active; 'I' for Inactive)
REMARK    1  A    between atoms: N_1  and  C_5
REMARK    2  A    between atoms: N_1  and  S_19
REMARK    3  A    between atoms: N_4  and  C_9
REMARK    4  A    between atoms: C_9  and  C_14
REMARK    5  A    between atoms: S_19  and  C_23
REMARK                            x       y       z     vdW  Elec       q    Type
REMARK                         _______ _______ _______ _____ _____    ______ ____
ROOT
ATOM      1  N   UNL     1      33.726 -20.935 -18.137  0.00  0.00    -0.172 NA
ATOM      2  H   UNL     1      34.634 -20.618 -17.800  0.00  0.00    +0.149 HD
ENDROOT
BRANCH   1   5
ATOM      3  O   UNL     1      36.202 -20.698 -19.875  0.00  0.00    -0.273 OA
ATOM      4  N   UNL     1      34.693 -18.984 -20.443  0.00  0.00    -0.272 N 
ATOM      5  C   UNL     1      33.810 -20.977 -19.607  0.00  0.00    +0.153 C 
ATOM      6  C   UNL     1      32.696 -20.158 -20.250  0.00  0.00    +0.048 C 
ATOM      7  C   UNL     1      33.270 -18.757 -20.349  0.00  0.00    +0.096 C 
ATOM      8  C   UNL     1      35.071 -20.248 -19.993  0.00  0.00    +0.242 C 
BRANCH   4   9
ATOM      9  C   UNL     1      35.604 -17.924 -20.818  0.00  0.00    +0.152 C 
ATOM     10  C   UNL     1      37.048 -18.286 -20.559  0.00  0.00    +0.031 C 
BRANCH   9  14
ATOM     11  O   UNL     1      34.113 -13.939 -23.537  0.00  0.00    -0.350 OA
ATOM     12  O   UNL     1      35.318 -18.709 -23.037  0.00  0.00    -0.273 OA
ATOM     13  N   UNL     1      35.191 -16.412 -22.725  0.00  0.00    -0.273 N 
ATOM     14  C   UNL     1      35.360 -17.725 -22.293  0.00  0.00    +0.244 C 
ATOM     15  C   UNL     1      35.361 -15.215 -21.894  0.00  0.00    +0.126 C 
ATOM     16  C   UNL     1      34.946 -16.131 -24.139  0.00  0.00    +0.126 C 
ATOM     17  C   UNL     1      34.221 -14.235 -22.143  0.00  0.00    +0.164 C 
ATOM     18  C   UNL     1      33.820 -15.118 -24.291  0.00  0.00    +0.164 C 
ENDBRANCH   9  14
ENDBRANCH   4   9
ENDBRANCH   1   5
BRANCH   1  19
ATOM     19  S   UNL     1      33.343 -22.345 -17.262  0.00  0.00    +0.061 S 
ATOM     20  O   UNL     1      33.463 -23.497 -18.136  0.00  0.00    -0.153 OA
ATOM     21  O   UNL     1      32.120 -22.122 -16.515  0.00  0.00    -0.153 OA
BRANCH  19  23
ATOM     22 CL   UNL     1      38.838 -23.173 -10.876  0.00  0.00    -0.082 Cl
ATOM     23  C   UNL     1      34.661 -22.412 -16.087  0.00  0.00    +0.122 C 
ATOM     24  C   UNL     1      34.421 -22.943 -14.832  0.00  0.00    +0.020 C 
ATOM     25  C   UNL     1      35.906 -21.931 -16.444  0.00  0.00    +0.020 C 
ATOM     26  C   UNL     1      35.458 -23.003 -13.887  0.00  0.00    +0.001 C 
ATOM     27  C   UNL     1      36.740 -22.516 -14.235  0.00  0.00    +0.001 C 
ATOM     28  C   UNL     1      36.947 -21.984 -15.518  0.00  0.00    +0.001 C 
ATOM     29  C   UNL     1      35.251 -23.537 -12.604  0.00  0.00    +0.001 C 
ATOM     30  C   UNL     1      37.777 -22.576 -13.290  0.00  0.00    +0.011 C 
ATOM     31  C   UNL     1      36.293 -23.588 -11.678  0.00  0.00    +0.011 C 
ATOM     32  C   UNL     1      37.554 -23.108 -12.020  0.00  0.00    +0.058 C 
ENDBRANCH  19  23
ENDBRANCH   1  19
TORSDOF 5
ENDMDL
MODEL 7
REMARK VINA RESULT:     -10.2      3.792      6.020
REMARK  Name = 6852168
REMARK  5 active torsions:
REMARK  status: ('A' for Active; 'I' for Inactive)
REMARK    1  A    between atoms: N_1  and  C_5
REMARK    2  A    between atoms: N_1  and  S_19
REMARK    3  A    between atoms: N_4  and  C_9
REMARK    4  A    between atoms: C_9  and  C_14
REMARK    5  A    between atoms: S_19  and  C_23
REMARK                            x       y       z     vdW  Elec       q    Type
REMARK                         _______ _______ _______ _____ _____    ______ ____
ROOT
ATOM      1  N   UNL     1      35.331 -18.947 -20.096  0.00  0.00    -0.172 NA
ATOM      2  H   UNL     1      34.389 -18.556 -20.056  0.00  0.00    +0.149 HD
ENDROOT
BRANCH   1   5
ATOM      3  O   UNL     1      32.826 -20.590 -19.606  0.00  0.00    -0.273 OA
ATOM      4  N   UNL     1      34.496 -21.257 -18.088  0.00  0.00    -0.272 N 
ATOM      5  C   UNL     1      35.180 -20.412 -20.155  0.00  0.00    +0.153 C 
ATOM      6  C   UNL     1      36.352 -21.117 -19.482  0.00  0.00    +0.048 C 
ATOM      7  C   UNL     1      35.939 -21.224 -18.025  0.00  0.00    +0.096 C 
ATOM      8  C   UNL     1      33.995 -20.764 -19.292  0.00  0.00    +0.242 C 
BRANCH   4   9
ATOM      9  C   UNL     1      33.698 -21.619 -16.937  0.00  0.00    +0.152 C 
ATOM     10  C   UNL     1      32.216 -21.594 -17.233  0.00  0.00    +0.031 C 
BRANCH   9  14
ATOM     11  O   UNL     1      36.982 -23.420 -13.551  0.00  0.00    -0.350 OA
ATOM     12  O   UNL     1      33.852 -23.950 -17.343  0.00  0.00    -0.273 OA
ATOM     13  N   UNL     1      34.895 -23.160 -15.425  0.00  0.00    -0.273 N 
ATOM     14  C   UNL     1      34.150 -23.016 -16.593  0.00  0.00    +0.244 C 
ATOM     15  C   UNL     1      35.157 -22.097 -14.448  0.00  0.00    +0.126 C 
ATOM     16  C   UNL     1      35.377 -24.480 -15.020  0.00  0.00    +0.126 C 
ATOM     17  C   UNL     1      36.620 -22.120 -14.025  0.00  0.00    +0.164 C 
ATOM     18  C   UNL     1      36.831 -24.401 -14.579  0.00  0.00    +0.164 C 
ENDBRANCH   9  14
ENDBRANCH   4   9
ENDBRANCH   1   5
BRANCH   1  19
ATOM     19  S   UNL     1      36.151 -18.122 -21.340  0.00  0.00    +0.061 S 
ATOM     20  O   UNL     1      35.781 -18.695 -22.619  0.00  0.00    -0.153 OA
ATOM     21  O   UNL     1      37.550 -17.989 -20.978  0.00  0.00    -0.153 OA
BRANCH  19  23
ATOM     22 CL   UNL     1      32.767 -10.397 -22.075  0.00  0.00    -0.082 Cl
ATOM     23  C   UNL     1      35.437 -16.509 -21.237  0.00  0.00    +0.122 C 
ATOM     24  C   UNL     1      35.167 -15.814 -22.404  0.00  0.00    +0.020 C 
ATOM     25  C   UNL     1      35.163 -15.972 -19.995  0.00  0.00    +0.020 C 
ATOM     26  C   UNL     1      34.599 -14.531 -22.339  0.00  0.00    +0.001 C 
ATOM     27  C   UNL     1      34.310 -13.965 -21.074  0.00  0.00    +0.001 C 
ATOM     28  C   UNL     1      34.598 -14.699 -19.911  0.00  0.00    +0.001 C 
ATOM     29  C   UNL     1      34.310 -13.798 -23.501  0.00  0.00    +0.001 C 
ATOM     30  C   UNL     1      33.743 -12.682 -21.009  0.00  0.00    +0.011 C 
ATOM     31  C   UNL     1      33.746 -12.525 -23.418  0.00  0.00    +0.011 C 
ATOM     32  C   UNL     1      33.463 -11.968 -22.174  0.00  0.00    +0.058 C 
ENDBRANCH  19  23
ENDBRANCH   1  19
TORSDOF 5
ENDMDL
MODEL 8
REMARK VINA RESULT:      -9.7      9.271     14.067
REMARK  Name = 6852168
REMARK  5 active torsions:
REMARK  status: ('A' for Active; 'I' for Inactive)
REMARK    1  A    between atoms: N_1  and  C_5
REMARK    2  A    between atoms: N_1  and  S_19
REMARK    3  A    between atoms: N_4  and  C_9
REMARK    4  A    between atoms: C_9  and  C_14
REMARK    5  A    between atoms: S_19  and  C_23
REMARK                            x       y       z     vdW  Elec       q    Type
REMARK                         _______ _______ _______ _____ _____    ______ ____
ROOT
ATOM      1  N   UNL     1      34.358 -14.012 -23.728  0.00  0.00    -0.172 NA
ATOM      2  H   UNL     1      35.213 -13.472 -23.856  0.00  0.00    +0.149 HD
ENDROOT
BRANCH   1   5
ATOM      3  O   UNL     1      34.038 -11.652 -25.609  0.00  0.00    -0.273 OA
ATOM      4  N   UNL     1      33.974 -10.881 -23.386  0.00  0.00    -0.272 N 
ATOM      5  C   UNL     1      33.237 -13.058 -23.804  0.00  0.00    +0.153 C 
ATOM      6  C   UNL     1      32.781 -12.625 -22.415  0.00  0.00    +0.048 C 
ATOM      7  C   UNL     1      33.658 -11.430 -22.088  0.00  0.00    +0.096 C 
ATOM      8  C   UNL     1      33.782 -11.794 -24.422  0.00  0.00    +0.242 C 
BRANCH   4   9
ATOM      9  C   UNL     1      34.577  -9.574 -23.527  0.00  0.00    +0.152 C 
ATOM     10  C   UNL     1      35.572  -9.517 -24.663  0.00  0.00    +0.031 C 
BRANCH   9  14
ATOM     11  O   UNL     1      32.402  -5.933 -20.786  0.00  0.00    -0.350 OA
ATOM     12  O   UNL     1      32.676  -8.868 -24.757  0.00  0.00    -0.273 OA
ATOM     13  N   UNL     1      33.243  -7.594 -22.902  0.00  0.00    -0.273 N 
ATOM     14  C   UNL     1      33.413  -8.651 -23.791  0.00  0.00    +0.244 C 
ATOM     15  C   UNL     1      34.170  -7.232 -21.823  0.00  0.00    +0.126 C 
ATOM     16  C   UNL     1      32.137  -6.654 -23.082  0.00  0.00    +0.126 C 
ATOM     17  C   UNL     1      33.398  -6.931 -20.545  0.00  0.00    +0.164 C 
ATOM     18  C   UNL     1      31.449  -6.383 -21.752  0.00  0.00    +0.164 C 
ENDBRANCH   9  14
ENDBRANCH   4   9
ENDBRANCH   1   5
BRANCH   1  19
ATOM     19  S   UNL     1      34.439 -15.323 -24.812  0.00  0.00    +0.061 S 
ATOM     20  O   UNL     1      35.641 -15.206 -25.615  0.00  0.00    -0.153 OA
ATOM     21  O   UNL     1      33.148 -15.488 -25.453  0.00  0.00    -0.153 OA
BRANCH  19  23
ATOM     22 CL   UNL     1      36.145 -21.117 -18.881  0.00  0.00    -0.082 Cl
ATOM     23  C   UNL     1      34.647 -16.690 -23.712  0.00  0.00    +0.122 C 
ATOM     24  C   UNL     1      35.434 -16.535 -22.584  0.00  0.00    +0.020 C 
ATOM     25  C   UNL     1      34.024 -17.888 -24.001  0.00  0.00    +0.020 C 
ATOM     26  C   UNL     1      35.610 -17.612 -21.700  0.00  0.00    +0.001 C 
ATOM     27  C   UNL     1      34.977 -18.847 -21.978  0.00  0.00    +0.001 C 
ATOM     28  C   UNL     1      34.186 -18.968 -23.134  0.00  0.00    +0.001 C 
ATOM     29  C   UNL     1      36.399 -17.491 -20.545  0.00  0.00    +0.001 C 
ATOM     30  C   UNL     1      35.153 -19.924 -21.095  0.00  0.00    +0.011 C 
ATOM     31  C   UNL     1      36.563 -18.571 -19.677  0.00  0.00    +0.011 C 
ATOM     32  C   UNL     1      35.941 -19.786 -19.953  0.00  0.00    +0.058 C 
ENDBRANCH  19  23
ENDBRANCH   1  19
TORSDOF 5
ENDMDL
MODEL 9
REMARK VINA RESULT:      -9.6      7.678     10.570
REMARK  Name = 6852168
REMARK  5 active torsions:
REMARK  status: ('A' for Active; 'I' for Inactive)
REMARK    1  A    between atoms: N_1  and  C_5
REMARK    2  A    between atoms: N_1  and  S_19
REMARK    3  A    between atoms: N_4  and  C_9
REMARK    4  A    between atoms: C_9  and  C_14
REMARK    5  A    between atoms: S_19  and  C_23
REMARK                            x       y       z     vdW  Elec       q    Type
REMARK                         _______ _______ _______ _____ _____    ______ ____
ROOT
ATOM      1  N   UNL     1      33.787 -13.977 -21.892  0.00  0.00    -0.172 NA
ATOM      2  H   UNL     1      33.192 -14.779 -22.096  0.00  0.00    +0.149 HD
ENDROOT
BRANCH   1   5
ATOM      3  O   UNL     1      35.516 -16.005 -23.344  0.00  0.00    -0.273 OA
ATOM      4  N   UNL     1      34.992 -16.830 -21.204  0.00  0.00    -0.272 N 
ATOM      5  C   UNL     1      35.097 -14.513 -21.481  0.00  0.00    +0.153 C 
ATOM      6  C   UNL     1      35.117 -14.848 -19.994  0.00  0.00    +0.048 C 
ATOM      7  C   UNL     1      34.612 -16.277 -19.924  0.00  0.00    +0.096 C 
ATOM      8  C   UNL     1      35.253 -15.850 -22.160  0.00  0.00    +0.242 C 
BRANCH   4   9
ATOM      9  C   UNL     1      34.935 -18.252 -21.459  0.00  0.00    +0.152 C 
ATOM     10  C   UNL     1      35.040 -18.578 -22.931  0.00  0.00    +0.031 C 
BRANCH   9  14
ATOM     11  O   UNL     1      35.319 -21.752 -17.840  0.00  0.00    -0.350 OA
ATOM     12  O   UNL     1      37.208 -18.257 -20.784  0.00  0.00    -0.273 OA
ATOM     13  N   UNL     1      35.872 -19.957 -19.940  0.00  0.00    -0.273 N 
ATOM     14  C   UNL     1      36.111 -18.816 -20.703  0.00  0.00    +0.244 C 
ATOM     15  C   UNL     1      34.618 -20.719 -19.920  0.00  0.00    +0.126 C 
ATOM     16  C   UNL     1      36.957 -20.566 -19.171  0.00  0.00    +0.126 C 
ATOM     17  C   UNL     1      34.240 -21.074 -18.488  0.00  0.00    +0.164 C 
ATOM     18  C   UNL     1      36.480 -20.921 -17.770  0.00  0.00    +0.164 C 
ENDBRANCH   9  14
ENDBRANCH   4   9
ENDBRANCH   1   5
BRANCH   1  19
ATOM     19  S   UNL     1      33.675 -12.929 -23.230  0.00  0.00    +0.061 S 
ATOM     20  O   UNL     1      32.609 -13.382 -24.104  0.00  0.00    -0.153 OA
ATOM     21  O   UNL     1      35.004 -12.697 -23.762  0.00  0.00    -0.153 OA
BRANCH  19  23
ATOM     22 CL   UNL     1      31.772  -5.149 -20.490  0.00  0.00    -0.082 Cl
ATOM     23  C   UNL     1      33.153 -11.423 -22.468  0.00  0.00    +0.122 C 
ATOM     24  C   UNL     1      33.518 -10.216 -23.038  0.00  0.00    +0.020 C 
ATOM     25  C   UNL     1      32.391 -11.479 -21.317  0.00  0.00    +0.020 C 
ATOM     26  C   UNL     1      33.111  -9.010 -22.444  0.00  0.00    +0.001 C 
ATOM     27  C   UNL     1      32.329  -9.047 -21.265  0.00  0.00    +0.001 C 
ATOM     28  C   UNL     1      31.977 -10.291 -20.715  0.00  0.00    +0.001 C 
ATOM     29  C   UNL     1      33.462  -7.767 -22.996  0.00  0.00    +0.001 C 
ATOM     30  C   UNL     1      31.923  -7.842 -20.672  0.00  0.00    +0.011 C 
ATOM     31  C   UNL     1      33.049  -6.578 -22.392  0.00  0.00    +0.011 C 
ATOM     32  C   UNL     1      32.281  -6.616 -21.232  0.00  0.00    +0.058 C 
ENDBRANCH  19  23
ENDBRANCH   1  19
TORSDOF 5
ENDMDL
