MODEL 1
REMARK VINA RESULT:     -11.4      0.000      0.000
REMARK  Name = 5326866
REMARK  5 active torsions:
REMARK  status: ('A' for Active; 'I' for Inactive)
REMARK    1  A    between atoms: N_5  and  C_14
REMARK    2  A    between atoms: C_6  and  C_28
REMARK    3  A    between atoms: C_15  and  C_20
REMARK    4  A    between atoms: C_20  and  O_21
REMARK    5  A    between atoms: O_21  and  C_23
REMARK                            x       y       z     vdW  Elec       q    Type
REMARK                         _______ _______ _______ _____ _____    ______ ____
ROOT
ATOM      1  O   UNL     1      34.683 -20.508 -19.234  0.00  0.00    -0.252 OA
ATOM      2  N   UNL     1      35.553 -22.785 -15.796  0.00  0.00    -0.239 N 
ATOM      3  N   UNL     1      35.335 -22.031 -16.888  0.00  0.00    -0.166 NA
ATOM      4  N   UNL     1      36.680 -20.411 -18.013  0.00  0.00    -0.252 N 
ATOM      5  N   UNL     1      36.414 -19.073 -19.874  0.00  0.00    -0.268 N 
ATOM      6  C   UNL     1      36.753 -22.545 -15.287  0.00  0.00    +0.045 C 
ATOM      7  C   UNL     1      37.399 -21.633 -15.995  0.00  0.00    +0.048 C 
ATOM      8  C   UNL     1      36.465 -21.329 -17.004  0.00  0.00    +0.154 C 
ATOM      9  C   UNL     1      35.805 -20.044 -19.063  0.00  0.00    +0.309 C 
ATOM     10  H   UNL     1      34.908 -23.429 -15.425  0.00  0.00    +0.174 HD
ATOM     11  H   UNL     1      37.552 -19.954 -17.999  0.00  0.00    +0.158 HD
ATOM     12  H   UNL     1      37.322 -18.798 -19.610  0.00  0.00    +0.156 HD
ENDROOT
BRANCH   5  14
ATOM     13 CL   UNL     1      34.190 -16.474 -24.695  0.00  0.00    -0.082 Cl
ATOM     14  C   UNL     1      35.884 -18.442 -21.024  0.00  0.00    +0.051 C 
ATOM     15  C   UNL     1      35.313 -16.438 -22.213  0.00  0.00    +0.033 C 
ATOM     16  C   UNL     1      35.837 -17.059 -21.078  0.00  0.00    +0.015 C 
ATOM     17  C   UNL     1      35.421 -19.222 -22.072  0.00  0.00    +0.016 C 
ATOM     18  C   UNL     1      34.844 -17.208 -23.276  0.00  0.00    +0.057 C 
ATOM     19  C   UNL     1      34.898 -18.601 -23.205  0.00  0.00    +0.012 C 
BRANCH  15  20
ATOM     20  C   UNL     1      35.274 -14.944 -22.248  0.00  0.00    +0.233 C 
BRANCH  20  21
ATOM     21  O   UNL     1      34.824 -14.456 -20.991  0.00  0.00    -0.469 OA
BRANCH  21  23
ATOM     22  N   UNL     1      33.019 -11.487 -22.090  0.00  0.00    -0.239 NA
ATOM     23  C   UNL     1      33.890 -13.454 -21.016  0.00  0.00    +0.158 C 
ATOM     24  C   UNL     1      32.912 -13.383 -20.040  0.00  0.00    +0.040 C 
ATOM     25  C   UNL     1      33.910 -12.501 -22.010  0.00  0.00    +0.136 C 
ATOM     26  C   UNL     1      31.978 -12.354 -20.088  0.00  0.00    +0.024 C 
ATOM     27  C   UNL     1      32.074 -11.440 -21.125  0.00  0.00    +0.099 C 
ENDBRANCH  21  23
ENDBRANCH  20  21
ENDBRANCH  15  20
ENDBRANCH   5  14
BRANCH   6  28
ATOM     28  C   UNL     1      37.206 -23.310 -14.020  0.00  0.00    +0.033 C 
ATOM     29  C   UNL     1      38.614 -23.903 -14.240  0.00  0.00    +0.006 C 
ATOM     30  C   UNL     1      36.212 -24.451 -13.712  0.00  0.00    +0.006 C 
ATOM     31  C   UNL     1      37.279 -22.418 -12.761  0.00  0.00    +0.006 C 
ENDBRANCH   6  28
TORSDOF 5
ENDMDL
MODEL 2
REMARK VINA RESULT:     -10.6      3.283     11.151
REMARK  Name = 5326866
REMARK  5 active torsions:
REMARK  status: ('A' for Active; 'I' for Inactive)
REMARK    1  A    between atoms: N_5  and  C_14
REMARK    2  A    between atoms: C_6  and  C_28
REMARK    3  A    between atoms: C_15  and  C_20
REMARK    4  A    between atoms: C_20  and  O_21
REMARK    5  A    between atoms: O_21  and  C_23
REMARK                            x       y       z     vdW  Elec       q    Type
REMARK                         _______ _______ _______ _____ _____    ______ ____
ROOT
ATOM      1  O   UNL     1      32.744 -13.061 -22.212  0.00  0.00    -0.252 OA
ATOM      2  N   UNL     1      31.937  -8.991 -21.480  0.00  0.00    -0.239 N 
ATOM      3  N   UNL     1      32.241 -10.271 -21.756  0.00  0.00    -0.166 NA
ATOM      4  N   UNL     1      33.841 -11.257 -23.228  0.00  0.00    -0.252 N 
ATOM      5  N   UNL     1      34.446 -13.415 -23.775  0.00  0.00    -0.268 N 
ATOM      6  C   UNL     1      32.695  -8.161 -22.182  0.00  0.00    +0.045 C 
ATOM      7  C   UNL     1      33.538  -8.824 -22.957  0.00  0.00    +0.048 C 
ATOM      8  C   UNL     1      33.218 -10.164 -22.659  0.00  0.00    +0.154 C 
ATOM      9  C   UNL     1      33.588 -12.629 -22.990  0.00  0.00    +0.309 C 
ATOM     10  H   UNL     1      31.244  -8.707 -20.841  0.00  0.00    +0.174 HD
ATOM     11  H   UNL     1      34.550 -11.057 -23.881  0.00  0.00    +0.158 HD
ATOM     12  H   UNL     1      35.074 -12.924 -24.353  0.00  0.00    +0.156 HD
ENDROOT
BRANCH   5  14
ATOM     13 CL   UNL     1      34.739 -19.312 -24.073  0.00  0.00    -0.082 Cl
ATOM     14  C   UNL     1      34.521 -14.827 -23.837  0.00  0.00    +0.051 C 
ATOM     15  C   UNL     1      35.312 -16.904 -22.933  0.00  0.00    +0.033 C 
ATOM     16  C   UNL     1      35.238 -15.512 -22.870  0.00  0.00    +0.015 C 
ATOM     17  C   UNL     1      33.878 -15.494 -24.867  0.00  0.00    +0.016 C 
ATOM     18  C   UNL     1      34.669 -17.591 -23.963  0.00  0.00    +0.057 C 
ATOM     19  C   UNL     1      33.953 -16.885 -24.930  0.00  0.00    +0.012 C 
BRANCH  15  20
ATOM     20  C   UNL     1      36.090 -17.621 -21.878  0.00  0.00    +0.233 C 
BRANCH  20  21
ATOM     21  O   UNL     1      35.302 -17.718 -20.699  0.00  0.00    -0.469 OA
BRANCH  21  23
ATOM     22  N   UNL     1      36.198 -20.925 -19.215  0.00  0.00    -0.239 NA
ATOM     23  C   UNL     1      35.161 -18.967 -20.151  0.00  0.00    +0.158 C 
ATOM     24  C   UNL     1      33.905 -19.522 -19.984  0.00  0.00    +0.040 C 
ATOM     25  C   UNL     1      36.267 -19.689 -19.760  0.00  0.00    +0.136 C 
ATOM     26  C   UNL     1      33.793 -20.791 -19.428  0.00  0.00    +0.024 C 
ATOM     27  C   UNL     1      34.959 -21.445 -19.063  0.00  0.00    +0.099 C 
ENDBRANCH  21  23
ENDBRANCH  20  21
ENDBRANCH  15  20
ENDBRANCH   5  14
BRANCH   6  28
ATOM     28  C   UNL     1      32.506  -6.634 -22.015  0.00  0.00    +0.033 C 
ATOM     29  C   UNL     1      33.106  -5.894 -23.230  0.00  0.00    +0.006 C 
ATOM     30  C   UNL     1      33.209  -6.156 -20.726  0.00  0.00    +0.006 C 
ATOM     31  C   UNL     1      31.025  -6.209 -21.910  0.00  0.00    +0.006 C 
ENDBRANCH   6  28
TORSDOF 5
ENDMDL
MODEL 3
REMARK VINA RESULT:     -10.6      1.979      2.775
REMARK  Name = 5326866
REMARK  5 active torsions:
REMARK  status: ('A' for Active; 'I' for Inactive)
REMARK    1  A    between atoms: N_5  and  C_14
REMARK    2  A    between atoms: C_6  and  C_28
REMARK    3  A    between atoms: C_15  and  C_20
REMARK    4  A    between atoms: C_20  and  O_21
REMARK    5  A    between atoms: O_21  and  C_23
REMARK                            x       y       z     vdW  Elec       q    Type
REMARK                         _______ _______ _______ _____ _____    ______ ____
ROOT
ATOM      1  O   UNL     1      35.139 -21.995 -17.720  0.00  0.00    -0.252 OA
ATOM      2  N   UNL     1      36.532 -24.012 -14.292  0.00  0.00    -0.239 N 
ATOM      3  N   UNL     1      36.140 -23.330 -15.382  0.00  0.00    -0.166 NA
ATOM      4  N   UNL     1      37.090 -21.467 -16.534  0.00  0.00    -0.252 N 
ATOM      5  N   UNL     1      36.513 -20.228 -18.394  0.00  0.00    -0.268 N 
ATOM      6  C   UNL     1      37.662 -23.520 -13.805  0.00  0.00    +0.045 C 
ATOM      7  C   UNL     1      38.087 -22.495 -14.526  0.00  0.00    +0.048 C 
ATOM      8  C   UNL     1      37.092 -22.404 -15.520  0.00  0.00    +0.154 C 
ATOM      9  C   UNL     1      36.139 -21.302 -17.569  0.00  0.00    +0.309 C 
ATOM     10  H   UNL     1      36.045 -24.777 -13.908  0.00  0.00    +0.174 HD
ATOM     11  H   UNL     1      37.845 -20.835 -16.538  0.00  0.00    +0.158 HD
ATOM     12  H   UNL     1      37.346 -19.764 -18.147  0.00  0.00    +0.156 HD
ENDROOT
BRANCH   5  14
ATOM     13 CL   UNL     1      33.675 -18.176 -23.156  0.00  0.00    -0.082 Cl
ATOM     14  C   UNL     1      35.842 -19.732 -19.536  0.00  0.00    +0.051 C 
ATOM     15  C   UNL     1      35.785 -18.265 -21.434  0.00  0.00    +0.033 C 
ATOM     16  C   UNL     1      36.449 -18.755 -20.308  0.00  0.00    +0.015 C 
ATOM     17  C   UNL     1      34.590 -20.231 -19.856  0.00  0.00    +0.016 C 
ATOM     18  C   UNL     1      34.524 -18.758 -21.770  0.00  0.00    +0.057 C 
ATOM     19  C   UNL     1      33.927 -19.741 -20.981  0.00  0.00    +0.012 C 
BRANCH  15  20
ATOM     20  C   UNL     1      36.460 -17.213 -22.253  0.00  0.00    +0.233 C 
BRANCH  20  21
ATOM     21  O   UNL     1      35.942 -15.938 -21.898  0.00  0.00    -0.469 OA
BRANCH  21  23
ATOM     22  N   UNL     1      34.490 -15.119 -25.139  0.00  0.00    -0.239 NA
ATOM     23  C   UNL     1      35.195 -15.289 -22.846  0.00  0.00    +0.158 C 
ATOM     24  C   UNL     1      34.423 -14.194 -22.501  0.00  0.00    +0.040 C 
ATOM     25  C   UNL     1      35.202 -15.714 -24.156  0.00  0.00    +0.136 C 
ATOM     26  C   UNL     1      33.677 -13.554 -23.484  0.00  0.00    +0.024 C 
ATOM     27  C   UNL     1      33.744 -14.051 -24.776  0.00  0.00    +0.099 C 
ENDBRANCH  21  23
ENDBRANCH  20  21
ENDBRANCH  15  20
ENDBRANCH   5  14
BRANCH   6  28
ATOM     28  C   UNL     1      38.289 -24.163 -12.544  0.00  0.00    +0.033 C 
ATOM     29  C   UNL     1      38.342 -23.129 -11.399  0.00  0.00    +0.006 C 
ATOM     30  C   UNL     1      39.720 -24.651 -12.860  0.00  0.00    +0.006 C 
ATOM     31  C   UNL     1      37.497 -25.381 -12.021  0.00  0.00    +0.006 C 
ENDBRANCH   6  28
TORSDOF 5
ENDMDL
MODEL 4
REMARK VINA RESULT:     -10.6      1.424      1.906
REMARK  Name = 5326866
REMARK  5 active torsions:
REMARK  status: ('A' for Active; 'I' for Inactive)
REMARK    1  A    between atoms: N_5  and  C_14
REMARK    2  A    between atoms: C_6  and  C_28
REMARK    3  A    between atoms: C_15  and  C_20
REMARK    4  A    between atoms: C_20  and  O_21
REMARK    5  A    between atoms: O_21  and  C_23
REMARK                            x       y       z     vdW  Elec       q    Type
REMARK                         _______ _______ _______ _____ _____    ______ ____
ROOT
ATOM      1  O   UNL     1      34.303 -20.201 -19.718  0.00  0.00    -0.252 OA
ATOM      2  N   UNL     1      35.080 -22.539 -16.300  0.00  0.00    -0.239 N 
ATOM      3  N   UNL     1      34.893 -21.770 -17.386  0.00  0.00    -0.166 NA
ATOM      4  N   UNL     1      36.324 -20.240 -18.532  0.00  0.00    -0.252 N 
ATOM      5  N   UNL     1      36.115 -18.883 -20.387  0.00  0.00    -0.268 N 
ATOM      6  C   UNL     1      36.302 -22.382 -15.811  0.00  0.00    +0.045 C 
ATOM      7  C   UNL     1      36.995 -21.513 -16.529  0.00  0.00    +0.048 C 
ATOM      8  C   UNL     1      36.065 -21.145 -17.522  0.00  0.00    +0.154 C 
ATOM      9  C   UNL     1      35.456 -19.813 -19.566  0.00  0.00    +0.309 C 
ATOM     10  H   UNL     1      34.399 -23.139 -15.918  0.00  0.00    +0.174 HD
ATOM     11  H   UNL     1      37.225 -19.843 -18.534  0.00  0.00    +0.158 HD
ATOM     12  H   UNL     1      37.043 -18.670 -20.139  0.00  0.00    +0.156 HD
ENDROOT
BRANCH   5  14
ATOM     13 CL   UNL     1      33.984 -16.129 -25.163  0.00  0.00    -0.082 Cl
ATOM     14  C   UNL     1      35.608 -18.215 -21.527  0.00  0.00    +0.051 C 
ATOM     15  C   UNL     1      35.202 -16.178 -22.727  0.00  0.00    +0.033 C 
ATOM     16  C   UNL     1      35.703 -16.836 -21.603  0.00  0.00    +0.015 C 
ATOM     17  C   UNL     1      35.025 -18.956 -22.542  0.00  0.00    +0.016 C 
ATOM     18  C   UNL     1      34.613 -16.909 -23.758  0.00  0.00    +0.057 C 
ATOM     19  C   UNL     1      34.525 -18.298 -23.665  0.00  0.00    +0.012 C 
BRANCH  15  20
ATOM     20  C   UNL     1      35.317 -14.689 -22.787  0.00  0.00    +0.233 C 
BRANCH  20  21
ATOM     21  O   UNL     1      34.029 -14.127 -22.998  0.00  0.00    -0.469 OA
BRANCH  21  23
ATOM     22  N   UNL     1      34.069 -10.495 -23.301  0.00  0.00    -0.239 NA
ATOM     23  C   UNL     1      33.985 -12.883 -23.572  0.00  0.00    +0.158 C 
ATOM     24  C   UNL     1      33.815 -12.747 -24.938  0.00  0.00    +0.040 C 
ATOM     25  C   UNL     1      34.106 -11.749 -22.799  0.00  0.00    +0.136 C 
ATOM     26  C   UNL     1      33.771 -11.472 -25.492  0.00  0.00    +0.024 C 
ATOM     27  C   UNL     1      33.902 -10.389 -24.638  0.00  0.00    +0.099 C 
ENDBRANCH  21  23
ENDBRANCH  20  21
ENDBRANCH  15  20
ENDBRANCH   5  14
BRANCH   6  28
ATOM     28  C   UNL     1      36.725 -23.178 -14.553  0.00  0.00    +0.033 C 
ATOM     29  C   UNL     1      38.256 -23.376 -14.548  0.00  0.00    +0.006 C 
ATOM     30  C   UNL     1      36.029 -24.557 -14.547  0.00  0.00    +0.006 C 
ATOM     31  C   UNL     1      36.352 -22.475 -13.230  0.00  0.00    +0.006 C 
ENDBRANCH   6  28
TORSDOF 5
ENDMDL
MODEL 5
REMARK VINA RESULT:     -10.5      4.477     10.250
REMARK  Name = 5326866
REMARK  5 active torsions:
REMARK  status: ('A' for Active; 'I' for Inactive)
REMARK    1  A    between atoms: N_5  and  C_14
REMARK    2  A    between atoms: C_6  and  C_28
REMARK    3  A    between atoms: C_15  and  C_20
REMARK    4  A    between atoms: C_20  and  O_21
REMARK    5  A    between atoms: O_21  and  C_23
REMARK                            x       y       z     vdW  Elec       q    Type
REMARK                         _______ _______ _______ _____ _____    ______ ____
ROOT
ATOM      1  O   UNL     1      35.326 -22.069 -16.925  0.00  0.00    -0.252 OA
ATOM      2  N   UNL     1      34.687 -19.562 -20.252  0.00  0.00    -0.239 N 
ATOM      3  N   UNL     1      34.952 -20.339 -19.186  0.00  0.00    -0.166 NA
ATOM      4  N   UNL     1      36.912 -20.613 -17.851  0.00  0.00    -0.252 N 
ATOM      5  N   UNL     1      37.474 -21.898 -16.018  0.00  0.00    -0.268 N 
ATOM      6  C   UNL     1      35.743 -18.834 -20.582  0.00  0.00    +0.045 C 
ATOM      7  C   UNL     1      36.762 -19.074 -19.772  0.00  0.00    +0.048 C 
ATOM      8  C   UNL     1      36.220 -20.037 -18.898  0.00  0.00    +0.154 C 
ATOM      9  C   UNL     1      36.451 -21.582 -16.927  0.00  0.00    +0.309 C 
ATOM     10  H   UNL     1      33.823 -19.539 -20.723  0.00  0.00    +0.174 HD
ATOM     11  H   UNL     1      37.842 -20.312 -17.732  0.00  0.00    +0.158 HD
ATOM     12  H   UNL     1      38.327 -21.423 -16.146  0.00  0.00    +0.156 HD
ENDROOT
BRANCH   5  14
ATOM     13 CL   UNL     1      37.332 -25.734 -11.524  0.00  0.00    -0.082 Cl
ATOM     14  C   UNL     1      37.431 -22.814 -14.942  0.00  0.00    +0.051 C 
ATOM     15  C   UNL     1      36.218 -23.854 -13.151  0.00  0.00    +0.033 C 
ATOM     16  C   UNL     1      36.260 -22.950 -14.214  0.00  0.00    +0.015 C 
ATOM     17  C   UNL     1      38.561 -23.554 -14.636  0.00  0.00    +0.016 C 
ATOM     18  C   UNL     1      37.348 -24.607 -12.831  0.00  0.00    +0.057 C 
ATOM     19  C   UNL     1      38.519 -24.457 -13.574  0.00  0.00    +0.012 C 
BRANCH  15  20
ATOM     20  C   UNL     1      34.944 -23.984 -12.381  0.00  0.00    +0.233 C 
BRANCH  20  21
ATOM     21  O   UNL     1      34.054 -22.945 -12.766  0.00  0.00    -0.469 OA
BRANCH  21  23
ATOM     22  N   UNL     1      31.092 -24.825 -13.752  0.00  0.00    -0.239 NA
ATOM     23  C   UNL     1      32.943 -23.314 -13.477  0.00  0.00    +0.158 C 
ATOM     24  C   UNL     1      32.555 -22.597 -14.595  0.00  0.00    +0.040 C 
ATOM     25  C   UNL     1      32.196 -24.406 -13.094  0.00  0.00    +0.136 C 
ATOM     26  C   UNL     1      31.425 -22.996 -15.299  0.00  0.00    +0.024 C 
ATOM     27  C   UNL     1      30.734 -24.107 -14.840  0.00  0.00    +0.099 C 
ENDBRANCH  21  23
ENDBRANCH  20  21
ENDBRANCH  15  20
ENDBRANCH   5  14
BRANCH   6  28
ATOM     28  C   UNL     1      35.652 -17.868 -21.788  0.00  0.00    +0.033 C 
ATOM     29  C   UNL     1      34.699 -18.449 -22.855  0.00  0.00    +0.006 C 
ATOM     30  C   UNL     1      37.053 -17.668 -22.408  0.00  0.00    +0.006 C 
ATOM     31  C   UNL     1      35.117 -16.469 -21.412  0.00  0.00    +0.006 C 
ENDBRANCH   6  28
TORSDOF 5
ENDMDL
MODEL 6
REMARK VINA RESULT:     -10.4      5.144      8.402
REMARK  Name = 5326866
REMARK  5 active torsions:
REMARK  status: ('A' for Active; 'I' for Inactive)
REMARK    1  A    between atoms: N_5  and  C_14
REMARK    2  A    between atoms: C_6  and  C_28
REMARK    3  A    between atoms: C_15  and  C_20
REMARK    4  A    between atoms: C_20  and  O_21
REMARK    5  A    between atoms: O_21  and  C_23
REMARK                            x       y       z     vdW  Elec       q    Type
REMARK                         _______ _______ _______ _____ _____    ______ ____
ROOT
ATOM      1  O   UNL     1      34.434 -12.157 -21.297  0.00  0.00    -0.252 OA
ATOM      2  N   UNL     1      35.100 -16.189 -20.266  0.00  0.00    -0.239 N 
ATOM      3  N   UNL     1      34.895 -14.919 -20.658  0.00  0.00    -0.166 NA
ATOM      4  N   UNL     1      34.880 -13.889 -22.812  0.00  0.00    -0.252 N 
ATOM      5  N   UNL     1      34.542 -11.745 -23.596  0.00  0.00    -0.268 N 
ATOM      6  C   UNL     1      35.332 -16.975 -21.307  0.00  0.00    +0.045 C 
ATOM      7  C   UNL     1      35.298 -16.291 -22.439  0.00  0.00    +0.048 C 
ATOM      8  C   UNL     1      35.018 -14.987 -21.986  0.00  0.00    +0.154 C 
ATOM      9  C   UNL     1      34.600 -12.550 -22.447  0.00  0.00    +0.309 C 
ATOM     10  H   UNL     1      35.079 -16.493 -19.330  0.00  0.00    +0.174 HD
ATOM     11  H   UNL     1      34.990 -14.059 -23.776  0.00  0.00    +0.158 HD
ATOM     12  H   UNL     1      34.696 -12.205 -24.453  0.00  0.00    +0.156 HD
ENDROOT
BRANCH   5  14
ATOM     13 CL   UNL     1      33.514  -5.935 -23.948  0.00  0.00    -0.082 Cl
ATOM     14  C   UNL     1      34.288 -10.356 -23.674  0.00  0.00    +0.051 C 
ATOM     15  C   UNL     1      32.899  -8.469 -23.158  0.00  0.00    +0.033 C 
ATOM     16  C   UNL     1      33.149  -9.840 -23.079  0.00  0.00    +0.015 C 
ATOM     17  C   UNL     1      35.183  -9.541 -24.348  0.00  0.00    +0.016 C 
ATOM     18  C   UNL     1      33.791  -7.635 -23.832  0.00  0.00    +0.057 C 
ATOM     19  C   UNL     1      34.933  -8.171 -24.427  0.00  0.00    +0.012 C 
BRANCH  15  20
ATOM     20  C   UNL     1      31.664  -7.935 -22.506  0.00  0.00    +0.233 C 
BRANCH  20  21
ATOM     21  O   UNL     1      31.764  -8.108 -21.099  0.00  0.00    -0.469 OA
BRANCH  21  23
ATOM     22  N   UNL     1      32.979  -6.036 -18.357  0.00  0.00    -0.239 NA
ATOM     23  C   UNL     1      32.044  -6.990 -20.358  0.00  0.00    +0.158 C 
ATOM     24  C   UNL     1      31.694  -5.735 -20.822  0.00  0.00    +0.040 C 
ATOM     25  C   UNL     1      32.676  -7.098 -19.138  0.00  0.00    +0.136 C 
ATOM     26  C   UNL     1      31.988  -4.619 -20.047  0.00  0.00    +0.024 C 
ATOM     27  C   UNL     1      32.626  -4.821 -18.834  0.00  0.00    +0.099 C 
ENDBRANCH  21  23
ENDBRANCH  20  21
ENDBRANCH  15  20
ENDBRANCH   5  14
BRANCH   6  28
ATOM     28  C   UNL     1      35.596 -18.483 -21.076  0.00  0.00    +0.033 C 
ATOM     29  C   UNL     1      36.911 -18.671 -20.291  0.00  0.00    +0.006 C 
ATOM     30  C   UNL     1      35.700 -19.211 -22.434  0.00  0.00    +0.006 C 
ATOM     31  C   UNL     1      34.480 -19.182 -20.269  0.00  0.00    +0.006 C 
ENDBRANCH   6  28
TORSDOF 5
ENDMDL
MODEL 7
REMARK VINA RESULT:     -10.1      4.962      7.761
REMARK  Name = 5326866
REMARK  5 active torsions:
REMARK  status: ('A' for Active; 'I' for Inactive)
REMARK    1  A    between atoms: N_5  and  C_14
REMARK    2  A    between atoms: C_6  and  C_28
REMARK    3  A    between atoms: C_15  and  C_20
REMARK    4  A    between atoms: C_20  and  O_21
REMARK    5  A    between atoms: O_21  and  C_23
REMARK                            x       y       z     vdW  Elec       q    Type
REMARK                         _______ _______ _______ _____ _____    ______ ____
ROOT
ATOM      1  O   UNL     1      34.557 -12.330 -21.253  0.00  0.00    -0.252 OA
ATOM      2  N   UNL     1      35.199 -16.346 -20.147  0.00  0.00    -0.239 N 
ATOM      3  N   UNL     1      35.001 -15.083 -20.562  0.00  0.00    -0.166 NA
ATOM      4  N   UNL     1      34.945 -14.101 -22.738  0.00  0.00    -0.252 N 
ATOM      5  N   UNL     1      34.612 -11.972 -23.562  0.00  0.00    -0.268 N 
ATOM      6  C   UNL     1      35.397 -17.158 -21.175  0.00  0.00    +0.045 C 
ATOM      7  C   UNL     1      35.343 -16.499 -22.321  0.00  0.00    +0.048 C 
ATOM      8  C   UNL     1      35.090 -15.182 -21.891  0.00  0.00    +0.154 C 
ATOM      9  C   UNL     1      34.690 -12.752 -22.397  0.00  0.00    +0.309 C 
ATOM     10  H   UNL     1      35.198 -16.629 -19.204  0.00  0.00    +0.174 HD
ATOM     11  H   UNL     1      35.028 -14.294 -23.700  0.00  0.00    +0.158 HD
ATOM     12  H   UNL     1      34.740 -12.452 -24.412  0.00  0.00    +0.156 HD
ENDROOT
BRANCH   5  14
ATOM     13 CL   UNL     1      33.645  -6.159 -24.023  0.00  0.00    -0.082 Cl
ATOM     14  C   UNL     1      34.373 -10.581 -23.666  0.00  0.00    +0.051 C 
ATOM     15  C   UNL     1      33.055  -8.656 -23.108  0.00  0.00    +0.033 C 
ATOM     16  C   UNL     1      33.290 -10.028 -23.004  0.00  0.00    +0.015 C 
ATOM     17  C   UNL     1      35.227  -9.803 -24.431  0.00  0.00    +0.016 C 
ATOM     18  C   UNL     1      33.905  -7.858 -23.873  0.00  0.00    +0.057 C 
ATOM     19  C   UNL     1      34.991  -8.432 -24.534  0.00  0.00    +0.012 C 
BRANCH  15  20
ATOM     20  C   UNL     1      31.880  -8.082 -22.383  0.00  0.00    +0.233 C 
BRANCH  20  21
ATOM     21  O   UNL     1      31.163  -9.130 -21.746  0.00  0.00    -0.469 OA
BRANCH  21  23
ATOM     22  N   UNL     1      32.565  -8.687 -18.411  0.00  0.00    -0.239 NA
ATOM     23  C   UNL     1      31.483  -9.393 -20.440  0.00  0.00    +0.158 C 
ATOM     24  C   UNL     1      31.076 -10.572 -19.842  0.00  0.00    +0.040 C 
ATOM     25  C   UNL     1      32.215  -8.489 -19.702  0.00  0.00    +0.136 C 
ATOM     26  C   UNL     1      31.417 -10.813 -18.516  0.00  0.00    +0.024 C 
ATOM     27  C   UNL     1      32.156  -9.847 -17.850  0.00  0.00    +0.099 C 
ENDBRANCH  21  23
ENDBRANCH  20  21
ENDBRANCH  15  20
ENDBRANCH   5  14
BRANCH   6  28
ATOM     28  C   UNL     1      35.648 -18.663 -20.916  0.00  0.00    +0.033 C 
ATOM     29  C   UNL     1      36.991 -18.852 -20.178  0.00  0.00    +0.006 C 
ATOM     30  C   UNL     1      35.689 -19.427 -22.258  0.00  0.00    +0.006 C 
ATOM     31  C   UNL     1      34.555 -19.326 -20.049  0.00  0.00    +0.006 C 
ENDBRANCH   6  28
TORSDOF 5
ENDMDL
MODEL 8
REMARK VINA RESULT:      -9.9      1.212      1.583
REMARK  Name = 5326866
REMARK  5 active torsions:
REMARK  status: ('A' for Active; 'I' for Inactive)
REMARK    1  A    between atoms: N_5  and  C_14
REMARK    2  A    between atoms: C_6  and  C_28
REMARK    3  A    between atoms: C_15  and  C_20
REMARK    4  A    between atoms: C_20  and  O_21
REMARK    5  A    between atoms: O_21  and  C_23
REMARK                            x       y       z     vdW  Elec       q    Type
REMARK                         _______ _______ _______ _____ _____    ______ ____
ROOT
ATOM      1  O   UNL     1      37.204 -19.346 -18.714  0.00  0.00    -0.252 OA
ATOM      2  N   UNL     1      37.866 -21.946 -15.465  0.00  0.00    -0.239 N 
ATOM      3  N   UNL     1      37.596 -21.142 -16.508  0.00  0.00    -0.166 NA
ATOM      4  N   UNL     1      35.661 -20.902 -17.886  0.00  0.00    -0.252 N 
ATOM      5  N   UNL     1      35.087 -19.569 -19.680  0.00  0.00    -0.268 N 
ATOM      6  C   UNL     1      36.836 -22.733 -15.192  0.00  0.00    +0.045 C 
ATOM      7  C   UNL     1      35.829 -22.507 -16.021  0.00  0.00    +0.048 C 
ATOM      8  C   UNL     1      36.350 -21.489 -16.844  0.00  0.00    +0.154 C 
ATOM      9  C   UNL     1      36.101 -19.879 -18.759  0.00  0.00    +0.309 C 
ATOM     10  H   UNL     1      38.718 -21.950 -14.970  0.00  0.00    +0.174 HD
ATOM     11  H   UNL     1      34.747 -21.237 -18.040  0.00  0.00    +0.158 HD
ATOM     12  H   UNL     1      34.252 -20.083 -19.591  0.00  0.00    +0.156 HD
ENDROOT
BRANCH   5  14
ATOM     13 CL   UNL     1      35.206 -15.587 -24.047  0.00  0.00    -0.082 Cl
ATOM     14  C   UNL     1      35.117 -18.609 -20.718  0.00  0.00    +0.051 C 
ATOM     15  C   UNL     1      35.257 -16.319 -21.423  0.00  0.00    +0.033 C 
ATOM     16  C   UNL     1      35.229 -17.266 -20.398  0.00  0.00    +0.015 C 
ATOM     17  C   UNL     1      35.031 -19.032 -22.034  0.00  0.00    +0.016 C 
ATOM     18  C   UNL     1      35.173 -16.729 -22.754  0.00  0.00    +0.057 C 
ATOM     19  C   UNL     1      35.059 -18.086 -23.059  0.00  0.00    +0.012 C 
BRANCH  15  20
ATOM     20  C   UNL     1      35.380 -14.876 -21.053  0.00  0.00    +0.233 C 
BRANCH  20  21
ATOM     21  O   UNL     1      34.216 -14.473 -20.345  0.00  0.00    -0.469 OA
BRANCH  21  23
ATOM     22  N   UNL     1      31.846 -11.708 -20.492  0.00  0.00    -0.239 NA
ATOM     23  C   UNL     1      33.568 -13.357 -20.806  0.00  0.00    +0.158 C 
ATOM     24  C   UNL     1      33.949 -12.768 -21.998  0.00  0.00    +0.040 C 
ATOM     25  C   UNL     1      32.527 -12.806 -20.092  0.00  0.00    +0.136 C 
ATOM     26  C   UNL     1      33.273 -11.637 -22.442  0.00  0.00    +0.024 C 
ATOM     27  C   UNL     1      32.238 -11.151 -21.660  0.00  0.00    +0.099 C 
ENDBRANCH  21  23
ENDBRANCH  20  21
ENDBRANCH  15  20
ENDBRANCH   5  14
BRANCH   6  28
ATOM     28  C   UNL     1      36.940 -23.742 -14.023  0.00  0.00    +0.033 C 
ATOM     29  C   UNL     1      36.525 -25.149 -14.505  0.00  0.00    +0.006 C 
ATOM     30  C   UNL     1      36.015 -23.303 -12.866  0.00  0.00    +0.006 C 
ATOM     31  C   UNL     1      38.366 -23.862 -13.443  0.00  0.00    +0.006 C 
ENDBRANCH   6  28
TORSDOF 5
ENDMDL
MODEL 9
REMARK VINA RESULT:      -9.9      3.619     11.977
REMARK  Name = 5326866
REMARK  5 active torsions:
REMARK  status: ('A' for Active; 'I' for Inactive)
REMARK    1  A    between atoms: N_5  and  C_14
REMARK    2  A    between atoms: C_6  and  C_28
REMARK    3  A    between atoms: C_15  and  C_20
REMARK    4  A    between atoms: C_20  and  O_21
REMARK    5  A    between atoms: O_21  and  C_23
REMARK                            x       y       z     vdW  Elec       q    Type
REMARK                         _______ _______ _______ _____ _____    ______ ____
ROOT
ATOM      1  O   UNL     1      33.736 -10.243 -23.680  0.00  0.00    -0.252 OA
ATOM      2  N   UNL     1      32.841  -6.338 -22.369  0.00  0.00    -0.239 N 
ATOM      3  N   UNL     1      33.105  -7.606 -22.730  0.00  0.00    -0.166 NA
ATOM      4  N   UNL     1      32.831  -9.687 -21.591  0.00  0.00    -0.252 N 
ATOM      5  N   UNL     1      33.240 -11.899 -22.106  0.00  0.00    -0.268 N 
ATOM      6  C   UNL     1      32.338  -6.288 -21.144  0.00  0.00    +0.045 C 
ATOM      7  C   UNL     1      32.235  -7.499 -20.620  0.00  0.00    +0.048 C 
ATOM      8  C   UNL     1      32.734  -8.311 -21.658  0.00  0.00    +0.154 C 
ATOM      9  C   UNL     1      33.315 -10.578 -22.578  0.00  0.00    +0.309 C 
ATOM     10  H   UNL     1      33.001  -5.552 -22.939  0.00  0.00    +0.174 HD
ATOM     11  H   UNL     1      32.525 -10.099 -20.750  0.00  0.00    +0.158 HD
ATOM     12  H   UNL     1      32.878 -12.012 -21.197  0.00  0.00    +0.156 HD
ENDROOT
BRANCH   5  14
ATOM     13 CL   UNL     1      34.813 -16.844 -24.936  0.00  0.00    -0.082 Cl
ATOM     14  C   UNL     1      33.620 -13.086 -22.774  0.00  0.00    +0.051 C 
ATOM     15  C   UNL     1      34.749 -15.203 -22.761  0.00  0.00    +0.033 C 
ATOM     16  C   UNL     1      34.373 -14.033 -22.100  0.00  0.00    +0.015 C 
ATOM     17  C   UNL     1      33.235 -13.274 -24.092  0.00  0.00    +0.016 C 
ATOM     18  C   UNL     1      34.367 -15.409 -24.087  0.00  0.00    +0.057 C 
ATOM     19  C   UNL     1      33.610 -14.443 -24.752  0.00  0.00    +0.012 C 
BRANCH  15  20
ATOM     20  C   UNL     1      35.559 -16.212 -22.013  0.00  0.00    +0.233 C 
BRANCH  20  21
ATOM     21  O   UNL     1      34.830 -17.428 -21.925  0.00  0.00    -0.469 OA
BRANCH  21  23
ATOM     22  N   UNL     1      37.053 -19.194 -19.639  0.00  0.00    -0.239 NA
ATOM     23  C   UNL     1      35.262 -18.341 -20.999  0.00  0.00    +0.158 C 
ATOM     24  C   UNL     1      34.396 -19.300 -20.503  0.00  0.00    +0.040 C 
ATOM     25  C   UNL     1      36.563 -18.322 -20.549  0.00  0.00    +0.136 C 
ATOM     26  C   UNL     1      34.862 -20.216 -19.566  0.00  0.00    +0.024 C 
ATOM     27  C   UNL     1      36.187 -20.121 -19.170  0.00  0.00    +0.099 C 
ENDBRANCH  21  23
ENDBRANCH  20  21
ENDBRANCH  15  20
ENDBRANCH   5  14
BRANCH   6  28
ATOM     28  C   UNL     1      31.964  -4.916 -20.533  0.00  0.00    +0.033 C 
ATOM     29  C   UNL     1      32.501  -4.822 -19.088  0.00  0.00    +0.006 C 
ATOM     30  C   UNL     1      30.429  -4.747 -20.521  0.00  0.00    +0.006 C 
ATOM     31  C   UNL     1      32.548  -3.719 -21.314  0.00  0.00    +0.006 C 
ENDBRANCH   6  28
TORSDOF 5
ENDMDL
