MODEL 1
REMARK VINA RESULT:     -12.6      0.000      0.000
REMARK  Name = 135565042
REMARK  5 active torsions:
REMARK  status: ('A' for Active; 'I' for Inactive)
REMARK    1  A    between atoms: C_3  and  O_21
REMARK    2  A    between atoms: C_6  and  C_7
REMARK    3  A    between atoms: C_8  and  O_19
REMARK    4  A    between atoms: C_10  and  C_15
REMARK    5  A    between atoms: O_21  and  C_27
REMARK                            x       y       z     vdW  Elec       q    Type
REMARK                         _______ _______ _______ _____ _____    ______ ____
ROOT
ATOM      1  N   UNL     1      35.536 -22.337 -16.324  0.00  0.00    -0.110 NA
ATOM      2  N   UNL     1      35.551 -21.543 -17.428  0.00  0.00    -0.145 NA
ATOM      3  C   UNL     1      34.369 -22.887 -15.925  0.00  0.00    +0.244 C 
ATOM      4  C   UNL     1      33.178 -22.681 -16.589  0.00  0.00    +0.061 C 
ATOM      5  C   UNL     1      33.192 -21.873 -17.713  0.00  0.00    +0.026 C 
ATOM      6  C   UNL     1      34.399 -21.324 -18.097  0.00  0.00    +0.106 C 
ENDROOT
BRANCH   6   7
ATOM      7  C   UNL     1      34.508 -20.473 -19.256  0.00  0.00    +0.053 C 
ATOM      8  C   UNL     1      35.755 -20.119 -19.770  0.00  0.00    +0.135 C 
ATOM      9  C   UNL     1      33.344 -20.003 -19.865  0.00  0.00    +0.005 C 
ATOM     10  C   UNL     1      34.675 -18.825 -21.500  0.00  0.00    +0.006 C 
ATOM     11  C   UNL     1      35.839 -19.296 -20.892  0.00  0.00    +0.037 C 
ATOM     12  C   UNL     1      33.427 -19.179 -20.986  0.00  0.00    +0.000 C 
BRANCH  10  15
ATOM     13  N   UNL     1      35.280 -16.298 -23.953  0.00  0.00    -0.235 N 
ATOM     14  N   UNL     1      34.544 -17.091 -24.750  0.00  0.00    -0.180 NA
ATOM     15  C   UNL     1      34.762 -17.978 -22.656  0.00  0.00    +0.037 C 
ATOM     16  C   UNL     1      35.440 -16.784 -22.689  0.00  0.00    +0.081 C 
ATOM     17  C   UNL     1      34.230 -18.116 -23.953  0.00  0.00    +0.119 C 
ATOM     18  H   UNL     1      35.668 -15.444 -24.255  0.00  0.00    +0.174 HD
ENDBRANCH  10  15
BRANCH   8  19
ATOM     19  O   UNL     1      36.909 -20.565 -19.195  0.00  0.00    -0.505 OA
ATOM     20  H   UNL     1      37.540 -19.951 -18.876  0.00  0.00    +0.292 HD
ENDBRANCH   8  19
ENDBRANCH   6   7
BRANCH   3  21
ATOM     21  O   UNL     1      34.398 -23.680 -14.810  0.00  0.00    -0.463 OA
BRANCH  21  27
ATOM     22  N   UNL     1      37.365 -24.806 -12.020  0.00  0.00    +0.389 N 
ATOM     23  C   UNL     1      37.653 -25.034 -13.443  0.00  0.00    -0.042 C 
ATOM     24  C   UNL     1      36.474 -23.702 -11.638  0.00  0.00    -0.042 C 
ATOM     25  C   UNL     1      36.391 -24.915 -14.319  0.00  0.00    +0.024 C 
ATOM     26  C   UNL     1      35.236 -23.608 -12.551  0.00  0.00    +0.024 C 
ATOM     27  C   UNL     1      35.592 -23.649 -14.033  0.00  0.00    +0.164 C 
ATOM     28  C   UNL     1      37.218 -22.356 -11.577  0.00  0.00    -0.021 C 
ATOM     29  C   UNL     1      38.174 -26.483 -13.539  0.00  0.00    -0.021 C 
ATOM     30  C   UNL     1      38.774 -24.113 -13.960  0.00  0.00    -0.021 C 
ATOM     31  C   UNL     1      35.998 -24.025 -10.206  0.00  0.00    -0.021 C 
ATOM     32  H   UNL     1      38.260 -24.641 -11.558  0.00  0.00    -0.084 HD
ATOM     33  H   UNL     1      36.852 -25.641 -11.740  0.00  0.00    -0.084 HD
ENDBRANCH  21  27
ENDBRANCH   3  21
TORSDOF 5
ENDMDL
MODEL 2
REMARK VINA RESULT:     -12.2      1.156      1.584
REMARK  Name = 135565042
REMARK  5 active torsions:
REMARK  status: ('A' for Active; 'I' for Inactive)
REMARK    1  A    between atoms: C_3  and  O_21
REMARK    2  A    between atoms: C_6  and  C_7
REMARK    3  A    between atoms: C_8  and  O_19
REMARK    4  A    between atoms: C_10  and  C_15
REMARK    5  A    between atoms: O_21  and  C_27
REMARK                            x       y       z     vdW  Elec       q    Type
REMARK                         _______ _______ _______ _____ _____    ______ ____
ROOT
ATOM      1  N   UNL     1      34.016 -22.729 -17.096  0.00  0.00    -0.110 NA
ATOM      2  N   UNL     1      34.040 -21.878 -18.157  0.00  0.00    -0.145 NA
ATOM      3  C   UNL     1      35.052 -22.729 -16.229  0.00  0.00    +0.244 C 
ATOM      4  C   UNL     1      36.144 -21.898 -16.367  0.00  0.00    +0.061 C 
ATOM      5  C   UNL     1      36.169 -21.031 -17.446  0.00  0.00    +0.026 C 
ATOM      6  C   UNL     1      35.098 -21.054 -18.316  0.00  0.00    +0.106 C 
ENDROOT
BRANCH   6   7
ATOM      7  C   UNL     1      35.038 -20.185 -19.465  0.00  0.00    +0.053 C 
ATOM      8  C   UNL     1      33.815 -19.848 -20.045  0.00  0.00    +0.135 C 
ATOM      9  C   UNL     1      36.224 -19.679 -19.997  0.00  0.00    +0.005 C 
ATOM     10  C   UNL     1      34.964 -18.499 -21.687  0.00  0.00    +0.006 C 
ATOM     11  C   UNL     1      33.778 -19.005 -21.155  0.00  0.00    +0.037 C 
ATOM     12  C   UNL     1      36.188 -18.837 -21.107  0.00  0.00    +0.000 C 
BRANCH  10  15
ATOM     13  N   UNL     1      35.243 -15.894 -24.116  0.00  0.00    -0.235 N 
ATOM     14  N   UNL     1      34.539 -16.734 -24.894  0.00  0.00    -0.180 NA
ATOM     15  C   UNL     1      34.926 -17.630 -22.829  0.00  0.00    +0.037 C 
ATOM     16  C   UNL     1      35.502 -16.384 -22.870  0.00  0.00    +0.081 C 
ATOM     17  C   UNL     1      34.349 -17.793 -24.103  0.00  0.00    +0.119 C 
ATOM     18  H   UNL     1      35.545 -15.007 -24.419  0.00  0.00    +0.174 HD
ENDBRANCH  10  15
BRANCH   8  19
ATOM     19  O   UNL     1      32.640 -20.327 -19.545  0.00  0.00    -0.505 OA
ATOM     20  H   UNL     1      32.154 -20.968 -20.026  0.00  0.00    +0.292 HD
ENDBRANCH   8  19
ENDBRANCH   6   7
BRANCH   3  21
ATOM     21  O   UNL     1      34.988 -23.600 -15.175  0.00  0.00    -0.463 OA
BRANCH  21  27
ATOM     22  N   UNL     1      37.608 -24.793 -12.083  0.00  0.00    +0.389 N 
ATOM     23  C   UNL     1      38.037 -25.039 -13.466  0.00  0.00    -0.042 C 
ATOM     24  C   UNL     1      36.715 -23.661 -11.802  0.00  0.00    -0.042 C 
ATOM     25  C   UNL     1      36.880 -24.889 -14.472  0.00  0.00    +0.024 C 
ATOM     26  C   UNL     1      35.584 -23.537 -12.841  0.00  0.00    +0.024 C 
ATOM     27  C   UNL     1      36.093 -23.599 -14.276  0.00  0.00    +0.164 C 
ATOM     28  C   UNL     1      37.488 -22.336 -11.667  0.00  0.00    -0.021 C 
ATOM     29  C   UNL     1      38.522 -26.504 -13.501  0.00  0.00    -0.021 C 
ATOM     30  C   UNL     1      39.234 -24.156 -13.865  0.00  0.00    -0.021 C 
ATOM     31  C   UNL     1      36.080 -23.959 -10.427  0.00  0.00    -0.021 C 
ATOM     32  H   UNL     1      38.453 -24.651 -11.529  0.00  0.00    -0.084 HD
ATOM     33  H   UNL     1      37.043 -25.611 -11.855  0.00  0.00    -0.084 HD
ENDBRANCH  21  27
ENDBRANCH   3  21
TORSDOF 5
ENDMDL
MODEL 3
REMARK VINA RESULT:     -11.5      1.366      2.631
REMARK  Name = 135565042
REMARK  5 active torsions:
REMARK  status: ('A' for Active; 'I' for Inactive)
REMARK    1  A    between atoms: C_3  and  O_21
REMARK    2  A    between atoms: C_6  and  C_7
REMARK    3  A    between atoms: C_8  and  O_19
REMARK    4  A    between atoms: C_10  and  C_15
REMARK    5  A    between atoms: O_21  and  C_27
REMARK                            x       y       z     vdW  Elec       q    Type
REMARK                         _______ _______ _______ _____ _____    ______ ____
ROOT
ATOM      1  N   UNL     1      34.124 -23.488 -16.560  0.00  0.00    -0.110 NA
ATOM      2  N   UNL     1      34.186 -22.615 -17.601  0.00  0.00    -0.145 NA
ATOM      3  C   UNL     1      34.954 -23.319 -15.509  0.00  0.00    +0.244 C 
ATOM      4  C   UNL     1      35.874 -22.293 -15.437  0.00  0.00    +0.061 C 
ATOM      5  C   UNL     1      35.938 -21.403 -16.496  0.00  0.00    +0.026 C 
ATOM      6  C   UNL     1      35.077 -21.601 -17.557  0.00  0.00    +0.106 C 
ENDROOT
BRANCH   6   7
ATOM      7  C   UNL     1      35.072 -20.723 -18.701  0.00  0.00    +0.053 C 
ATOM      8  C   UNL     1      33.874 -20.273 -19.253  0.00  0.00    +0.135 C 
ATOM      9  C   UNL     1      36.289 -20.324 -19.256  0.00  0.00    +0.005 C 
ATOM     10  C   UNL     1      35.106 -19.025 -20.914  0.00  0.00    +0.006 C 
ATOM     11  C   UNL     1      33.890 -19.424 -20.359  0.00  0.00    +0.037 C 
ATOM     12  C   UNL     1      36.306 -19.476 -20.362  0.00  0.00    +0.000 C 
BRANCH  10  15
ATOM     13  N   UNL     1      35.555 -16.433 -23.332  0.00  0.00    -0.235 N 
ATOM     14  N   UNL     1      34.790 -17.218 -24.111  0.00  0.00    -0.180 NA
ATOM     15  C   UNL     1      35.124 -18.150 -22.052  0.00  0.00    +0.037 C 
ATOM     16  C   UNL     1      35.784 -16.946 -22.090  0.00  0.00    +0.081 C 
ATOM     17  C   UNL     1      34.529 -18.265 -23.323  0.00  0.00    +0.119 C 
ATOM     18  H   UNL     1      35.916 -15.567 -23.632  0.00  0.00    +0.174 HD
ENDBRANCH  10  15
BRANCH   8  19
ATOM     19  O   UNL     1      32.670 -20.647 -18.731  0.00  0.00    -0.505 OA
ATOM     20  H   UNL     1      31.959 -20.862 -19.301  0.00  0.00    +0.292 HD
ENDBRANCH   8  19
ENDBRANCH   6   7
BRANCH   3  21
ATOM     21  O   UNL     1      34.858 -24.219 -14.482  0.00  0.00    -0.463 OA
BRANCH  21  27
ATOM     22  N   UNL     1      38.686 -23.654 -12.785  0.00  0.00    +0.389 N 
ATOM     23  C   UNL     1      37.523 -23.467 -11.908  0.00  0.00    -0.042 C 
ATOM     24  C   UNL     1      38.588 -24.589 -13.914  0.00  0.00    -0.042 C 
ATOM     25  C   UNL     1      36.207 -23.355 -12.700  0.00  0.00    +0.024 C 
ATOM     26  C   UNL     1      37.250 -24.457 -14.667  0.00  0.00    +0.024 C 
ATOM     27  C   UNL     1      36.045 -24.464 -13.733  0.00  0.00    +0.164 C 
ATOM     28  C   UNL     1      38.835 -26.045 -13.480  0.00  0.00    -0.021 C 
ATOM     29  C   UNL     1      37.761 -22.130 -11.175  0.00  0.00    -0.021 C 
ATOM     30  C   UNL     1      37.429 -24.564 -10.831  0.00  0.00    -0.021 C 
ATOM     31  C   UNL     1      39.728 -24.201 -14.880  0.00  0.00    -0.021 C 
ATOM     32  H   UNL     1      39.455 -23.977 -12.197  0.00  0.00    -0.084 HD
ATOM     33  H   UNL     1      38.802 -22.744 -13.232  0.00  0.00    -0.084 HD
ENDBRANCH  21  27
ENDBRANCH   3  21
TORSDOF 5
ENDMDL
MODEL 4
REMARK VINA RESULT:     -11.0      1.810      2.909
REMARK  Name = 135565042
REMARK  5 active torsions:
REMARK  status: ('A' for Active; 'I' for Inactive)
REMARK    1  A    between atoms: C_3  and  O_21
REMARK    2  A    between atoms: C_6  and  C_7
REMARK    3  A    between atoms: C_8  and  O_19
REMARK    4  A    between atoms: C_10  and  C_15
REMARK    5  A    between atoms: O_21  and  C_27
REMARK                            x       y       z     vdW  Elec       q    Type
REMARK                         _______ _______ _______ _____ _____    ______ ____
ROOT
ATOM      1  N   UNL     1      37.775 -19.976 -16.793  0.00  0.00    -0.110 NA
ATOM      2  N   UNL     1      37.326 -19.406 -17.943  0.00  0.00    -0.145 NA
ATOM      3  C   UNL     1      37.217 -21.130 -16.368  0.00  0.00    +0.244 C 
ATOM      4  C   UNL     1      36.203 -21.768 -17.052  0.00  0.00    +0.061 C 
ATOM      5  C   UNL     1      35.746 -21.190 -18.224  0.00  0.00    +0.026 C 
ATOM      6  C   UNL     1      36.334 -20.010 -18.632  0.00  0.00    +0.106 C 
ENDROOT
BRANCH   6   7
ATOM      7  C   UNL     1      35.923 -19.339 -19.841  0.00  0.00    +0.053 C 
ATOM      8  C   UNL     1      34.621 -19.464 -20.322  0.00  0.00    +0.135 C 
ATOM      9  C   UNL     1      36.849 -18.556 -20.531  0.00  0.00    +0.005 C 
ATOM     10  C   UNL     1      35.169 -18.025 -22.183  0.00  0.00    +0.006 C 
ATOM     11  C   UNL     1      34.243 -18.808 -21.493  0.00  0.00    +0.037 C 
ATOM     12  C   UNL     1      36.473 -17.900 -21.702  0.00  0.00    +0.000 C 
BRANCH  10  15
ATOM     13  N   UNL     1      34.573 -15.796 -24.912  0.00  0.00    -0.235 N 
ATOM     14  N   UNL     1      33.872 -16.825 -25.418  0.00  0.00    -0.180 NA
ATOM     15  C   UNL     1      34.780 -17.348 -23.388  0.00  0.00    +0.037 C 
ATOM     16  C   UNL     1      35.137 -16.059 -23.698  0.00  0.00    +0.081 C 
ATOM     17  C   UNL     1      34.001 -17.770 -24.483  0.00  0.00    +0.119 C 
ATOM     18  H   UNL     1      34.671 -14.933 -25.375  0.00  0.00    +0.174 HD
ENDBRANCH  10  15
BRANCH   8  19
ATOM     19  O   UNL     1      33.695 -20.223 -19.667  0.00  0.00    -0.505 OA
ATOM     20  H   UNL     1      33.346 -19.931 -18.848  0.00  0.00    +0.292 HD
ENDBRANCH   8  19
ENDBRANCH   6   7
BRANCH   3  21
ATOM     21  O   UNL     1      37.699 -21.670 -15.206  0.00  0.00    -0.463 OA
BRANCH  21  27
ATOM     22  N   UNL     1      36.607 -24.857 -12.656  0.00  0.00    +0.389 N 
ATOM     23  C   UNL     1      35.695 -23.708 -12.732  0.00  0.00    -0.042 C 
ATOM     24  C   UNL     1      37.437 -25.189 -13.822  0.00  0.00    -0.042 C 
ATOM     25  C   UNL     1      36.351 -22.486 -13.402  0.00  0.00    +0.024 C 
ATOM     26  C   UNL     1      38.058 -23.937 -14.473  0.00  0.00    +0.024 C 
ATOM     27  C   UNL     1      37.036 -22.833 -14.718  0.00  0.00    +0.164 C 
ATOM     28  C   UNL     1      36.667 -26.025 -14.860  0.00  0.00    -0.021 C 
ATOM     29  C   UNL     1      35.364 -23.338 -11.270  0.00  0.00    -0.021 C 
ATOM     30  C   UNL     1      34.366 -24.070 -13.420  0.00  0.00    -0.021 C 
ATOM     31  C   UNL     1      38.581 -26.073 -13.284  0.00  0.00    -0.021 C 
ATOM     32  H   UNL     1      36.037 -25.678 -12.453  0.00  0.00    -0.084 HD
ATOM     33  H   UNL     1      37.285 -24.583 -11.945  0.00  0.00    -0.084 HD
ENDBRANCH  21  27
ENDBRANCH   3  21
TORSDOF 5
ENDMDL
MODEL 5
REMARK VINA RESULT:     -10.9      0.884      2.144
REMARK  Name = 135565042
REMARK  5 active torsions:
REMARK  status: ('A' for Active; 'I' for Inactive)
REMARK    1  A    between atoms: C_3  and  O_21
REMARK    2  A    between atoms: C_6  and  C_7
REMARK    3  A    between atoms: C_8  and  O_19
REMARK    4  A    between atoms: C_10  and  C_15
REMARK    5  A    between atoms: O_21  and  C_27
REMARK                            x       y       z     vdW  Elec       q    Type
REMARK                         _______ _______ _______ _____ _____    ______ ____
ROOT
ATOM      1  N   UNL     1      35.581 -22.550 -15.598  0.00  0.00    -0.110 NA
ATOM      2  N   UNL     1      35.627 -21.736 -16.687  0.00  0.00    -0.145 NA
ATOM      3  C   UNL     1      34.483 -23.308 -15.389  0.00  0.00    +0.244 C 
ATOM      4  C   UNL     1      33.393 -23.297 -16.235  0.00  0.00    +0.061 C 
ATOM      5  C   UNL     1      33.440 -22.469 -17.343  0.00  0.00    +0.026 C 
ATOM      6  C   UNL     1      34.574 -21.705 -17.531  0.00  0.00    +0.106 C 
ENDROOT
BRANCH   6   7
ATOM      7  C   UNL     1      34.710 -20.817 -18.659  0.00  0.00    +0.053 C 
ATOM      8  C   UNL     1      35.969 -20.438 -19.124  0.00  0.00    +0.135 C 
ATOM      9  C   UNL     1      33.561 -20.336 -19.286  0.00  0.00    +0.005 C 
ATOM     10  C   UNL     1      34.931 -19.097 -20.843  0.00  0.00    +0.006 C 
ATOM     11  C   UNL     1      36.080 -19.578 -20.216  0.00  0.00    +0.037 C 
ATOM     12  C   UNL     1      33.671 -19.475 -20.378  0.00  0.00    +0.000 C 
BRANCH  10  15
ATOM     13  N   UNL     1      35.609 -16.501 -23.204  0.00  0.00    -0.235 N 
ATOM     14  N   UNL     1      34.861 -17.249 -24.032  0.00  0.00    -0.180 NA
ATOM     15  C   UNL     1      35.044 -18.212 -21.969  0.00  0.00    +0.037 C 
ATOM     16  C   UNL     1      35.749 -17.034 -21.956  0.00  0.00    +0.081 C 
ATOM     17  C   UNL     1      34.519 -18.293 -23.273  0.00  0.00    +0.119 C 
ATOM     18  H   UNL     1      36.018 -15.647 -23.473  0.00  0.00    +0.174 HD
ENDBRANCH  10  15
BRANCH   8  19
ATOM     19  O   UNL     1      37.109 -20.894 -18.529  0.00  0.00    -0.505 OA
ATOM     20  H   UNL     1      37.786 -20.291 -18.291  0.00  0.00    +0.292 HD
ENDBRANCH   8  19
ENDBRANCH   6   7
BRANCH   3  21
ATOM     21  O   UNL     1      34.477 -24.113 -14.283  0.00  0.00    -0.463 OA
BRANCH  21  27
ATOM     22  N   UNL     1      38.424 -23.510 -12.902  0.00  0.00    +0.389 N 
ATOM     23  C   UNL     1      37.342 -23.438 -11.911  0.00  0.00    -0.042 C 
ATOM     24  C   UNL     1      38.254 -24.364 -14.086  0.00  0.00    -0.042 C 
ATOM     25  C   UNL     1      35.954 -23.326 -12.570  0.00  0.00    +0.024 C 
ATOM     26  C   UNL     1      36.848 -24.234 -14.702  0.00  0.00    +0.024 C 
ATOM     27  C   UNL     1      35.737 -24.362 -13.666  0.00  0.00    +0.164 C 
ATOM     28  C   UNL     1      38.594 -25.835 -13.790  0.00  0.00    -0.021 C 
ATOM     29  C   UNL     1      37.599 -22.150 -11.102  0.00  0.00    -0.021 C 
ATOM     30  C   UNL     1      37.389 -24.614 -10.917  0.00  0.00    -0.021 C 
ATOM     31  C   UNL     1      39.284 -23.857 -15.118  0.00  0.00    -0.021 C 
ATOM     32  H   UNL     1      39.256 -23.842 -12.412  0.00  0.00    -0.084 HD
ATOM     33  H   UNL     1      38.465 -22.567 -13.286  0.00  0.00    -0.084 HD
ENDBRANCH  21  27
ENDBRANCH   3  21
TORSDOF 5
ENDMDL
MODEL 6
REMARK VINA RESULT:     -10.3      6.434     13.755
REMARK  Name = 135565042
REMARK  5 active torsions:
REMARK  status: ('A' for Active; 'I' for Inactive)
REMARK    1  A    between atoms: C_3  and  O_21
REMARK    2  A    between atoms: C_6  and  C_7
REMARK    3  A    between atoms: C_8  and  O_19
REMARK    4  A    between atoms: C_10  and  C_15
REMARK    5  A    between atoms: O_21  and  C_27
REMARK                            x       y       z     vdW  Elec       q    Type
REMARK                         _______ _______ _______ _____ _____    ______ ____
ROOT
ATOM      1  N   UNL     1      34.598 -11.932 -23.112  0.00  0.00    -0.110 NA
ATOM      2  N   UNL     1      34.883 -13.103 -22.482  0.00  0.00    -0.145 NA
ATOM      3  C   UNL     1      33.967 -11.964 -24.306  0.00  0.00    +0.244 C 
ATOM      4  C   UNL     1      33.594 -13.139 -24.926  0.00  0.00    +0.061 C 
ATOM      5  C   UNL     1      33.884 -14.331 -24.285  0.00  0.00    +0.026 C 
ATOM      6  C   UNL     1      34.529 -14.268 -23.066  0.00  0.00    +0.106 C 
ENDROOT
BRANCH   6   7
ATOM      7  C   UNL     1      34.868 -15.459 -22.327  0.00  0.00    +0.053 C 
ATOM      8  C   UNL     1      34.990 -15.429 -20.938  0.00  0.00    +0.135 C 
ATOM      9  C   UNL     1      35.075 -16.652 -23.020  0.00  0.00    +0.005 C 
ATOM     10  C   UNL     1      35.525 -17.785 -20.934  0.00  0.00    +0.006 C 
ATOM     11  C   UNL     1      35.318 -16.591 -20.242  0.00  0.00    +0.037 C 
ATOM     12  C   UNL     1      35.404 -17.814 -22.324  0.00  0.00    +0.000 C 
BRANCH  10  15
ATOM     13  N   UNL     1      35.662 -20.888 -19.169  0.00  0.00    -0.235 N 
ATOM     14  N   UNL     1      36.985 -20.652 -19.136  0.00  0.00    -0.180 NA
ATOM     15  C   UNL     1      35.862 -18.982 -20.217  0.00  0.00    +0.037 C 
ATOM     16  C   UNL     1      34.945 -19.918 -19.805  0.00  0.00    +0.081 C 
ATOM     17  C   UNL     1      37.101 -19.487 -19.778  0.00  0.00    +0.119 C 
ATOM     18  H   UNL     1      35.249 -21.688 -18.770  0.00  0.00    +0.174 HD
ENDBRANCH  10  15
BRANCH   8  19
ATOM     19  O   UNL     1      34.793 -14.276 -20.236  0.00  0.00    -0.505 OA
ATOM     20  H   UNL     1      33.951 -14.089 -19.871  0.00  0.00    +0.292 HD
ENDBRANCH   8  19
ENDBRANCH   6   7
BRANCH   3  21
ATOM     21  O   UNL     1      33.698 -10.763 -24.906  0.00  0.00    -0.463 OA
BRANCH  21  27
ATOM     22  N   UNL     1      33.700  -6.712 -23.706  0.00  0.00    +0.389 N 
ATOM     23  C   UNL     1      32.755  -7.616 -23.036  0.00  0.00    -0.042 C 
ATOM     24  C   UNL     1      34.963  -7.255 -24.226  0.00  0.00    -0.042 C 
ATOM     25  C   UNL     1      32.601  -8.955 -23.781  0.00  0.00    +0.024 C 
ATOM     26  C   UNL     1      34.765  -8.603 -24.947  0.00  0.00    +0.024 C 
ATOM     27  C   UNL     1      33.940  -9.592 -24.132  0.00  0.00    +0.164 C 
ATOM     28  C   UNL     1      36.037  -7.368 -23.130  0.00  0.00    -0.021 C 
ATOM     29  C   UNL     1      31.393  -6.890 -23.058  0.00  0.00    -0.021 C 
ATOM     30  C   UNL     1      33.123  -7.844 -21.558  0.00  0.00    -0.021 C 
ATOM     31  C   UNL     1      35.469  -6.224 -25.256  0.00  0.00    -0.021 C 
ATOM     32  H   UNL     1      33.944  -5.984 -23.034  0.00  0.00    -0.084 HD
ATOM     33  H   UNL     1      33.200  -6.415 -24.543  0.00  0.00    -0.084 HD
ENDBRANCH  21  27
ENDBRANCH   3  21
TORSDOF 5
ENDMDL
