MODEL 1
REMARK VINA RESULT:     -12.2      0.000      0.000
REMARK  Name = 56842109
REMARK  7 active torsions:
REMARK  status: ('A' for Active; 'I' for Inactive)
REMARK    1  A    between atoms: C_1  and  C_24
REMARK    2  A    between atoms: C_3  and  C_9
REMARK    3  A    between atoms: C_5  and  O_22
REMARK    4  A    between atoms: N_8  and  C_11
REMARK    5  A    between atoms: C_11  and  C_12
REMARK    6  A    between atoms: C_15  and  C_21
REMARK    7  A    between atoms: C_24  and  C_29
REMARK                            x       y       z     vdW  Elec       q    Type
REMARK                         _______ _______ _______ _____ _____    ______ ____
ROOT
ATOM      1  C   UNL     1      35.699 -23.021 -13.399  0.00  0.00    -0.018 C 
ATOM      2  C   UNL     1      35.078 -22.711 -14.610  0.00  0.00    +0.003 C 
ATOM      3  C   UNL     1      33.707 -22.915 -14.763  0.00  0.00    +0.087 C 
ATOM      4  C   UNL     1      34.947 -23.534 -12.343  0.00  0.00    -0.001 C 
ATOM      5  C   UNL     1      32.955 -23.429 -13.706  0.00  0.00    +0.143 C 
ATOM      6  C   UNL     1      33.576 -23.738 -12.496  0.00  0.00    +0.037 C 
ENDROOT
BRANCH   3   9
ATOM      7  O   UNL     1      31.874 -22.282 -16.081  0.00  0.00    -0.270 OA
ATOM      8  N   UNL     1      33.897 -22.601 -17.170  0.00  0.00    -0.297 N 
ATOM      9  C   UNL     1      33.079 -22.583 -16.035  0.00  0.00    +0.249 C 
ATOM     10  H   UNL     1      34.843 -22.850 -17.058  0.00  0.00    +0.150 HD
BRANCH   8  11
ATOM     11  C   UNL     1      33.427 -22.273 -18.496  0.00  0.00    +0.117 C 
BRANCH  11  12
ATOM     12  C   UNL     1      34.238 -21.177 -19.125  0.00  0.00    -0.003 C 
ATOM     13  C   UNL     1      33.599 -20.141 -19.807  0.00  0.00    -0.003 C 
ATOM     14  C   UNL     1      35.629 -21.195 -19.028  0.00  0.00    -0.003 C 
ATOM     15  C   UNL     1      35.742 -19.140 -20.294  0.00  0.00    +0.071 C 
ATOM     16  C   UNL     1      34.351 -19.122 -20.391  0.00  0.00    +0.004 C 
ATOM     17  C   UNL     1      36.381 -20.176 -19.612  0.00  0.00    +0.004 C 
BRANCH  15  21
ATOM     18  F   UNL     1      36.208 -16.813 -20.447  0.00  0.00    -0.166 F 
ATOM     19  F   UNL     1      37.891 -18.167 -20.698  0.00  0.00    -0.166 F 
ATOM     20  F   UNL     1      36.412 -17.976 -22.273  0.00  0.00    -0.166 F 
ATOM     21  C   UNL     1      36.547 -18.049 -20.916  0.00  0.00    +0.419 C 
ENDBRANCH  15  21
ENDBRANCH  11  12
ENDBRANCH   8  11
ENDBRANCH   3   9
BRANCH   5  22
ATOM     22  O   UNL     1      31.614 -23.632 -13.836  0.00  0.00    -0.471 OA
ATOM     23  C   UNL     1      30.874 -23.851 -12.636  0.00  0.00    +0.252 C 
ENDBRANCH   5  22
BRANCH   1  24
ATOM     24  C   UNL     1      37.182 -22.799 -13.234  0.00  0.00    +0.080 C 
BRANCH  24  29
ATOM     25  O   UNL     1      37.566 -24.573 -14.826  0.00  0.00    -0.428 OA
ATOM     26  O   UNL     1      37.875 -25.141 -11.395  0.00  0.00    -0.271 OA
ATOM     27  O   UNL     1      36.678 -26.542 -15.576  0.00  0.00    -0.226 OA
ATOM     28  N   UNL     1      37.182 -26.187 -13.349  0.00  0.00    -0.218 N 
ATOM     29  C   UNL     1      37.982 -24.043 -13.557  0.00  0.00    +0.250 C 
ATOM     30  C   UNL     1      37.691 -25.166 -12.602  0.00  0.00    +0.271 C 
ATOM     31  C   UNL     1      37.099 -25.848 -14.661  0.00  0.00    +0.408 C 
ATOM     32  H   UNL     1      36.910 -27.060 -12.984  0.00  0.00    +0.161 HD
ENDBRANCH  24  29
ENDBRANCH   1  24
TORSDOF 7
ENDMDL
MODEL 2
REMARK VINA RESULT:     -12.1      5.380      9.579
REMARK  Name = 56842109
REMARK  7 active torsions:
REMARK  status: ('A' for Active; 'I' for Inactive)
REMARK    1  A    between atoms: C_1  and  C_24
REMARK    2  A    between atoms: C_3  and  C_9
REMARK    3  A    between atoms: C_5  and  O_22
REMARK    4  A    between atoms: N_8  and  C_11
REMARK    5  A    between atoms: C_11  and  C_12
REMARK    6  A    between atoms: C_15  and  C_21
REMARK    7  A    between atoms: C_24  and  C_29
REMARK                            x       y       z     vdW  Elec       q    Type
REMARK                         _______ _______ _______ _____ _____    ______ ____
ROOT
ATOM      1  C   UNL     1      35.082 -19.372 -20.457  0.00  0.00    -0.018 C 
ATOM      2  C   UNL     1      34.448 -20.361 -19.704  0.00  0.00    +0.003 C 
ATOM      3  C   UNL     1      35.155 -21.046 -18.716  0.00  0.00    +0.087 C 
ATOM      4  C   UNL     1      36.422 -19.068 -20.220  0.00  0.00    -0.001 C 
ATOM      5  C   UNL     1      36.495 -20.742 -18.479  0.00  0.00    +0.143 C 
ATOM      6  C   UNL     1      37.129 -19.753 -19.232  0.00  0.00    +0.037 C 
ENDROOT
BRANCH   3   9
ATOM      7  O   UNL     1      33.793 -22.943 -18.510  0.00  0.00    -0.270 OA
ATOM      8  N   UNL     1      34.645 -22.039 -16.552  0.00  0.00    -0.297 N 
ATOM      9  C   UNL     1      34.474 -22.074 -17.940  0.00  0.00    +0.249 C 
ATOM     10  H   UNL     1      35.198 -21.320 -16.169  0.00  0.00    +0.150 HD
BRANCH   8  11
ATOM     11  C   UNL     1      34.053 -23.001 -15.651  0.00  0.00    +0.117 C 
BRANCH  11  12
ATOM     12  C   UNL     1      35.057 -23.558 -14.685  0.00  0.00    -0.003 C 
ATOM     13  C   UNL     1      35.698 -24.765 -14.963  0.00  0.00    -0.003 C 
ATOM     14  C   UNL     1      35.350 -22.868 -13.508  0.00  0.00    -0.003 C 
ATOM     15  C   UNL     1      36.924 -24.593 -12.889  0.00  0.00    +0.071 C 
ATOM     16  C   UNL     1      36.631 -25.284 -14.065  0.00  0.00    +0.004 C 
ATOM     17  C   UNL     1      36.283 -23.386 -12.610  0.00  0.00    +0.004 C 
BRANCH  15  21
ATOM     18  F   UNL     1      39.122 -25.421 -12.522  0.00  0.00    -0.166 F 
ATOM     19  F   UNL     1      38.213 -24.302 -10.895  0.00  0.00    -0.166 F 
ATOM     20  F   UNL     1      37.530 -26.312 -11.339  0.00  0.00    -0.166 F 
ATOM     21  C   UNL     1      37.924 -25.145 -11.930  0.00  0.00    +0.419 C 
ENDBRANCH  15  21
ENDBRANCH  11  12
ENDBRANCH   8  11
ENDBRANCH   3   9
BRANCH   5  22
ATOM     22  O   UNL     1      37.202 -21.398 -17.515  0.00  0.00    -0.471 OA
ATOM     23  C   UNL     1      37.519 -20.664 -16.334  0.00  0.00    +0.252 C 
ENDBRANCH   5  22
BRANCH   1  24
ATOM     24  C   UNL     1      34.317 -18.632 -21.525  0.00  0.00    +0.080 C 
BRANCH  24  29
ATOM     25  O   UNL     1      35.632 -16.666 -22.013  0.00  0.00    -0.428 OA
ATOM     26  O   UNL     1      34.016 -18.423 -24.561  0.00  0.00    -0.271 OA
ATOM     27  O   UNL     1      35.436 -14.496 -22.707  0.00  0.00    -0.226 OA
ATOM     28  N   UNL     1      34.594 -16.263 -23.934  0.00  0.00    -0.218 N 
ATOM     29  C   UNL     1      35.238 -17.953 -22.517  0.00  0.00    +0.250 C 
ATOM     30  C   UNL     1      34.536 -17.619 -23.803  0.00  0.00    +0.271 C 
ATOM     31  C   UNL     1      35.233 -15.689 -22.882  0.00  0.00    +0.408 C 
ATOM     32  H   UNL     1      34.220 -15.763 -24.695  0.00  0.00    +0.161 HD
ENDBRANCH  24  29
ENDBRANCH   1  24
TORSDOF 7
ENDMDL
MODEL 3
REMARK VINA RESULT:     -11.9      2.848      4.664
REMARK  Name = 56842109
REMARK  7 active torsions:
REMARK  status: ('A' for Active; 'I' for Inactive)
REMARK    1  A    between atoms: C_1  and  C_24
REMARK    2  A    between atoms: C_3  and  C_9
REMARK    3  A    between atoms: C_5  and  O_22
REMARK    4  A    between atoms: N_8  and  C_11
REMARK    5  A    between atoms: C_11  and  C_12
REMARK    6  A    between atoms: C_15  and  C_21
REMARK    7  A    between atoms: C_24  and  C_29
REMARK                            x       y       z     vdW  Elec       q    Type
REMARK                         _______ _______ _______ _____ _____    ______ ____
ROOT
ATOM      1  C   UNL     1      34.886 -22.218 -16.032  0.00  0.00    -0.018 C 
ATOM      2  C   UNL     1      35.768 -21.615 -16.930  0.00  0.00    +0.003 C 
ATOM      3  C   UNL     1      35.312 -21.197 -18.180  0.00  0.00    +0.087 C 
ATOM      4  C   UNL     1      33.550 -22.402 -16.385  0.00  0.00    -0.001 C 
ATOM      5  C   UNL     1      33.976 -21.380 -18.533  0.00  0.00    +0.143 C 
ATOM      6  C   UNL     1      33.094 -21.984 -17.636  0.00  0.00    +0.037 C 
ENDROOT
BRANCH   3   9
ATOM      7  O   UNL     1      37.226 -21.201 -19.535  0.00  0.00    -0.270 OA
ATOM      8  N   UNL     1      35.979 -19.247 -19.478  0.00  0.00    -0.297 N 
ATOM      9  C   UNL     1      36.249 -20.568 -19.101  0.00  0.00    +0.249 C 
ATOM     10  H   UNL     1      35.186 -18.806 -19.094  0.00  0.00    +0.150 HD
BRANCH   8  11
ATOM     11  C   UNL     1      36.800 -18.497 -20.400  0.00  0.00    +0.117 C 
BRANCH  11  12
ATOM     12  C   UNL     1      36.080 -17.300 -20.948  0.00  0.00    -0.003 C 
ATOM     13  C   UNL     1      35.545 -16.350 -20.079  0.00  0.00    -0.003 C 
ATOM     14  C   UNL     1      35.945 -17.137 -22.327  0.00  0.00    -0.003 C 
ATOM     15  C   UNL     1      34.741 -15.075 -21.966  0.00  0.00    +0.071 C 
ATOM     16  C   UNL     1      34.875 -15.236 -20.587  0.00  0.00    +0.004 C 
ATOM     17  C   UNL     1      35.275 -16.025 -22.836  0.00  0.00    +0.004 C 
BRANCH  15  21
ATOM     18  F   UNL     1      33.021 -13.455 -21.693  0.00  0.00    -0.166 F 
ATOM     19  F   UNL     1      34.836 -12.797 -22.693  0.00  0.00    -0.166 F 
ATOM     20  F   UNL     1      33.445 -14.102 -23.726  0.00  0.00    -0.166 F 
ATOM     21  C   UNL     1      34.028 -13.883 -22.510  0.00  0.00    +0.419 C 
ENDBRANCH  15  21
ENDBRANCH  11  12
ENDBRANCH   8  11
ENDBRANCH   3   9
BRANCH   5  22
ATOM     22  O   UNL     1      33.511 -20.975 -19.749  0.00  0.00    -0.471 OA
ATOM     23  C   UNL     1      32.721 -19.788 -19.776  0.00  0.00    +0.252 C 
ENDBRANCH   5  22
BRANCH   1  24
ATOM     24  C   UNL     1      35.379 -22.670 -14.680  0.00  0.00    +0.080 C 
BRANCH  24  29
ATOM     25  O   UNL     1      36.058 -24.824 -13.824  0.00  0.00    -0.428 OA
ATOM     26  O   UNL     1      38.421 -22.509 -14.943  0.00  0.00    -0.271 OA
ATOM     27  O   UNL     1      37.125 -25.802 -12.054  0.00  0.00    -0.226 OA
ATOM     28  N   UNL     1      38.114 -24.146 -13.325  0.00  0.00    -0.218 N 
ATOM     29  C   UNL     1      36.375 -23.806 -14.788  0.00  0.00    +0.250 C 
ATOM     30  C   UNL     1      37.762 -23.380 -14.397  0.00  0.00    +0.271 C 
ATOM     31  C   UNL     1      37.116 -24.997 -12.974  0.00  0.00    +0.408 C 
ATOM     32  H   UNL     1      38.982 -24.089 -12.863  0.00  0.00    +0.161 HD
ENDBRANCH  24  29
ENDBRANCH   1  24
TORSDOF 7
ENDMDL
MODEL 4
REMARK VINA RESULT:     -11.5     10.816     15.511
REMARK  Name = 56842109
REMARK  7 active torsions:
REMARK  status: ('A' for Active; 'I' for Inactive)
REMARK    1  A    between atoms: C_1  and  C_24
REMARK    2  A    between atoms: C_3  and  C_9
REMARK    3  A    between atoms: C_5  and  O_22
REMARK    4  A    between atoms: N_8  and  C_11
REMARK    5  A    between atoms: C_11  and  C_12
REMARK    6  A    between atoms: C_15  and  C_21
REMARK    7  A    between atoms: C_24  and  C_29
REMARK                            x       y       z     vdW  Elec       q    Type
REMARK                         _______ _______ _______ _____ _____    ______ ____
ROOT
ATOM      1  C   UNL     1      33.580  -8.195 -22.484  0.00  0.00    -0.018 C 
ATOM      2  C   UNL     1      33.323  -9.382 -23.172  0.00  0.00    +0.003 C 
ATOM      3  C   UNL     1      34.203  -9.818 -24.163  0.00  0.00    +0.087 C 
ATOM      4  C   UNL     1      34.716  -7.446 -22.788  0.00  0.00    -0.001 C 
ATOM      5  C   UNL     1      35.339  -9.069 -24.466  0.00  0.00    +0.143 C 
ATOM      6  C   UNL     1      35.596  -7.882 -23.779  0.00  0.00    +0.037 C 
ENDROOT
BRANCH   3   9
ATOM      7  O   UNL     1      33.763 -11.064 -26.099  0.00  0.00    -0.270 OA
ATOM      8  N   UNL     1      33.850 -12.226 -24.095  0.00  0.00    -0.297 N 
ATOM      9  C   UNL     1      33.917 -11.061 -24.867  0.00  0.00    +0.249 C 
ATOM     10  H   UNL     1      33.981 -12.149 -23.122  0.00  0.00    +0.150 HD
BRANCH   8  11
ATOM     11  C   UNL     1      33.598 -13.536 -24.649  0.00  0.00    +0.117 C 
BRANCH  11  12
ATOM     12  C   UNL     1      34.249 -14.622 -23.844  0.00  0.00    -0.003 C 
ATOM     13  C   UNL     1      34.698 -14.357 -22.550  0.00  0.00    -0.003 C 
ATOM     14  C   UNL     1      34.407 -15.897 -24.389  0.00  0.00    -0.003 C 
ATOM     15  C   UNL     1      35.461 -16.639 -22.346  0.00  0.00    +0.071 C 
ATOM     16  C   UNL     1      35.304 -15.365 -21.800  0.00  0.00    +0.004 C 
ATOM     17  C   UNL     1      35.013 -16.905 -23.640  0.00  0.00    +0.004 C 
BRANCH  15  21
ATOM     18  F   UNL     1      35.998 -17.509 -20.199  0.00  0.00    -0.166 F 
ATOM     19  F   UNL     1      35.573 -18.958 -21.765  0.00  0.00    -0.166 F 
ATOM     20  F   UNL     1      37.442 -17.858 -21.787  0.00  0.00    -0.166 F 
ATOM     21  C   UNL     1      36.106 -17.719 -21.544  0.00  0.00    +0.419 C 
ENDBRANCH  15  21
ENDBRANCH  11  12
ENDBRANCH   8  11
ENDBRANCH   3   9
BRANCH   5  22
ATOM     22  O   UNL     1      36.212  -9.480 -25.429  0.00  0.00    -0.471 OA
ATOM     23  C   UNL     1      36.347  -8.647 -26.578  0.00  0.00    +0.252 C 
ENDBRANCH   5  22
BRANCH   1  24
ATOM     24  C   UNL     1      32.629  -7.724 -21.412  0.00  0.00    +0.080 C 
BRANCH  24  29
ATOM     25  O   UNL     1      33.341  -6.372 -19.543  0.00  0.00    -0.428 OA
ATOM     26  O   UNL     1      31.098  -5.125 -21.910  0.00  0.00    -0.271 OA
ATOM     27  O   UNL     1      32.576  -5.443 -17.599  0.00  0.00    -0.226 OA
ATOM     28  N   UNL     1      31.568  -5.038 -19.638  0.00  0.00    -0.218 N 
ATOM     29  C   UNL     1      32.963  -6.329 -20.929  0.00  0.00    +0.250 C 
ATOM     30  C   UNL     1      31.761  -5.427 -20.930  0.00  0.00    +0.271 C 
ATOM     31  C   UNL     1      32.490  -5.593 -18.810  0.00  0.00    +0.408 C 
ATOM     32  H   UNL     1      30.851  -4.431 -19.343  0.00  0.00    +0.161 HD
ENDBRANCH  24  29
ENDBRANCH   1  24
TORSDOF 7
ENDMDL
MODEL 5
REMARK VINA RESULT:     -11.5      7.183     12.100
REMARK  Name = 56842109
REMARK  7 active torsions:
REMARK  status: ('A' for Active; 'I' for Inactive)
REMARK    1  A    between atoms: C_1  and  C_24
REMARK    2  A    between atoms: C_3  and  C_9
REMARK    3  A    between atoms: C_5  and  O_22
REMARK    4  A    between atoms: N_8  and  C_11
REMARK    5  A    between atoms: C_11  and  C_12
REMARK    6  A    between atoms: C_15  and  C_21
REMARK    7  A    between atoms: C_24  and  C_29
REMARK                            x       y       z     vdW  Elec       q    Type
REMARK                         _______ _______ _______ _____ _____    ______ ____
ROOT
ATOM      1  C   UNL     1      33.971 -13.545 -24.106  0.00  0.00    -0.018 C 
ATOM      2  C   UNL     1      34.677 -14.124 -23.052  0.00  0.00    +0.003 C 
ATOM      3  C   UNL     1      34.859 -15.507 -23.011  0.00  0.00    +0.087 C 
ATOM      4  C   UNL     1      33.447 -14.348 -25.119  0.00  0.00    -0.001 C 
ATOM      5  C   UNL     1      34.335 -16.310 -24.023  0.00  0.00    +0.143 C 
ATOM      6  C   UNL     1      33.629 -15.730 -25.078  0.00  0.00    +0.037 C 
ENDROOT
BRANCH   3   9
ATOM      7  O   UNL     1      35.510 -15.607 -20.761  0.00  0.00    -0.270 OA
ATOM      8  N   UNL     1      36.385 -17.215 -22.185  0.00  0.00    -0.297 N 
ATOM      9  C   UNL     1      35.601 -16.091 -21.902  0.00  0.00    +0.249 C 
ATOM     10  H   UNL     1      36.410 -17.543 -23.113  0.00  0.00    +0.150 HD
BRANCH   8  11
ATOM     11  C   UNL     1      37.159 -17.918 -21.189  0.00  0.00    +0.117 C 
BRANCH  11  12
ATOM     12  C   UNL     1      36.324 -18.896 -20.415  0.00  0.00    -0.003 C 
ATOM     13  C   UNL     1      34.942 -18.932 -20.600  0.00  0.00    -0.003 C 
ATOM     14  C   UNL     1      36.928 -19.769 -19.510  0.00  0.00    -0.003 C 
ATOM     15  C   UNL     1      34.769 -20.713 -18.979  0.00  0.00    +0.071 C 
ATOM     16  C   UNL     1      34.164 -19.840 -19.882  0.00  0.00    +0.004 C 
ATOM     17  C   UNL     1      36.151 -20.677 -18.792  0.00  0.00    +0.004 C 
BRANCH  15  21
ATOM     18  F   UNL     1      33.818 -22.888 -18.848  0.00  0.00    -0.166 F 
ATOM     19  F   UNL     1      34.438 -21.976 -16.974  0.00  0.00    -0.166 F 
ATOM     20  F   UNL     1      32.661 -21.259 -17.990  0.00  0.00    -0.166 F 
ATOM     21  C   UNL     1      33.939 -21.686 -18.212  0.00  0.00    +0.419 C 
ENDBRANCH  15  21
ENDBRANCH  11  12
ENDBRANCH   8  11
ENDBRANCH   3   9
BRANCH   5  22
ATOM     22  O   UNL     1      34.505 -17.662 -24.002  0.00  0.00    -0.471 OA
ATOM     23  C   UNL     1      33.581 -18.442 -24.758  0.00  0.00    +0.252 C 
ENDBRANCH   5  22
BRANCH   1  24
ATOM     24  C   UNL     1      33.776 -12.049 -24.151  0.00  0.00    +0.080 C 
BRANCH  24  29
ATOM     25  O   UNL     1      32.706 -11.724 -22.010  0.00  0.00    -0.428 OA
ATOM     26  O   UNL     1      34.696  -9.226 -23.422  0.00  0.00    -0.271 OA
ATOM     27  O   UNL     1      31.052 -10.521 -20.990  0.00  0.00    -0.226 OA
ATOM     28  N   UNL     1      32.780  -9.508 -22.140  0.00  0.00    -0.218 N 
ATOM     29  C   UNL     1      33.883 -11.420 -22.778  0.00  0.00    +0.250 C 
ATOM     30  C   UNL     1      33.875  -9.919 -22.841  0.00  0.00    +0.271 C 
ATOM     31  C   UNL     1      32.080 -10.564 -21.650  0.00  0.00    +0.408 C 
ATOM     32  H   UNL     1      32.529  -8.566 -22.006  0.00  0.00    +0.161 HD
ENDBRANCH  24  29
ENDBRANCH   1  24
TORSDOF 7
ENDMDL
MODEL 6
REMARK VINA RESULT:     -11.5      6.404      9.897
REMARK  Name = 56842109
REMARK  7 active torsions:
REMARK  status: ('A' for Active; 'I' for Inactive)
REMARK    1  A    between atoms: C_1  and  C_24
REMARK    2  A    between atoms: C_3  and  C_9
REMARK    3  A    between atoms: C_5  and  O_22
REMARK    4  A    between atoms: N_8  and  C_11
REMARK    5  A    between atoms: C_11  and  C_12
REMARK    6  A    between atoms: C_15  and  C_21
REMARK    7  A    between atoms: C_24  and  C_29
REMARK                            x       y       z     vdW  Elec       q    Type
REMARK                         _______ _______ _______ _____ _____    ______ ____
ROOT
ATOM      1  C   UNL     1      35.397 -18.113 -21.353  0.00  0.00    -0.018 C 
ATOM      2  C   UNL     1      35.268 -16.726 -21.431  0.00  0.00    +0.003 C 
ATOM      3  C   UNL     1      34.887 -16.128 -22.633  0.00  0.00    +0.087 C 
ATOM      4  C   UNL     1      35.144 -18.901 -22.475  0.00  0.00    -0.001 C 
ATOM      5  C   UNL     1      34.635 -16.915 -23.755  0.00  0.00    +0.143 C 
ATOM      6  C   UNL     1      34.764 -18.302 -23.677  0.00  0.00    +0.037 C 
ENDROOT
BRANCH   3   9
ATOM      7  O   UNL     1      35.710 -13.948 -22.374  0.00  0.00    -0.270 OA
ATOM      8  N   UNL     1      33.533 -14.169 -23.140  0.00  0.00    -0.297 N 
ATOM      9  C   UNL     1      34.757 -14.678 -22.692  0.00  0.00    +0.249 C 
ATOM     10  H   UNL     1      32.821 -14.807 -23.374  0.00  0.00    +0.150 HD
BRANCH   8  11
ATOM     11  C   UNL     1      33.258 -12.757 -23.275  0.00  0.00    +0.117 C 
BRANCH  11  12
ATOM     12  C   UNL     1      32.799 -12.148 -21.983  0.00  0.00    -0.003 C 
ATOM     13  C   UNL     1      32.577 -12.958 -20.869  0.00  0.00    -0.003 C 
ATOM     14  C   UNL     1      32.595 -10.770 -21.893  0.00  0.00    -0.003 C 
ATOM     15  C   UNL     1      31.947 -11.017 -19.579  0.00  0.00    +0.071 C 
ATOM     16  C   UNL     1      32.150 -12.394 -19.667  0.00  0.00    +0.004 C 
ATOM     17  C   UNL     1      32.169 -10.205 -20.692  0.00  0.00    +0.004 C 
BRANCH  15  21
ATOM     18  F   UNL     1      30.195  -9.994 -18.339  0.00  0.00    -0.166 F 
ATOM     19  F   UNL     1      31.567 -11.266 -17.230  0.00  0.00    -0.166 F 
ATOM     20  F   UNL     1      32.218  -9.315 -17.919  0.00  0.00    -0.166 F 
ATOM     21  C   UNL     1      31.494 -10.411 -18.294  0.00  0.00    +0.419 C 
ENDBRANCH  15  21
ENDBRANCH  11  12
ENDBRANCH   8  11
ENDBRANCH   3   9
BRANCH   5  22
ATOM     22  O   UNL     1      34.259 -16.350 -24.937  0.00  0.00    -0.471 OA
ATOM     23  C   UNL     1      32.989 -16.730 -25.461  0.00  0.00    +0.252 C 
ENDBRANCH   5  22
BRANCH   1  24
ATOM     24  C   UNL     1      35.807 -18.760 -20.053  0.00  0.00    +0.080 C 
BRANCH  24  29
ATOM     25  O   UNL     1      33.972 -20.312 -19.821  0.00  0.00    -0.428 OA
ATOM     26  O   UNL     1      37.115 -21.032 -18.481  0.00  0.00    -0.271 OA
ATOM     27  O   UNL     1      32.556 -21.204 -18.264  0.00  0.00    -0.226 OA
ATOM     28  N   UNL     1      34.853 -21.321 -18.049  0.00  0.00    -0.218 N 
ATOM     29  C   UNL     1      35.397 -20.216 -19.988  0.00  0.00    +0.250 C 
ATOM     30  C   UNL     1      35.935 -20.900 -18.763  0.00  0.00    +0.271 C 
ATOM     31  C   UNL     1      33.690 -20.976 -18.659  0.00  0.00    +0.408 C 
ATOM     32  H   UNL     1      34.907 -21.813 -17.198  0.00  0.00    +0.161 HD
ENDBRANCH  24  29
ENDBRANCH   1  24
TORSDOF 7
ENDMDL
MODEL 7
REMARK VINA RESULT:     -11.4      6.697     11.452
REMARK  Name = 56842109
REMARK  7 active torsions:
REMARK  status: ('A' for Active; 'I' for Inactive)
REMARK    1  A    between atoms: C_1  and  C_24
REMARK    2  A    between atoms: C_3  and  C_9
REMARK    3  A    between atoms: C_5  and  O_22
REMARK    4  A    between atoms: N_8  and  C_11
REMARK    5  A    between atoms: C_11  and  C_12
REMARK    6  A    between atoms: C_15  and  C_21
REMARK    7  A    between atoms: C_24  and  C_29
REMARK                            x       y       z     vdW  Elec       q    Type
REMARK                         _______ _______ _______ _____ _____    ______ ____
ROOT
ATOM      1  C   UNL     1      34.131 -13.826 -22.735  0.00  0.00    -0.018 C 
ATOM      2  C   UNL     1      34.856 -14.950 -22.339  0.00  0.00    +0.003 C 
ATOM      3  C   UNL     1      34.903 -16.076 -23.161  0.00  0.00    +0.087 C 
ATOM      4  C   UNL     1      33.453 -13.828 -23.953  0.00  0.00    -0.001 C 
ATOM      5  C   UNL     1      34.225 -16.078 -24.380  0.00  0.00    +0.143 C 
ATOM      6  C   UNL     1      33.500 -14.954 -24.776  0.00  0.00    +0.037 C 
ENDROOT
BRANCH   3   9
ATOM      7  O   UNL     1      35.841 -18.198 -23.499  0.00  0.00    -0.270 OA
ATOM      8  N   UNL     1      36.203 -17.200 -21.437  0.00  0.00    -0.297 N 
ATOM      9  C   UNL     1      35.668 -17.238 -22.729  0.00  0.00    +0.249 C 
ATOM     10  H   UNL     1      36.024 -16.407 -20.882  0.00  0.00    +0.150 HD
BRANCH   8  11
ATOM     11  C   UNL     1      37.002 -18.264 -20.874  0.00  0.00    +0.117 C 
BRANCH  11  12
ATOM     12  C   UNL     1      36.173 -19.226 -20.073  0.00  0.00    -0.003 C 
ATOM     13  C   UNL     1      34.786 -19.236 -20.214  0.00  0.00    -0.003 C 
ATOM     14  C   UNL     1      36.790 -20.110 -19.188  0.00  0.00    -0.003 C 
ATOM     15  C   UNL     1      34.632 -21.014 -18.587  0.00  0.00    +0.071 C 
ATOM     16  C   UNL     1      34.014 -20.129 -19.471  0.00  0.00    +0.004 C 
ATOM     17  C   UNL     1      36.019 -21.004 -18.445  0.00  0.00    +0.004 C 
BRANCH  15  21
ATOM     18  F   UNL     1      33.698 -23.192 -18.396  0.00  0.00    -0.166 F 
ATOM     19  F   UNL     1      34.308 -22.222 -16.548  0.00  0.00    -0.166 F 
ATOM     20  F   UNL     1      32.526 -21.549 -17.585  0.00  0.00    -0.166 F 
ATOM     21  C   UNL     1      33.808 -21.971 -17.795  0.00  0.00    +0.419 C 
ENDBRANCH  15  21
ENDBRANCH  11  12
ENDBRANCH   8  11
ENDBRANCH   3   9
BRANCH   5  22
ATOM     22  O   UNL     1      34.262 -17.167 -25.199  0.00  0.00    -0.471 OA
ATOM     23  C   UNL     1      33.100 -17.994 -25.227  0.00  0.00    +0.252 C 
ENDBRANCH   5  22
BRANCH   1  24
ATOM     24  C   UNL     1      34.081 -12.609 -21.845  0.00  0.00    +0.080 C 
BRANCH  24  29
ATOM     25  O   UNL     1      32.507 -10.821 -21.448  0.00  0.00    -0.428 OA
ATOM     26  O   UNL     1      32.390 -13.766 -19.576  0.00  0.00    -0.271 OA
ATOM     27  O   UNL     1      31.941  -9.232 -19.905  0.00  0.00    -0.226 OA
ATOM     28  N   UNL     1      32.054 -11.478 -19.375  0.00  0.00    -0.218 N 
ATOM     29  C   UNL     1      32.664 -12.250 -21.451  0.00  0.00    +0.250 C 
ATOM     30  C   UNL     1      32.357 -12.633 -20.031  0.00  0.00    +0.271 C 
ATOM     31  C   UNL     1      32.144 -10.401 -20.199  0.00  0.00    +0.408 C 
ATOM     32  H   UNL     1      31.801 -11.429 -18.425  0.00  0.00    +0.161 HD
ENDBRANCH  24  29
ENDBRANCH   1  24
TORSDOF 7
ENDMDL
MODEL 8
REMARK VINA RESULT:     -11.4      7.182     10.686
REMARK  Name = 56842109
REMARK  7 active torsions:
REMARK  status: ('A' for Active; 'I' for Inactive)
REMARK    1  A    between atoms: C_1  and  C_24
REMARK    2  A    between atoms: C_3  and  C_9
REMARK    3  A    between atoms: C_5  and  O_22
REMARK    4  A    between atoms: N_8  and  C_11
REMARK    5  A    between atoms: C_11  and  C_12
REMARK    6  A    between atoms: C_15  and  C_21
REMARK    7  A    between atoms: C_24  and  C_29
REMARK                            x       y       z     vdW  Elec       q    Type
REMARK                         _______ _______ _______ _____ _____    ______ ____
ROOT
ATOM      1  C   UNL     1      35.650 -17.185 -21.197  0.00  0.00    -0.018 C 
ATOM      2  C   UNL     1      35.145 -15.952 -20.786  0.00  0.00    +0.003 C 
ATOM      3  C   UNL     1      34.717 -15.023 -21.735  0.00  0.00    +0.087 C 
ATOM      4  C   UNL     1      35.725 -17.490 -22.556  0.00  0.00    -0.001 C 
ATOM      5  C   UNL     1      34.792 -15.327 -23.093  0.00  0.00    +0.143 C 
ATOM      6  C   UNL     1      35.297 -16.561 -23.504  0.00  0.00    +0.037 C 
ENDROOT
BRANCH   3   9
ATOM      7  O   UNL     1      34.772 -13.103 -20.390  0.00  0.00    -0.270 OA
ATOM      8  N   UNL     1      33.035 -13.271 -21.917  0.00  0.00    -0.297 N 
ATOM      9  C   UNL     1      34.191 -13.741 -21.284  0.00  0.00    +0.249 C 
ATOM     10  H   UNL     1      32.627 -13.831 -22.617  0.00  0.00    +0.150 HD
BRANCH   8  11
ATOM     11  C   UNL     1      32.408 -12.009 -21.597  0.00  0.00    +0.117 C 
BRANCH  11  12
ATOM     12  C   UNL     1      33.100 -10.854 -22.260  0.00  0.00    -0.003 C 
ATOM     13  C   UNL     1      34.068 -11.089 -23.236  0.00  0.00    -0.003 C 
ATOM     14  C   UNL     1      32.775  -9.546 -21.900  0.00  0.00    -0.003 C 
ATOM     15  C   UNL     1      34.387  -8.709 -23.493  0.00  0.00    +0.071 C 
ATOM     16  C   UNL     1      34.712 -10.016 -23.853  0.00  0.00    +0.004 C 
ATOM     17  C   UNL     1      33.419  -8.474 -22.516  0.00  0.00    +0.004 C 
BRANCH  15  21
ATOM     18  F   UNL     1      34.227  -6.519 -24.407  0.00  0.00    -0.166 F 
ATOM     19  F   UNL     1      36.093  -7.033 -23.414  0.00  0.00    -0.166 F 
ATOM     20  F   UNL     1      35.634  -7.878 -25.358  0.00  0.00    -0.166 F 
ATOM     21  C   UNL     1      35.072  -7.561 -24.154  0.00  0.00    +0.419 C 
ENDBRANCH  15  21
ENDBRANCH  11  12
ENDBRANCH   8  11
ENDBRANCH   3   9
BRANCH   5  22
ATOM     22  O   UNL     1      34.375 -14.434 -24.034  0.00  0.00    -0.471 OA
ATOM     23  C   UNL     1      33.685 -14.961 -25.166  0.00  0.00    +0.252 C 
ENDBRANCH   5  22
BRANCH   1  24
ATOM     24  C   UNL     1      36.113 -18.190 -20.171  0.00  0.00    +0.080 C 
BRANCH  24  29
ATOM     25  O   UNL     1      34.078 -19.490 -20.201  0.00  0.00    -0.428 OA
ATOM     26  O   UNL     1      37.096 -20.902 -19.159  0.00  0.00    -0.271 OA
ATOM     27  O   UNL     1      32.560 -20.488 -18.814  0.00  0.00    -0.226 OA
ATOM     28  N   UNL     1      34.819 -20.963 -18.713  0.00  0.00    -0.218 N 
ATOM     29  C   UNL     1      35.501 -19.556 -20.397  0.00  0.00    +0.250 C 
ATOM     30  C   UNL     1      35.944 -20.552 -19.363  0.00  0.00    +0.271 C 
ATOM     31  C   UNL     1      33.712 -20.339 -19.194  0.00  0.00    +0.408 C 
ATOM     32  H   UNL     1      34.808 -21.627 -17.986  0.00  0.00    +0.161 HD
ENDBRANCH  24  29
ENDBRANCH   1  24
TORSDOF 7
ENDMDL
MODEL 9
REMARK VINA RESULT:     -11.3      7.785     12.530
REMARK  Name = 56842109
REMARK  7 active torsions:
REMARK  status: ('A' for Active; 'I' for Inactive)
REMARK    1  A    between atoms: C_1  and  C_24
REMARK    2  A    between atoms: C_3  and  C_9
REMARK    3  A    between atoms: C_5  and  O_22
REMARK    4  A    between atoms: N_8  and  C_11
REMARK    5  A    between atoms: C_11  and  C_12
REMARK    6  A    between atoms: C_15  and  C_21
REMARK    7  A    between atoms: C_24  and  C_29
REMARK                            x       y       z     vdW  Elec       q    Type
REMARK                         _______ _______ _______ _____ _____    ______ ____
ROOT
ATOM      1  C   UNL     1      33.870 -13.008 -23.003  0.00  0.00    -0.018 C 
ATOM      2  C   UNL     1      34.598 -13.832 -22.144  0.00  0.00    +0.003 C 
ATOM      3  C   UNL     1      34.893 -15.143 -22.519  0.00  0.00    +0.087 C 
ATOM      4  C   UNL     1      33.437 -13.495 -24.236  0.00  0.00    -0.001 C 
ATOM      5  C   UNL     1      34.460 -15.630 -23.752  0.00  0.00    +0.143 C 
ATOM      6  C   UNL     1      33.732 -14.807 -24.610  0.00  0.00    +0.037 C 
ENDROOT
BRANCH   3   9
ATOM      7  O   UNL     1      35.635 -15.769 -20.385  0.00  0.00    -0.270 OA
ATOM      8  N   UNL     1      36.378 -17.042 -22.176  0.00  0.00    -0.297 N 
ATOM      9  C   UNL     1      35.656 -15.986 -21.609  0.00  0.00    +0.249 C 
ATOM     10  H   UNL     1      36.349 -17.153 -23.154  0.00  0.00    +0.150 HD
BRANCH   8  11
ATOM     11  C   UNL     1      37.163 -17.976 -21.403  0.00  0.00    +0.117 C 
BRANCH  11  12
ATOM     12  C   UNL     1      36.301 -18.900 -20.593  0.00  0.00    -0.003 C 
ATOM     13  C   UNL     1      34.926 -18.952 -20.824  0.00  0.00    -0.003 C 
ATOM     14  C   UNL     1      36.874 -19.706 -19.609  0.00  0.00    -0.003 C 
ATOM     15  C   UNL     1      34.697 -20.615 -19.088  0.00  0.00    +0.071 C 
ATOM     16  C   UNL     1      34.124 -19.809 -20.071  0.00  0.00    +0.004 C 
ATOM     17  C   UNL     1      36.072 -20.563 -18.856  0.00  0.00    +0.004 C 
BRANCH  15  21
ATOM     18  F   UNL     1      34.398 -21.855 -17.081  0.00  0.00    -0.166 F 
ATOM     19  F   UNL     1      32.609 -21.020 -17.993  0.00  0.00    -0.166 F 
ATOM     20  F   UNL     1      33.589 -22.727 -18.902  0.00  0.00    -0.166 F 
ATOM     21  C   UNL     1      33.840 -21.535 -18.285  0.00  0.00    +0.419 C 
ENDBRANCH  15  21
ENDBRANCH  11  12
ENDBRANCH   8  11
ENDBRANCH   3   9
BRANCH   5  22
ATOM     22  O   UNL     1      34.741 -16.907 -24.137  0.00  0.00    -0.471 OA
ATOM     23  C   UNL     1      33.685 -17.645 -24.750  0.00  0.00    +0.252 C 
ENDBRANCH   5  22
BRANCH   1  24
ATOM     24  C   UNL     1      33.552 -11.590 -22.597  0.00  0.00    +0.080 C 
BRANCH  24  29
ATOM     25  O   UNL     1      34.843 -10.620 -24.393  0.00  0.00    -0.428 OA
ATOM     26  O   UNL     1      32.340  -8.790 -22.787  0.00  0.00    -0.271 OA
ATOM     27  O   UNL     1      36.428  -9.027 -24.813  0.00  0.00    -0.226 OA
ATOM     28  N   UNL     1      34.432  -8.531 -23.761  0.00  0.00    -0.218 N 
ATOM     29  C   UNL     1      33.542 -10.649 -23.783  0.00  0.00    +0.250 C 
ATOM     30  C   UNL     1      33.324  -9.221 -23.369  0.00  0.00    +0.271 C 
ATOM     31  C   UNL     1      35.337  -9.346 -24.362  0.00  0.00    +0.408 C 
ATOM     32  H   UNL     1      34.560  -7.564 -23.627  0.00  0.00    +0.161 HD
ENDBRANCH  24  29
ENDBRANCH   1  24
TORSDOF 7
ENDMDL
