MODEL 1
REMARK VINA RESULT:     -12.1      0.000      0.000
REMARK  Name = 23629645
REMARK  6 active torsions:
REMARK  status: ('A' for Active; 'I' for Inactive)
REMARK    1  A    between atoms: N_1  and  C_6
REMARK    2  A    between atoms: N_1  and  C_21
REMARK    3  A    between atoms: C_3  and  C_16
REMARK    4  A    between atoms: C_11  and  C_18
REMARK    5  A    between atoms: C_18  and  O_19
REMARK    6  A    between atoms: C_21  and  C_28
REMARK                            x       y       z     vdW  Elec       q    Type
REMARK                         _______ _______ _______ _____ _____    ______ ____
ROOT
ATOM      1  N   UNL     1      35.268 -18.408 -22.019  0.00  0.00    -0.300 N 
ATOM      2  C   UNL     1      34.743 -18.659 -23.346  0.00  0.00    +0.113 C 
ENDROOT
BRANCH   1   6
ATOM      3  C   UNL     1      34.202 -20.892 -18.809  0.00  0.00    +0.054 C 
ATOM      4  C   UNL     1      35.544 -20.728 -19.143  0.00  0.00    +0.006 C 
ATOM      5  C   UNL     1      33.212 -20.236 -19.536  0.00  0.00    +0.006 C 
ATOM      6  C   UNL     1      34.909 -19.244 -20.939  0.00  0.00    +0.048 C 
ATOM      7  C   UNL     1      35.899 -19.902 -20.210  0.00  0.00    +0.015 C 
ATOM      8  C   UNL     1      33.566 -19.410 -20.603  0.00  0.00    +0.015 C 
BRANCH   3  16
ATOM      9  O   UNL     1      32.635 -22.036 -17.587  0.00  0.00    -0.270 OA
ATOM     10  N   UNL     1      34.839 -22.196 -16.825  0.00  0.00    -0.276 N 
ATOM     11  C   UNL     1      36.425 -22.029 -14.402  0.00  0.00    +0.102 C 
ATOM     12  C   UNL     1      34.956 -22.467 -14.387  0.00  0.00    +0.033 C 
ATOM     13  C   UNL     1      36.776 -21.221 -15.657  0.00  0.00    +0.033 C 
ATOM     14  C   UNL     1      34.511 -23.083 -15.713  0.00  0.00    +0.094 C 
ATOM     15  C   UNL     1      36.265 -21.869 -16.943  0.00  0.00    +0.094 C 
ATOM     16  C   UNL     1      33.829 -21.762 -17.686  0.00  0.00    +0.249 C 
BRANCH  11  18
ATOM     17  O   UNL     1      38.504 -23.234 -14.578  0.00  0.00    -0.250 OA
ATOM     18  C   UNL     1      37.323 -23.222 -14.257  0.00  0.00    +0.317 C 
BRANCH  18  19
ATOM     19  O   UNL     1      36.619 -24.261 -13.724  0.00  0.00    -0.444 OA
ATOM     20  C   UNL     1      37.062 -25.566 -14.109  0.00  0.00    +0.256 C 
ENDBRANCH  18  19
ENDBRANCH  11  18
ENDBRANCH   3  16
ENDBRANCH   1   6
BRANCH   1  21
ATOM     21  C   UNL     1      36.155 -17.281 -21.811  0.00  0.00    +0.148 C 
BRANCH  21  28
ATOM     22  N   UNL     1      34.944 -15.300 -22.511  0.00  0.00    -0.392 NA
ATOM     23  N   UNL     1      34.516 -14.535 -19.885  0.00  0.00    -0.200 NA
ATOM     24  N   UNL     1      33.369 -12.657 -20.605  0.00  0.00    -0.271 NA
ATOM     25  N   UNL     1      33.068 -12.215 -22.943  0.00  0.00    -0.310 NA
ATOM     26  N   UNL     1      33.955 -13.716 -24.538  0.00  0.00    -0.329 N 
ATOM     27  N   UNL     1      32.203 -10.753 -21.331  0.00  0.00    -0.283 N 
ATOM     28  C   UNL     1      35.396 -16.022 -21.484  0.00  0.00    +0.133 C 
ATOM     29  C   UNL     1      35.194 -15.658 -20.191  0.00  0.00    +0.193 C 
ATOM     30  C   UNL     1      34.267 -14.177 -22.204  0.00  0.00    +0.248 C 
ATOM     31  C   UNL     1      34.044 -13.778 -20.884  0.00  0.00    +0.131 C 
ATOM     32  C   UNL     1      33.751 -13.349 -23.182  0.00  0.00    +0.231 C 
ATOM     33  C   UNL     1      32.914 -11.932 -21.644  0.00  0.00    +0.207 C 
ATOM     34  H   UNL     1      33.600 -13.147 -25.260  0.00  0.00    +0.145 HD
ATOM     35  H   UNL     1      34.450 -14.538 -24.757  0.00  0.00    +0.145 HD
ATOM     36  H   UNL     1      32.063 -10.499 -20.390  0.00  0.00    +0.156 HD
ATOM     37  H   UNL     1      31.850 -10.185 -22.053  0.00  0.00    +0.156 HD
ENDBRANCH  21  28
ENDBRANCH   1  21
TORSDOF 6
ENDMDL
MODEL 2
REMARK VINA RESULT:     -12.0      2.320      3.548
REMARK  Name = 23629645
REMARK  6 active torsions:
REMARK  status: ('A' for Active; 'I' for Inactive)
REMARK    1  A    between atoms: N_1  and  C_6
REMARK    2  A    between atoms: N_1  and  C_21
REMARK    3  A    between atoms: C_3  and  C_16
REMARK    4  A    between atoms: C_11  and  C_18
REMARK    5  A    between atoms: C_18  and  O_19
REMARK    6  A    between atoms: C_21  and  C_28
REMARK                            x       y       z     vdW  Elec       q    Type
REMARK                         _______ _______ _______ _____ _____    ______ ____
ROOT
ATOM      1  N   UNL     1      34.364 -20.222 -19.587  0.00  0.00    -0.300 N 
ATOM      2  C   UNL     1      33.105 -19.846 -20.195  0.00  0.00    +0.113 C 
ENDROOT
BRANCH   1   6
ATOM      3  C   UNL     1      34.428 -22.542 -16.092  0.00  0.00    +0.054 C 
ATOM      4  C   UNL     1      35.600 -21.946 -16.549  0.00  0.00    +0.006 C 
ATOM      5  C   UNL     1      33.235 -22.373 -16.789  0.00  0.00    +0.006 C 
ATOM      6  C   UNL     1      34.386 -21.002 -18.411  0.00  0.00    +0.048 C 
ATOM      7  C   UNL     1      35.579 -21.174 -17.710  0.00  0.00    +0.015 C 
ATOM      8  C   UNL     1      33.213 -21.602 -17.951  0.00  0.00    +0.015 C 
BRANCH   3  16
ATOM      9  O   UNL     1      33.356 -23.630 -14.380  0.00  0.00    -0.270 OA
ATOM     10  N   UNL     1      35.691 -23.741 -14.356  0.00  0.00    -0.276 N 
ATOM     11  C   UNL     1      37.962 -23.442 -12.577  0.00  0.00    +0.102 C 
ATOM     12  C   UNL     1      36.585 -23.886 -12.073  0.00  0.00    +0.033 C 
ATOM     13  C   UNL     1      37.879 -22.698 -13.916  0.00  0.00    +0.033 C 
ATOM     14  C   UNL     1      35.753 -24.571 -13.157  0.00  0.00    +0.094 C 
ATOM     15  C   UNL     1      36.997 -23.414 -14.938  0.00  0.00    +0.094 C 
ATOM     16  C   UNL     1      34.450 -23.356 -14.869  0.00  0.00    +0.249 C 
BRANCH  11  18
ATOM     17  O   UNL     1      38.590 -25.753 -12.307  0.00  0.00    -0.250 OA
ATOM     18  C   UNL     1      38.884 -24.623 -12.671  0.00  0.00    +0.317 C 
BRANCH  18  19
ATOM     19  O   UNL     1      40.072 -24.232 -13.216  0.00  0.00    -0.444 OA
ATOM     20  C   UNL     1      40.605 -25.103 -14.218  0.00  0.00    +0.256 C 
ENDBRANCH  18  19
ENDBRANCH  11  18
ENDBRANCH   3  16
ENDBRANCH   1   6
BRANCH   1  21
ATOM     21  C   UNL     1      35.603 -19.775 -20.193  0.00  0.00    +0.148 C 
BRANCH  21  28
ATOM     22  N   UNL     1      34.961 -18.773 -22.306  0.00  0.00    -0.392 NA
ATOM     23  N   UNL     1      35.476 -16.228 -21.348  0.00  0.00    -0.200 NA
ATOM     24  N   UNL     1      34.853 -15.320 -23.385  0.00  0.00    -0.271 NA
ATOM     25  N   UNL     1      34.135 -16.723 -25.192  0.00  0.00    -0.310 NA
ATOM     26  N   UNL     1      34.061 -19.065 -24.895  0.00  0.00    -0.329 N 
ATOM     27  N   UNL     1      34.221 -14.396 -25.448  0.00  0.00    -0.283 N 
ATOM     28  C   UNL     1      35.398 -18.563 -21.063  0.00  0.00    +0.133 C 
ATOM     29  C   UNL     1      35.655 -17.320 -20.580  0.00  0.00    +0.193 C 
ATOM     30  C   UNL     1      34.782 -17.680 -23.072  0.00  0.00    +0.248 C 
ATOM     31  C   UNL     1      35.038 -16.390 -22.603  0.00  0.00    +0.131 C 
ATOM     32  C   UNL     1      34.333 -17.773 -24.376  0.00  0.00    +0.231 C 
ATOM     33  C   UNL     1      34.412 -15.537 -24.638  0.00  0.00    +0.207 C 
ATOM     34  H   UNL     1      33.739 -19.166 -25.820  0.00  0.00    +0.145 HD
ATOM     35  H   UNL     1      34.193 -19.860 -24.330  0.00  0.00    +0.145 HD
ATOM     36  H   UNL     1      34.410 -13.500 -25.088  0.00  0.00    +0.156 HD
ATOM     37  H   UNL     1      33.901 -14.498 -26.373  0.00  0.00    +0.156 HD
ENDBRANCH  21  28
ENDBRANCH   1  21
TORSDOF 6
ENDMDL
MODEL 3
REMARK VINA RESULT:     -11.9      1.152      2.034
REMARK  Name = 23629645
REMARK  6 active torsions:
REMARK  status: ('A' for Active; 'I' for Inactive)
REMARK    1  A    between atoms: N_1  and  C_6
REMARK    2  A    between atoms: N_1  and  C_21
REMARK    3  A    between atoms: C_3  and  C_16
REMARK    4  A    between atoms: C_11  and  C_18
REMARK    5  A    between atoms: C_18  and  O_19
REMARK    6  A    between atoms: C_21  and  C_28
REMARK                            x       y       z     vdW  Elec       q    Type
REMARK                         _______ _______ _______ _____ _____    ______ ____
ROOT
ATOM      1  N   UNL     1      35.851 -18.549 -21.682  0.00  0.00    -0.300 N 
ATOM      2  C   UNL     1      37.128 -17.903 -21.455  0.00  0.00    +0.113 C 
ENDROOT
BRANCH   1   6
ATOM      3  C   UNL     1      34.092 -20.895 -18.681  0.00  0.00    +0.054 C 
ATOM      4  C   UNL     1      35.475 -20.896 -18.840  0.00  0.00    +0.006 C 
ATOM      5  C   UNL     1      33.289 -20.119 -19.513  0.00  0.00    +0.006 C 
ATOM      6  C   UNL     1      35.259 -19.338 -20.672  0.00  0.00    +0.048 C 
ATOM      7  C   UNL     1      36.060 -20.116 -19.837  0.00  0.00    +0.015 C 
ATOM      8  C   UNL     1      33.874 -19.339 -20.511  0.00  0.00    +0.015 C 
BRANCH   3  16
ATOM      9  O   UNL     1      32.249 -21.798 -17.656  0.00  0.00    -0.270 OA
ATOM     10  N   UNL     1      34.314 -22.326 -16.695  0.00  0.00    -0.276 N 
ATOM     11  C   UNL     1      35.657 -22.467 -14.127  0.00  0.00    +0.102 C 
ATOM     12  C   UNL     1      34.143 -22.664 -14.268  0.00  0.00    +0.033 C 
ATOM     13  C   UNL     1      36.255 -21.700 -15.313  0.00  0.00    +0.033 C 
ATOM     14  C   UNL     1      33.740 -23.172 -15.652  0.00  0.00    +0.094 C 
ATOM     15  C   UNL     1      35.778 -22.231 -16.664  0.00  0.00    +0.094 C 
ATOM     16  C   UNL     1      33.476 -21.717 -17.631  0.00  0.00    +0.249 C 
BRANCH  11  18
ATOM     17  O   UNL     1      36.959 -24.371 -14.821  0.00  0.00    -0.250 OA
ATOM     18  C   UNL     1      36.336 -23.792 -13.942  0.00  0.00    +0.317 C 
BRANCH  18  19
ATOM     19  O   UNL     1      36.145 -24.227 -12.664  0.00  0.00    -0.444 OA
ATOM     20  C   UNL     1      37.124 -25.150 -12.176  0.00  0.00    +0.256 C 
ENDBRANCH  18  19
ENDBRANCH  11  18
ENDBRANCH   3  16
ENDBRANCH   1   6
BRANCH   1  21
ATOM     21  C   UNL     1      35.194 -18.386 -22.964  0.00  0.00    +0.148 C 
BRANCH  21  28
ATOM     22  N   UNL     1      34.913 -16.094 -22.223  0.00  0.00    -0.392 NA
ATOM     23  N   UNL     1      34.271 -15.260 -24.783  0.00  0.00    -0.200 NA
ATOM     24  N   UNL     1      34.014 -13.087 -24.025  0.00  0.00    -0.271 NA
ATOM     25  N   UNL     1      34.353 -12.538 -21.716  0.00  0.00    -0.310 NA
ATOM     26  N   UNL     1      34.959 -14.235 -20.188  0.00  0.00    -0.329 N 
ATOM     27  N   UNL     1      33.754 -10.883 -23.261  0.00  0.00    -0.283 N 
ATOM     28  C   UNL     1      34.874 -16.943 -23.251  0.00  0.00    +0.133 C 
ATOM     29  C   UNL     1      34.559 -16.548 -24.512  0.00  0.00    +0.193 C 
ATOM     30  C   UNL     1      34.624 -14.807 -22.495  0.00  0.00    +0.248 C 
ATOM     31  C   UNL     1      34.298 -14.372 -23.781  0.00  0.00    +0.131 C 
ATOM     32  C   UNL     1      34.633 -13.837 -21.511  0.00  0.00    +0.231 C 
ATOM     33  C   UNL     1      34.055 -12.234 -22.985  0.00  0.00    +0.207 C 
ATOM     34  H   UNL     1      34.975 -13.568 -19.464  0.00  0.00    +0.145 HD
ATOM     35  H   UNL     1      35.170 -15.177 -19.996  0.00  0.00    +0.145 HD
ATOM     36  H   UNL     1      33.528 -10.607 -24.179  0.00  0.00    +0.156 HD
ATOM     37  H   UNL     1      33.768 -10.217 -22.536  0.00  0.00    +0.156 HD
ENDBRANCH  21  28
ENDBRANCH   1  21
TORSDOF 6
ENDMDL
MODEL 4
REMARK VINA RESULT:     -11.3      1.665      3.189
REMARK  Name = 23629645
REMARK  6 active torsions:
REMARK  status: ('A' for Active; 'I' for Inactive)
REMARK    1  A    between atoms: N_1  and  C_6
REMARK    2  A    between atoms: N_1  and  C_21
REMARK    3  A    between atoms: C_3  and  C_16
REMARK    4  A    between atoms: C_11  and  C_18
REMARK    5  A    between atoms: C_18  and  O_19
REMARK    6  A    between atoms: C_21  and  C_28
REMARK                            x       y       z     vdW  Elec       q    Type
REMARK                         _______ _______ _______ _____ _____    ______ ____
ROOT
ATOM      1  N   UNL     1      36.049 -19.879 -20.016  0.00  0.00    -0.300 N 
ATOM      2  C   UNL     1      37.318 -19.182 -20.070  0.00  0.00    +0.113 C 
ENDROOT
BRANCH   1   6
ATOM      3  C   UNL     1      34.972 -22.071 -16.605  0.00  0.00    +0.054 C 
ATOM      4  C   UNL     1      34.068 -21.935 -17.655  0.00  0.00    +0.006 C 
ATOM      5  C   UNL     1      36.231 -21.483 -16.680  0.00  0.00    +0.006 C 
ATOM      6  C   UNL     1      35.687 -20.617 -18.869  0.00  0.00    +0.048 C 
ATOM      7  C   UNL     1      34.425 -21.207 -18.789  0.00  0.00    +0.015 C 
ATOM      8  C   UNL     1      36.590 -20.754 -17.814  0.00  0.00    +0.015 C 
BRANCH   3  16
ATOM      9  O   UNL     1      33.392 -23.043 -15.255  0.00  0.00    -0.270 OA
ATOM     10  N   UNL     1      35.610 -23.259 -14.549  0.00  0.00    -0.276 N 
ATOM     11  C   UNL     1      37.281 -22.997 -12.192  0.00  0.00    +0.102 C 
ATOM     12  C   UNL     1      35.794 -23.359 -12.102  0.00  0.00    +0.033 C 
ATOM     13  C   UNL     1      37.629 -22.302 -13.514  0.00  0.00    +0.033 C 
ATOM     14  C   UNL     1      35.276 -24.046 -13.365  0.00  0.00    +0.094 C 
ATOM     15  C   UNL     1      37.045 -23.015 -14.732  0.00  0.00    +0.094 C 
ATOM     16  C   UNL     1      34.594 -22.838 -15.410  0.00  0.00    +0.249 C 
BRANCH  11  18
ATOM     17  O   UNL     1      37.737 -25.232 -11.417  0.00  0.00    -0.250 OA
ATOM     18  C   UNL     1      38.125 -24.221 -11.986  0.00  0.00    +0.317 C 
BRANCH  18  19
ATOM     19  O   UNL     1      39.360 -24.019 -12.525  0.00  0.00    -0.444 OA
ATOM     20  C   UNL     1      39.842 -25.069 -13.370  0.00  0.00    +0.256 C 
ENDBRANCH  18  19
ENDBRANCH  11  18
ENDBRANCH   3  16
ENDBRANCH   1   6
BRANCH   1  21
ATOM     21  C   UNL     1      35.161 -19.820 -21.160  0.00  0.00    +0.148 C 
BRANCH  21  28
ATOM     22  N   UNL     1      35.057 -17.416 -20.860  0.00  0.00    -0.392 NA
ATOM     23  N   UNL     1      34.918 -17.000 -23.593  0.00  0.00    -0.200 NA
ATOM     24  N   UNL     1      34.821 -14.711 -23.254  0.00  0.00    -0.271 NA
ATOM     25  N   UNL     1      34.872 -13.789 -21.041  0.00  0.00    -0.310 NA
ATOM     26  N   UNL     1      35.024 -15.233 -19.177  0.00  0.00    -0.329 N 
ATOM     27  N   UNL     1      34.723 -12.391 -22.914  0.00  0.00    -0.283 N 
ATOM     28  C   UNL     1      35.069 -18.428 -21.729  0.00  0.00    +0.133 C 
ATOM     29  C   UNL     1      35.001 -18.239 -23.072  0.00  0.00    +0.193 C 
ATOM     30  C   UNL     1      34.974 -16.177 -21.383  0.00  0.00    +0.248 C 
ATOM     31  C   UNL     1      34.903 -15.952 -22.760  0.00  0.00    +0.131 C 
ATOM     32  C   UNL     1      34.954 -15.051 -20.583  0.00  0.00    +0.231 C 
ATOM     33  C   UNL     1      34.810 -13.693 -22.374  0.00  0.00    +0.207 C 
ATOM     34  H   UNL     1      35.012 -14.451 -18.579  0.00  0.00    +0.145 HD
ATOM     35  H   UNL     1      35.085 -16.140 -18.801  0.00  0.00    +0.145 HD
ATOM     36  H   UNL     1      34.675 -12.265 -23.889  0.00  0.00    +0.156 HD
ATOM     37  H   UNL     1      34.710 -11.610 -22.315  0.00  0.00    +0.156 HD
ENDBRANCH  21  28
ENDBRANCH   1  21
TORSDOF 6
ENDMDL
MODEL 5
REMARK VINA RESULT:     -11.3      1.472      2.280
REMARK  Name = 23629645
REMARK  6 active torsions:
REMARK  status: ('A' for Active; 'I' for Inactive)
REMARK    1  A    between atoms: N_1  and  C_6
REMARK    2  A    between atoms: N_1  and  C_21
REMARK    3  A    between atoms: C_3  and  C_16
REMARK    4  A    between atoms: C_11  and  C_18
REMARK    5  A    between atoms: C_18  and  O_19
REMARK    6  A    between atoms: C_21  and  C_28
REMARK                            x       y       z     vdW  Elec       q    Type
REMARK                         _______ _______ _______ _____ _____    ______ ____
ROOT
ATOM      1  N   UNL     1      36.116 -19.456 -20.234  0.00  0.00    -0.300 N 
ATOM      2  C   UNL     1      37.506 -19.059 -20.142  0.00  0.00    +0.113 C 
ENDROOT
BRANCH   1   6
ATOM      3  C   UNL     1      34.392 -21.860 -17.258  0.00  0.00    +0.054 C 
ATOM      4  C   UNL     1      33.592 -21.317 -18.261  0.00  0.00    +0.006 C 
ATOM      5  C   UNL     1      35.761 -21.608 -17.238  0.00  0.00    +0.006 C 
ATOM      6  C   UNL     1      35.536 -20.265 -19.233  0.00  0.00    +0.048 C 
ATOM      7  C   UNL     1      34.165 -20.519 -19.250  0.00  0.00    +0.015 C 
ATOM      8  C   UNL     1      36.335 -20.809 -18.227  0.00  0.00    +0.015 C 
BRANCH   3  16
ATOM      9  O   UNL     1      32.577 -22.889 -16.306  0.00  0.00    -0.270 OA
ATOM     10  N   UNL     1      34.619 -23.204 -15.212  0.00  0.00    -0.276 N 
ATOM     11  C   UNL     1      35.815 -23.146 -12.570  0.00  0.00    +0.102 C 
ATOM     12  C   UNL     1      34.335 -23.480 -12.788  0.00  0.00    +0.033 C 
ATOM     13  C   UNL     1      36.414 -22.367 -13.747  0.00  0.00    +0.033 C 
ATOM     14  C   UNL     1      34.060 -24.064 -14.173  0.00  0.00    +0.094 C 
ATOM     15  C   UNL     1      36.065 -22.979 -15.103  0.00  0.00    +0.094 C 
ATOM     16  C   UNL     1      33.788 -22.700 -16.216  0.00  0.00    +0.249 C 
BRANCH  11  18
ATOM     17  O   UNL     1      36.605 -24.980 -11.222  0.00  0.00    -0.250 OA
ATOM     18  C   UNL     1      36.594 -24.400 -12.299  0.00  0.00    +0.317 C 
BRANCH  18  19
ATOM     19  O   UNL     1      37.267 -24.771 -13.425  0.00  0.00    -0.444 OA
ATOM     20  C   UNL     1      37.671 -26.143 -13.477  0.00  0.00    +0.256 C 
ENDBRANCH  18  19
ENDBRANCH  11  18
ENDBRANCH   3  16
ENDBRANCH   1   6
BRANCH   1  21
ATOM     21  C   UNL     1      35.332 -19.025 -21.374  0.00  0.00    +0.148 C 
BRANCH  21  28
ATOM     22  N   UNL     1      34.927 -16.979 -22.610  0.00  0.00    -0.392 NA
ATOM     23  N   UNL     1      35.200 -15.447 -20.321  0.00  0.00    -0.200 NA
ATOM     24  N   UNL     1      34.808 -13.521 -21.546  0.00  0.00    -0.271 NA
ATOM     25  N   UNL     1      34.394 -13.623 -23.905  0.00  0.00    -0.310 NA
ATOM     26  N   UNL     1      34.384 -15.717 -25.000  0.00  0.00    -0.329 N 
ATOM     27  N   UNL     1      34.410 -11.567 -22.784  0.00  0.00    -0.283 N 
ATOM     28  C   UNL     1      35.188 -17.527 -21.422  0.00  0.00    +0.133 C 
ATOM     29  C   UNL     1      35.326 -16.787 -20.291  0.00  0.00    +0.193 C 
ATOM     30  C   UNL     1      34.801 -15.637 -22.638  0.00  0.00    +0.248 C 
ATOM     31  C   UNL     1      34.937 -14.852 -21.491  0.00  0.00    +0.131 C 
ATOM     32  C   UNL     1      34.529 -14.958 -23.809  0.00  0.00    +0.231 C 
ATOM     33  C   UNL     1      34.543 -12.972 -22.746  0.00  0.00    +0.207 C 
ATOM     34  H   UNL     1      34.190 -15.263 -25.852  0.00  0.00    +0.145 HD
ATOM     35  H   UNL     1      34.476 -16.696 -24.973  0.00  0.00    +0.145 HD
ATOM     36  H   UNL     1      34.512 -11.041 -21.958  0.00  0.00    +0.156 HD
ATOM     37  H   UNL     1      34.218 -11.114 -23.636  0.00  0.00    +0.156 HD
ENDBRANCH  21  28
ENDBRANCH   1  21
TORSDOF 6
ENDMDL
MODEL 6
REMARK VINA RESULT:     -11.1      4.218      8.288
REMARK  Name = 23629645
REMARK  6 active torsions:
REMARK  status: ('A' for Active; 'I' for Inactive)
REMARK    1  A    between atoms: N_1  and  C_6
REMARK    2  A    between atoms: N_1  and  C_21
REMARK    3  A    between atoms: C_3  and  C_16
REMARK    4  A    between atoms: C_11  and  C_18
REMARK    5  A    between atoms: C_18  and  O_19
REMARK    6  A    between atoms: C_21  and  C_28
REMARK                            x       y       z     vdW  Elec       q    Type
REMARK                         _______ _______ _______ _____ _____    ______ ____
ROOT
ATOM      1  N   UNL     1      33.935  -9.961 -23.671  0.00  0.00    -0.300 N 
ATOM      2  C   UNL     1      35.137  -9.157 -23.601  0.00  0.00    +0.113 C 
ENDROOT
BRANCH   1   6
ATOM      3  C   UNL     1      34.187 -14.137 -23.990  0.00  0.00    +0.054 C 
ATOM      4  C   UNL     1      34.323 -13.528 -22.745  0.00  0.00    +0.006 C 
ATOM      5  C   UNL     1      33.968 -13.367 -25.129  0.00  0.00    +0.006 C 
ATOM      6  C   UNL     1      34.019 -11.366 -23.778  0.00  0.00    +0.048 C 
ATOM      7  C   UNL     1      34.239 -12.139 -22.639  0.00  0.00    +0.015 C 
ATOM      8  C   UNL     1      33.884 -11.979 -25.024  0.00  0.00    +0.015 C 
BRANCH   3  16
ATOM      9  O   UNL     1      33.680 -16.108 -25.049  0.00  0.00    -0.270 OA
ATOM     10  N   UNL     1      35.010 -16.290 -23.135  0.00  0.00    -0.276 N 
ATOM     11  C   UNL     1      35.267 -17.819 -20.683  0.00  0.00    +0.102 C 
ATOM     12  C   UNL     1      34.636 -18.408 -21.949  0.00  0.00    +0.033 C 
ATOM     13  C   UNL     1      35.244 -16.285 -20.683  0.00  0.00    +0.033 C 
ATOM     14  C   UNL     1      35.144 -17.741 -23.227  0.00  0.00    +0.094 C 
ATOM     15  C   UNL     1      35.722 -15.684 -22.004  0.00  0.00    +0.094 C 
ATOM     16  C   UNL     1      34.276 -15.599 -24.102  0.00  0.00    +0.249 C 
BRANCH  11  18
ATOM     17  O   UNL     1      37.575 -18.130 -21.302  0.00  0.00    -0.250 OA
ATOM     18  C   UNL     1      36.665 -18.338 -20.511  0.00  0.00    +0.317 C 
BRANCH  18  19
ATOM     19  O   UNL     1      36.744 -19.062 -19.359  0.00  0.00    -0.444 OA
ATOM     20  C   UNL     1      36.407 -20.448 -19.479  0.00  0.00    +0.256 C 
ENDBRANCH  18  19
ENDBRANCH  11  18
ENDBRANCH   3  16
ENDBRANCH   1   6
BRANCH   1  21
ATOM     21  C   UNL     1      32.642  -9.304 -23.643  0.00  0.00    +0.148 C 
BRANCH  21  28
ATOM     22  N   UNL     1      32.668  -8.360 -21.411  0.00  0.00    -0.392 NA
ATOM     23  N   UNL     1      32.595  -5.781 -22.413  0.00  0.00    -0.200 NA
ATOM     24  N   UNL     1      32.620  -4.928 -20.260  0.00  0.00    -0.271 NA
ATOM     25  N   UNL     1      32.688  -6.385 -18.357  0.00  0.00    -0.310 NA
ATOM     26  N   UNL     1      32.731  -8.725 -18.679  0.00  0.00    -0.329 N 
ATOM     27  N   UNL     1      32.647  -4.060 -18.079  0.00  0.00    -0.283 N 
ATOM     28  C   UNL     1      32.637  -8.114 -22.721  0.00  0.00    +0.133 C 
ATOM     29  C   UNL     1      32.600  -6.854 -23.227  0.00  0.00    +0.193 C 
ATOM     30  C   UNL     1      32.663  -7.285 -20.598  0.00  0.00    +0.248 C 
ATOM     31  C   UNL     1      32.625  -5.979 -21.089  0.00  0.00    +0.131 C 
ATOM     32  C   UNL     1      32.693  -7.415 -19.223  0.00  0.00    +0.231 C 
ATOM     33  C   UNL     1      32.652  -5.181 -18.939  0.00  0.00    +0.207 C 
ATOM     34  H   UNL     1      32.753  -8.853 -17.703  0.00  0.00    +0.145 HD
ATOM     35  H   UNL     1      32.735  -9.506 -19.278  0.00  0.00    +0.145 HD
ATOM     36  H   UNL     1      32.621  -3.151 -18.457  0.00  0.00    +0.156 HD
ATOM     37  H   UNL     1      32.668  -4.188 -17.104  0.00  0.00    +0.156 HD
ENDBRANCH  21  28
ENDBRANCH   1  21
TORSDOF 6
ENDMDL
MODEL 7
REMARK VINA RESULT:     -11.0      3.640     10.730
REMARK  Name = 23629645
REMARK  6 active torsions:
REMARK  status: ('A' for Active; 'I' for Inactive)
REMARK    1  A    between atoms: N_1  and  C_6
REMARK    2  A    between atoms: N_1  and  C_21
REMARK    3  A    between atoms: C_3  and  C_16
REMARK    4  A    between atoms: C_11  and  C_18
REMARK    5  A    between atoms: C_18  and  O_19
REMARK    6  A    between atoms: C_21  and  C_28
REMARK                            x       y       z     vdW  Elec       q    Type
REMARK                         _______ _______ _______ _____ _____    ______ ____
ROOT
ATOM      1  N   UNL     1      34.474 -22.054 -17.027  0.00  0.00    -0.300 N 
ATOM      2  C   UNL     1      33.797 -23.332 -17.109  0.00  0.00    +0.113 C 
ENDROOT
BRANCH   1   6
ATOM      3  C   UNL     1      34.927 -19.666 -20.448  0.00  0.00    +0.054 C 
ATOM      4  C   UNL     1      33.652 -20.023 -20.015  0.00  0.00    +0.006 C 
ATOM      5  C   UNL     1      36.052 -20.099 -19.751  0.00  0.00    +0.006 C 
ATOM      6  C   UNL     1      34.626 -21.250 -18.178  0.00  0.00    +0.048 C 
ATOM      7  C   UNL     1      33.501 -20.816 -18.878  0.00  0.00    +0.015 C 
ATOM      8  C   UNL     1      35.902 -20.892 -18.614  0.00  0.00    +0.015 C 
BRANCH   3  16
ATOM      9  O   UNL     1      35.534 -19.394 -22.643  0.00  0.00    -0.270 OA
ATOM     10  N   UNL     1      34.730 -17.484 -21.562  0.00  0.00    -0.276 N 
ATOM     11  C   UNL     1      35.321 -14.670 -21.178  0.00  0.00    +0.102 C 
ATOM     12  C   UNL     1      35.747 -15.428 -22.441  0.00  0.00    +0.033 C 
ATOM     13  C   UNL     1      35.061 -15.611 -19.996  0.00  0.00    +0.033 C 
ATOM     14  C   UNL     1      34.849 -16.628 -22.739  0.00  0.00    +0.094 C 
ATOM     15  C   UNL     1      34.194 -16.811 -20.373  0.00  0.00    +0.094 C 
ATOM     16  C   UNL     1      35.085 -18.832 -21.646  0.00  0.00    +0.249 C 
BRANCH  11  18
ATOM     17  O   UNL     1      33.640 -13.665 -22.582  0.00  0.00    -0.250 OA
ATOM     18  C   UNL     1      34.119 -13.818 -21.467  0.00  0.00    +0.317 C 
BRANCH  18  19
ATOM     19  O   UNL     1      33.667 -13.261 -20.308  0.00  0.00    -0.444 OA
ATOM     20  C   UNL     1      32.264 -12.978 -20.268  0.00  0.00    +0.256 C 
ENDBRANCH  18  19
ENDBRANCH  11  18
ENDBRANCH   3  16
ENDBRANCH   1   6
BRANCH   1  21
ATOM     21  C   UNL     1      35.005 -21.616 -15.752  0.00  0.00    +0.148 C 
BRANCH  21  28
ATOM     22  N   UNL     1      36.227 -23.587 -15.044  0.00  0.00    -0.392 NA
ATOM     23  N   UNL     1      38.642 -22.243 -15.193  0.00  0.00    -0.200 NA
ATOM     24  N   UNL     1      39.762 -24.153 -14.514  0.00  0.00    -0.271 NA
ATOM     25  N   UNL     1      38.571 -26.178 -14.038  0.00  0.00    -0.310 NA
ATOM     26  N   UNL     1      36.219 -26.231 -14.264  0.00  0.00    -0.329 N 
ATOM     27  N   UNL     1      40.901 -26.087 -13.827  0.00  0.00    -0.283 N 
ATOM     28  C   UNL     1      36.299 -22.308 -15.415  0.00  0.00    +0.133 C 
ATOM     29  C   UNL     1      37.477 -21.636 -15.492  0.00  0.00    +0.193 C 
ATOM     30  C   UNL     1      37.392 -24.193 -14.746  0.00  0.00    +0.248 C 
ATOM     31  C   UNL     1      38.618 -23.528 -14.816  0.00  0.00    +0.131 C 
ATOM     32  C   UNL     1      37.443 -25.516 -14.350  0.00  0.00    +0.231 C 
ATOM     33  C   UNL     1      39.684 -25.444 -14.141  0.00  0.00    +0.207 C 
ATOM     34  H   UNL     1      36.220 -27.176 -13.986  0.00  0.00    +0.145 HD
ATOM     35  H   UNL     1      35.371 -25.783 -14.484  0.00  0.00    +0.145 HD
ATOM     36  H   UNL     1      41.749 -25.590 -13.886  0.00  0.00    +0.156 HD
ATOM     37  H   UNL     1      40.901 -27.030 -13.547  0.00  0.00    +0.156 HD
ENDBRANCH  21  28
ENDBRANCH   1  21
TORSDOF 6
ENDMDL
MODEL 8
REMARK VINA RESULT:     -10.9      5.073     11.276
REMARK  Name = 23629645
REMARK  6 active torsions:
REMARK  status: ('A' for Active; 'I' for Inactive)
REMARK    1  A    between atoms: N_1  and  C_6
REMARK    2  A    between atoms: N_1  and  C_21
REMARK    3  A    between atoms: C_3  and  C_16
REMARK    4  A    between atoms: C_11  and  C_18
REMARK    5  A    between atoms: C_18  and  O_19
REMARK    6  A    between atoms: C_21  and  C_28
REMARK                            x       y       z     vdW  Elec       q    Type
REMARK                         _______ _______ _______ _____ _____    ______ ____
ROOT
ATOM      1  N   UNL     1      35.347 -16.588 -22.436  0.00  0.00    -0.300 N 
ATOM      2  C   UNL     1      34.910 -17.427 -23.533  0.00  0.00    +0.113 C 
ENDROOT
BRANCH   1   6
ATOM      3  C   UNL     1      33.410 -12.953 -21.637  0.00  0.00    +0.054 C 
ATOM      4  C   UNL     1      34.038 -13.646 -20.604  0.00  0.00    +0.006 C 
ATOM      5  C   UNL     1      33.421 -13.462 -22.933  0.00  0.00    +0.006 C 
ATOM      6  C   UNL     1      34.696 -15.365 -22.167  0.00  0.00    +0.048 C 
ATOM      7  C   UNL     1      34.682 -14.854 -20.870  0.00  0.00    +0.015 C 
ATOM      8  C   UNL     1      34.065 -14.670 -23.199  0.00  0.00    +0.015 C 
BRANCH   3  16
ATOM      9  O   UNL     1      31.771 -11.737 -20.589  0.00  0.00    -0.270 OA
ATOM     10  N   UNL     1      33.209 -10.527 -21.981  0.00  0.00    -0.276 N 
ATOM     11  C   UNL     1      33.191  -8.517 -24.072  0.00  0.00    +0.102 C 
ATOM     12  C   UNL     1      32.093  -8.594 -23.005  0.00  0.00    +0.033 C 
ATOM     13  C   UNL     1      33.937  -9.847 -24.233  0.00  0.00    +0.033 C 
ATOM     14  C   UNL     1      32.576  -9.240 -21.707  0.00  0.00    +0.094 C 
ATOM     15  C   UNL     1      34.353 -10.460 -22.897  0.00  0.00    +0.094 C 
ATOM     16  C   UNL     1      32.730 -11.682 -21.357  0.00  0.00    +0.249 C 
BRANCH  11  18
ATOM     17  O   UNL     1      35.358  -7.497 -23.816  0.00  0.00    -0.250 OA
ATOM     18  C   UNL     1      34.140  -7.398 -23.758  0.00  0.00    +0.317 C 
BRANCH  18  19
ATOM     19  O   UNL     1      33.434  -6.286 -23.407  0.00  0.00    -0.444 OA
ATOM     20  C   UNL     1      33.020  -5.452 -24.494  0.00  0.00    +0.256 C 
ENDBRANCH  18  19
ENDBRANCH  11  18
ENDBRANCH   3  16
ENDBRANCH   1   6
BRANCH   1  21
ATOM     21  C   UNL     1      36.471 -17.014 -21.625  0.00  0.00    +0.148 C 
BRANCH  21  28
ATOM     22  N   UNL     1      34.850 -18.569 -20.714  0.00  0.00    -0.392 NA
ATOM     23  N   UNL     1      36.826 -19.976 -19.382  0.00  0.00    -0.200 NA
ATOM     24  N   UNL     1      35.239 -21.435 -18.537  0.00  0.00    -0.271 NA
ATOM     25  N   UNL     1      32.916 -21.175 -19.073  0.00  0.00    -0.310 NA
ATOM     26  N   UNL     1      32.233 -19.406 -20.483  0.00  0.00    -0.329 N 
ATOM     27  N   UNL     1      33.632 -22.916 -17.680  0.00  0.00    -0.283 N 
ATOM     28  C   UNL     1      36.134 -18.217 -20.785  0.00  0.00    +0.133 C 
ATOM     29  C   UNL     1      37.114 -18.898 -20.136  0.00  0.00    +0.193 C 
ATOM     30  C   UNL     1      34.563 -19.648 -19.959  0.00  0.00    +0.248 C 
ATOM     31  C   UNL     1      35.549 -20.367 -19.281  0.00  0.00    +0.131 C 
ATOM     32  C   UNL     1      33.269 -20.108 -19.811  0.00  0.00    +0.231 C 
ATOM     33  C   UNL     1      33.941 -21.786 -18.469  0.00  0.00    +0.207 C 
ATOM     34  H   UNL     1      31.300 -19.708 -20.398  0.00  0.00    +0.145 HD
ATOM     35  H   UNL     1      32.449 -18.619 -21.034  0.00  0.00    +0.145 HD
ATOM     36  H   UNL     1      34.351 -23.402 -17.214  0.00  0.00    +0.156 HD
ATOM     37  H   UNL     1      32.699 -23.216 -17.595  0.00  0.00    +0.156 HD
ENDBRANCH  21  28
ENDBRANCH   1  21
TORSDOF 6
ENDMDL
MODEL 9
REMARK VINA RESULT:     -10.8      4.185      7.980
REMARK  Name = 23629645
REMARK  6 active torsions:
REMARK  status: ('A' for Active; 'I' for Inactive)
REMARK    1  A    between atoms: N_1  and  C_6
REMARK    2  A    between atoms: N_1  and  C_21
REMARK    3  A    between atoms: C_3  and  C_16
REMARK    4  A    between atoms: C_11  and  C_18
REMARK    5  A    between atoms: C_18  and  O_19
REMARK    6  A    between atoms: C_21  and  C_28
REMARK                            x       y       z     vdW  Elec       q    Type
REMARK                         _______ _______ _______ _____ _____    ______ ____
ROOT
ATOM      1  N   UNL     1      33.526 -10.348 -23.095  0.00  0.00    -0.300 N 
ATOM      2  C   UNL     1      34.558  -9.374 -23.384  0.00  0.00    +0.113 C 
ENDROOT
BRANCH   1   6
ATOM      3  C   UNL     1      34.242 -14.441 -23.680  0.00  0.00    +0.054 C 
ATOM      4  C   UNL     1      33.903 -13.635 -24.764  0.00  0.00    +0.006 C 
ATOM      5  C   UNL     1      34.343 -13.896 -22.403  0.00  0.00    +0.006 C 
ATOM      6  C   UNL     1      33.767 -11.725 -23.292  0.00  0.00    +0.048 C 
ATOM      7  C   UNL     1      33.666 -12.274 -24.570  0.00  0.00    +0.015 C 
ATOM      8  C   UNL     1      34.105 -12.535 -22.208  0.00  0.00    +0.015 C 
BRANCH   3  16
ATOM      9  O   UNL     1      34.050 -16.358 -24.926  0.00  0.00    -0.270 OA
ATOM     10  N   UNL     1      35.188 -16.570 -22.894  0.00  0.00    -0.276 N 
ATOM     11  C   UNL     1      35.346 -18.262 -20.544  0.00  0.00    +0.102 C 
ATOM     12  C   UNL     1      34.912 -18.803 -21.910  0.00  0.00    +0.033 C 
ATOM     13  C   UNL     1      35.167 -16.743 -20.437  0.00  0.00    +0.033 C 
ATOM     14  C   UNL     1      35.478 -17.989 -23.074  0.00  0.00    +0.094 C 
ATOM     15  C   UNL     1      35.714 -15.994 -21.652  0.00  0.00    +0.094 C 
ATOM     16  C   UNL     1      34.491 -15.874 -23.885  0.00  0.00    +0.249 C 
BRANCH  11  18
ATOM     17  O   UNL     1      37.712 -18.394 -20.983  0.00  0.00    -0.250 OA
ATOM     18  C   UNL     1      36.765 -18.660 -20.256  0.00  0.00    +0.317 C 
BRANCH  18  19
ATOM     19  O   UNL     1      36.815 -19.350 -19.081  0.00  0.00    -0.444 OA
ATOM     20  C   UNL     1      36.352 -20.703 -19.142  0.00  0.00    +0.256 C 
ENDBRANCH  18  19
ENDBRANCH  11  18
ENDBRANCH   3  16
ENDBRANCH   1   6
BRANCH   1  21
ATOM     21  C   UNL     1      32.237  -9.891 -22.614  0.00  0.00    +0.148 C 
BRANCH  21  28
ATOM     22  N   UNL     1      32.173  -7.594 -21.842  0.00  0.00    -0.392 NA
ATOM     23  N   UNL     1      32.831  -8.356 -19.264  0.00  0.00    -0.200 NA
ATOM     24  N   UNL     1      32.757  -6.146 -18.576  0.00  0.00    -0.271 NA
ATOM     25  N   UNL     1      32.228  -4.391 -20.121  0.00  0.00    -0.310 NA
ATOM     26  N   UNL     1      31.774  -4.919 -22.379  0.00  0.00    -0.329 N 
ATOM     27  N   UNL     1      32.682  -3.907 -17.875  0.00  0.00    -0.283 N 
ATOM     28  C   UNL     1      32.378  -8.870 -21.516  0.00  0.00    +0.133 C 
ATOM     29  C   UNL     1      32.702  -9.259 -20.255  0.00  0.00    +0.193 C 
ATOM     30  C   UNL     1      32.302  -6.692 -20.849  0.00  0.00    +0.248 C 
ATOM     31  C   UNL     1      32.634  -7.062 -19.544  0.00  0.00    +0.131 C 
ATOM     32  C   UNL     1      32.113  -5.341 -21.066  0.00  0.00    +0.231 C 
ATOM     33  C   UNL     1      32.549  -4.859 -18.910  0.00  0.00    +0.207 C 
ATOM     34  H   UNL     1      31.632  -3.963 -22.567  0.00  0.00    +0.145 HD
ATOM     35  H   UNL     1      31.680  -5.583 -23.100  0.00  0.00    +0.145 HD
ATOM     36  H   UNL     1      32.917  -4.200 -16.965  0.00  0.00    +0.156 HD
ATOM     37  H   UNL     1      32.542  -2.952 -18.064  0.00  0.00    +0.156 HD
ENDBRANCH  21  28
ENDBRANCH   1  21
TORSDOF 6
ENDMDL
