MODEL 1
REMARK VINA RESULT:     -12.9      0.000      0.000
REMARK  Name = 45268539
REMARK  6 active torsions:
REMARK  status: ('A' for Active; 'I' for Inactive)
REMARK    1  A    between atoms: N_2  and  C_22
REMARK    2  A    between atoms: N_3  and  C_7
REMARK    3  A    between atoms: N_3  and  O_12
REMARK    4  A    between atoms: C_8  and  C_14
REMARK    5  A    between atoms: C_15  and  C_16
REMARK    6  A    between atoms: C_22  and  C_26
REMARK                            x       y       z     vdW  Elec       q    Type
REMARK                         _______ _______ _______ _____ _____    ______ ____
ROOT
ATOM      1  O   UNL     1      32.059 -23.092 -16.509  0.00  0.00    -0.273 OA
ATOM      2  N   UNL     1      34.238 -22.684 -15.652  0.00  0.00    -0.253 N 
ATOM      3  C   UNL     1      35.363 -22.010 -16.166  0.00  0.00    +0.052 C 
ATOM      4  C   UNL     1      35.087 -21.500 -17.436  0.00  0.00    +0.018 C 
ATOM      5  C   UNL     1      33.186 -22.646 -16.551  0.00  0.00    +0.252 C 
ATOM      6  C   UNL     1      33.718 -21.873 -17.734  0.00  0.00    +0.202 C 
ATOM      7  C   UNL     1      36.010 -20.793 -18.177  0.00  0.00    -0.001 C 
ATOM      8  C   UNL     1      36.604 -21.821 -15.588  0.00  0.00    +0.015 C 
ATOM      9  C   UNL     1      37.266 -20.598 -17.600  0.00  0.00    -0.000 C 
ATOM     10  C   UNL     1      37.560 -21.106 -16.320  0.00  0.00    +0.001 C 
ENDROOT
BRANCH   7  11
ATOM     11  C   UNL     1      35.730 -20.261 -19.498  0.00  0.00    -0.000 C 
ATOM     12  C   UNL     1      35.690 -18.944 -19.820  0.00  0.00    -0.000 C 
BRANCH  12  13
ATOM     13  C   UNL     1      35.423 -18.404 -21.165  0.00  0.00    -0.000 C 
ATOM     14  C   UNL     1      35.756 -17.084 -21.465  0.00  0.00    -0.000 C 
ATOM     15  C   UNL     1      34.837 -19.215 -22.138  0.00  0.00    -0.000 C 
ATOM     16  C   UNL     1      35.503 -16.573 -22.739  0.00  0.00    +0.000 C 
ATOM     17  C   UNL     1      34.584 -18.704 -23.411  0.00  0.00    +0.000 C 
ATOM     18  C   UNL     1      34.917 -17.383 -23.711  0.00  0.00    +0.000 C 
ENDBRANCH  12  13
ENDBRANCH   7  11
BRANCH   6  19
ATOM     19  N   UNL     1      33.029 -21.624 -18.790  0.00  0.00    -0.075 NA
BRANCH  19  20
ATOM     20  O   UNL     1      32.485 -20.342 -18.673  0.00  0.00    -0.294 OA
ATOM     21  H   UNL     1      31.802 -20.068 -19.254  0.00  0.00    +0.238 HD
ENDBRANCH  19  20
ENDBRANCH   6  19
BRANCH   2  22
ATOM     22  C   UNL     1      34.217 -23.318 -14.357  0.00  0.00    +0.128 C 
BRANCH  22  26
ATOM     23  F   UNL     1      37.153 -26.938 -15.746  0.00  0.00    -0.204 F 
ATOM     24  O   UNL     1      35.902 -22.970 -12.152  0.00  0.00    -0.448 OA
ATOM     25  O   UNL     1      37.526 -23.843 -10.615  0.00  0.00    -0.311 OA
ATOM     26  C   UNL     1      35.430 -24.172 -14.128  0.00  0.00    +0.034 C 
ATOM     27  C   UNL     1      36.254 -23.973 -13.020  0.00  0.00    +0.138 C 
ATOM     28  C   UNL     1      37.373 -24.789 -12.811  0.00  0.00    +0.043 C 
ATOM     29  C   UNL     1      35.735 -25.175 -15.047  0.00  0.00    +0.030 C 
ATOM     30  C   UNL     1      38.246 -24.563 -11.615  0.00  0.00    +0.176 C 
ATOM     31  C   UNL     1      37.678 -25.785 -13.744  0.00  0.00    +0.031 C 
ATOM     32  C   UNL     1      36.860 -25.979 -14.858  0.00  0.00    +0.140 C 
ATOM     33  C   UNL     1      36.915 -22.686 -11.182  0.00  0.00    +0.361 C 
ENDBRANCH  22  26
ENDBRANCH   2  22
TORSDOF 6
ENDMDL
MODEL 2
REMARK VINA RESULT:     -12.1      7.146     13.153
REMARK  Name = 45268539
REMARK  6 active torsions:
REMARK  status: ('A' for Active; 'I' for Inactive)
REMARK    1  A    between atoms: N_2  and  C_22
REMARK    2  A    between atoms: N_3  and  C_7
REMARK    3  A    between atoms: N_3  and  O_12
REMARK    4  A    between atoms: C_8  and  C_14
REMARK    5  A    between atoms: C_15  and  C_16
REMARK    6  A    between atoms: C_22  and  C_26
REMARK                            x       y       z     vdW  Elec       q    Type
REMARK                         _______ _______ _______ _____ _____    ______ ____
ROOT
ATOM      1  O   UNL     1      33.374 -11.909 -20.601  0.00  0.00    -0.273 OA
ATOM      2  N   UNL     1      33.445 -12.557 -22.887  0.00  0.00    -0.253 N 
ATOM      3  C   UNL     1      33.906 -13.714 -23.544  0.00  0.00    +0.052 C 
ATOM      4  C   UNL     1      34.412 -14.631 -22.622  0.00  0.00    +0.018 C 
ATOM      5  C   UNL     1      33.626 -12.661 -21.518  0.00  0.00    +0.252 C 
ATOM      6  C   UNL     1      34.261 -14.017 -21.317  0.00  0.00    +0.202 C 
ATOM      7  C   UNL     1      34.931 -15.854 -22.987  0.00  0.00    -0.001 C 
ATOM      8  C   UNL     1      33.906 -14.006 -24.896  0.00  0.00    +0.015 C 
ATOM      9  C   UNL     1      34.935 -16.157 -24.349  0.00  0.00    -0.000 C 
ATOM     10  C   UNL     1      34.428 -15.243 -25.294  0.00  0.00    +0.001 C 
ENDROOT
BRANCH   7  11
ATOM     11  C   UNL     1      35.460 -16.811 -22.032  0.00  0.00    -0.000 C 
ATOM     12  C   UNL     1      34.786 -17.878 -21.537  0.00  0.00    -0.000 C 
BRANCH  12  13
ATOM     13  C   UNL     1      35.328 -18.859 -20.580  0.00  0.00    -0.000 C 
ATOM     14  C   UNL     1      34.479 -19.783 -19.971  0.00  0.00    -0.000 C 
ATOM     15  C   UNL     1      36.691 -18.865 -20.285  0.00  0.00    -0.000 C 
ATOM     16  C   UNL     1      34.993 -20.712 -19.066  0.00  0.00    +0.000 C 
ATOM     17  C   UNL     1      37.205 -19.794 -19.380  0.00  0.00    +0.000 C 
ATOM     18  C   UNL     1      36.356 -20.717 -18.770  0.00  0.00    +0.000 C 
ENDBRANCH  12  13
ENDBRANCH   7  11
BRANCH   6  19
ATOM     19  N   UNL     1      34.588 -14.485 -20.165  0.00  0.00    -0.075 NA
BRANCH  19  20
ATOM     20  O   UNL     1      33.430 -14.612 -19.393  0.00  0.00    -0.294 OA
ATOM     21  H   UNL     1      33.373 -15.282 -18.739  0.00  0.00    +0.238 HD
ENDBRANCH  19  20
ENDBRANCH   6  19
BRANCH   2  22
ATOM     22  C   UNL     1      32.866 -11.430 -23.576  0.00  0.00    +0.128 C 
BRANCH  22  26
ATOM     23  F   UNL     1      36.844  -9.140 -25.182  0.00  0.00    -0.204 F 
ATOM     24  O   UNL     1      32.378  -9.188 -21.978  0.00  0.00    -0.448 OA
ATOM     25  O   UNL     1      33.175  -7.238 -20.827  0.00  0.00    -0.311 OA
ATOM     26  C   UNL     1      33.775 -10.236 -23.565  0.00  0.00    +0.034 C 
ATOM     27  C   UNL     1      33.505  -9.130 -22.758  0.00  0.00    +0.138 C 
ATOM     28  C   UNL     1      34.372  -8.030 -22.747  0.00  0.00    +0.043 C 
ATOM     29  C   UNL     1      34.905 -10.237 -24.382  0.00  0.00    +0.030 C 
ATOM     30  C   UNL     1      34.066  -6.852 -21.873  0.00  0.00    +0.176 C 
ATOM     31  C   UNL     1      35.496  -8.035 -23.578  0.00  0.00    +0.031 C 
ATOM     32  C   UNL     1      35.763  -9.137 -24.392  0.00  0.00    +0.140 C 
ATOM     33  C   UNL     1      32.054  -7.935 -21.366  0.00  0.00    +0.361 C 
ENDBRANCH  22  26
ENDBRANCH   2  22
TORSDOF 6
ENDMDL
MODEL 3
REMARK VINA RESULT:     -11.7      6.192     12.286
REMARK  Name = 45268539
REMARK  6 active torsions:
REMARK  status: ('A' for Active; 'I' for Inactive)
REMARK    1  A    between atoms: N_2  and  C_22
REMARK    2  A    between atoms: N_3  and  C_7
REMARK    3  A    between atoms: N_3  and  O_12
REMARK    4  A    between atoms: C_8  and  C_14
REMARK    5  A    between atoms: C_15  and  C_16
REMARK    6  A    between atoms: C_22  and  C_26
REMARK                            x       y       z     vdW  Elec       q    Type
REMARK                         _______ _______ _______ _____ _____    ______ ____
ROOT
ATOM      1  O   UNL     1      35.358 -13.289 -20.849  0.00  0.00    -0.273 OA
ATOM      2  N   UNL     1      34.713 -14.227 -22.936  0.00  0.00    -0.253 N 
ATOM      3  C   UNL     1      34.566 -15.552 -23.391  0.00  0.00    +0.052 C 
ATOM      4  C   UNL     1      34.874 -16.454 -22.372  0.00  0.00    +0.018 C 
ATOM      5  C   UNL     1      35.119 -14.201 -21.612  0.00  0.00    +0.252 C 
ATOM      6  C   UNL     1      35.233 -15.654 -21.217  0.00  0.00    +0.202 C 
ATOM      7  C   UNL     1      34.817 -17.821 -22.538  0.00  0.00    -0.001 C 
ATOM      8  C   UNL     1      34.180 -16.006 -24.638  0.00  0.00    +0.015 C 
ATOM      9  C   UNL     1      34.428 -18.288 -23.794  0.00  0.00    -0.000 C 
ATOM     10  C   UNL     1      34.113 -17.391 -24.833  0.00  0.00    +0.001 C 
ENDROOT
BRANCH   7  11
ATOM     11  C   UNL     1      35.138 -18.765 -21.483  0.00  0.00    -0.000 C 
ATOM     12  C   UNL     1      34.279 -19.187 -20.521  0.00  0.00    -0.000 C 
BRANCH  12  13
ATOM     13  C   UNL     1      34.600 -20.158 -19.460  0.00  0.00    -0.000 C 
ATOM     14  C   UNL     1      33.584 -20.915 -18.877  0.00  0.00    -0.000 C 
ATOM     15  C   UNL     1      35.920 -20.321 -19.040  0.00  0.00    -0.000 C 
ATOM     16  C   UNL     1      33.887 -21.834 -17.872  0.00  0.00    +0.000 C 
ATOM     17  C   UNL     1      36.223 -21.240 -18.036  0.00  0.00    +0.000 C 
ATOM     18  C   UNL     1      35.207 -21.996 -17.451  0.00  0.00    +0.000 C 
ENDBRANCH  12  13
ENDBRANCH   7  11
BRANCH   6  19
ATOM     19  N   UNL     1      35.593 -16.046 -20.047  0.00  0.00    -0.075 NA
BRANCH  19  20
ATOM     20  O   UNL     1      34.939 -15.260 -19.095  0.00  0.00    -0.294 OA
ATOM     21  H   UNL     1      34.015 -15.114 -19.161  0.00  0.00    +0.238 HD
ENDBRANCH  19  20
ENDBRANCH   6  19
BRANCH   2  22
ATOM     22  C   UNL     1      34.464 -13.071 -23.763  0.00  0.00    +0.128 C 
BRANCH  22  26
ATOM     23  F   UNL     1      31.123 -11.753 -20.484  0.00  0.00    -0.204 F 
ATOM     24  O   UNL     1      34.940 -10.348 -24.182  0.00  0.00    -0.448 OA
ATOM     25  O   UNL     1      34.199  -8.066 -24.087  0.00  0.00    -0.311 OA
ATOM     26  C   UNL     1      33.717 -12.000 -23.023  0.00  0.00    +0.034 C 
ATOM     27  C   UNL     1      33.978 -10.648 -23.251  0.00  0.00    +0.138 C 
ATOM     28  C   UNL     1      33.260  -9.661 -22.565  0.00  0.00    +0.043 C 
ATOM     29  C   UNL     1      32.751 -12.371 -22.088  0.00  0.00    +0.030 C 
ATOM     30  C   UNL     1      33.552  -8.214 -22.824  0.00  0.00    +0.176 C 
ATOM     31  C   UNL     1      32.301 -10.042 -21.621  0.00  0.00    +0.031 C 
ATOM     32  C   UNL     1      32.046 -11.393 -21.385  0.00  0.00    +0.140 C 
ATOM     33  C   UNL     1      35.303  -8.963 -24.185  0.00  0.00    +0.361 C 
ENDBRANCH  22  26
ENDBRANCH   2  22
TORSDOF 6
ENDMDL
MODEL 4
REMARK VINA RESULT:     -11.5      1.908      2.567
REMARK  Name = 45268539
REMARK  6 active torsions:
REMARK  status: ('A' for Active; 'I' for Inactive)
REMARK    1  A    between atoms: N_2  and  C_22
REMARK    2  A    between atoms: N_3  and  C_7
REMARK    3  A    between atoms: N_3  and  O_12
REMARK    4  A    between atoms: C_8  and  C_14
REMARK    5  A    between atoms: C_15  and  C_16
REMARK    6  A    between atoms: C_22  and  C_26
REMARK                            x       y       z     vdW  Elec       q    Type
REMARK                         _______ _______ _______ _____ _____    ______ ____
ROOT
ATOM      1  O   UNL     1      32.166 -23.543 -15.557  0.00  0.00    -0.273 OA
ATOM      2  N   UNL     1      34.440 -23.285 -14.914  0.00  0.00    -0.253 N 
ATOM      3  C   UNL     1      35.530 -22.603 -15.489  0.00  0.00    +0.052 C 
ATOM      4  C   UNL     1      35.141 -21.970 -16.669  0.00  0.00    +0.018 C 
ATOM      5  C   UNL     1      33.299 -23.131 -15.684  0.00  0.00    +0.252 C 
ATOM      6  C   UNL     1      33.734 -22.270 -16.846  0.00  0.00    +0.202 C 
ATOM      7  C   UNL     1      36.008 -21.227 -17.443  0.00  0.00    -0.001 C 
ATOM      8  C   UNL     1      36.833 -22.508 -15.037  0.00  0.00    +0.015 C 
ATOM      9  C   UNL     1      37.325 -21.125 -16.994  0.00  0.00    -0.000 C 
ATOM     10  C   UNL     1      37.734 -21.759 -15.804  0.00  0.00    +0.001 C 
ENDROOT
BRANCH   7  11
ATOM     11  C   UNL     1      35.610 -20.567 -18.673  0.00  0.00    -0.000 C 
ATOM     12  C   UNL     1      36.334 -19.623 -19.325  0.00  0.00    -0.000 C 
BRANCH  12  13
ATOM     13  C   UNL     1      35.938 -18.965 -20.583  0.00  0.00    -0.000 C 
ATOM     14  C   UNL     1      34.762 -19.347 -21.230  0.00  0.00    -0.000 C 
ATOM     15  C   UNL     1      36.738 -17.961 -21.126  0.00  0.00    -0.000 C 
ATOM     16  C   UNL     1      34.388 -18.724 -22.421  0.00  0.00    +0.000 C 
ATOM     17  C   UNL     1      36.364 -17.338 -22.317  0.00  0.00    +0.000 C 
ATOM     18  C   UNL     1      35.189 -17.720 -22.965  0.00  0.00    +0.000 C 
ENDBRANCH  12  13
ENDBRANCH   7  11
BRANCH   6  19
ATOM     19  N   UNL     1      32.946 -21.903 -17.793  0.00  0.00    -0.075 NA
BRANCH  19  20
ATOM     20  O   UNL     1      31.741 -21.475 -17.228  0.00  0.00    -0.294 OA
ATOM     21  H   UNL     1      31.235 -20.809 -17.651  0.00  0.00    +0.238 HD
ENDBRANCH  19  20
ENDBRANCH   6  19
BRANCH   2  22
ATOM     22  C   UNL     1      34.531 -24.035 -13.686  0.00  0.00    +0.128 C 
BRANCH  22  26
ATOM     23  F   UNL     1      37.398 -21.658 -10.559  0.00  0.00    -0.204 F 
ATOM     24  O   UNL     1      36.712 -25.703 -14.217  0.00  0.00    -0.448 OA
ATOM     25  O   UNL     1      39.082 -26.085 -14.247  0.00  0.00    -0.311 OA
ATOM     26  C   UNL     1      35.863 -23.859 -13.016  0.00  0.00    +0.034 C 
ATOM     27  C   UNL     1      36.933 -24.708 -13.299  0.00  0.00    +0.138 C 
ATOM     28  C   UNL     1      38.174 -24.519 -12.678  0.00  0.00    +0.043 C 
ATOM     29  C   UNL     1      36.023 -22.828 -12.090  0.00  0.00    +0.030 C 
ATOM     30  C   UNL     1      39.312 -25.439 -12.996  0.00  0.00    +0.176 C 
ATOM     31  C   UNL     1      38.322 -23.490 -11.742  0.00  0.00    +0.031 C 
ATOM     32  C   UNL     1      37.249 -22.646 -11.451  0.00  0.00    +0.140 C 
ATOM     33  C   UNL     1      37.777 -26.658 -14.275  0.00  0.00    +0.361 C 
ENDBRANCH  22  26
ENDBRANCH   2  22
TORSDOF 6
ENDMDL
MODEL 5
REMARK VINA RESULT:     -11.3      2.504      3.378
REMARK  Name = 45268539
REMARK  6 active torsions:
REMARK  status: ('A' for Active; 'I' for Inactive)
REMARK    1  A    between atoms: N_2  and  C_22
REMARK    2  A    between atoms: N_3  and  C_7
REMARK    3  A    between atoms: N_3  and  O_12
REMARK    4  A    between atoms: C_8  and  C_14
REMARK    5  A    between atoms: C_15  and  C_16
REMARK    6  A    between atoms: C_22  and  C_26
REMARK                            x       y       z     vdW  Elec       q    Type
REMARK                         _______ _______ _______ _____ _____    ______ ____
ROOT
ATOM      1  O   UNL     1      37.769 -22.079 -15.195  0.00  0.00    -0.273 OA
ATOM      2  N   UNL     1      35.468 -22.650 -15.364  0.00  0.00    -0.253 N 
ATOM      3  C   UNL     1      34.462 -22.323 -16.293  0.00  0.00    +0.052 C 
ATOM      4  C   UNL     1      34.973 -21.496 -17.294  0.00  0.00    +0.018 C 
ATOM      5  C   UNL     1      36.671 -22.059 -15.710  0.00  0.00    +0.252 C 
ATOM      6  C   UNL     1      36.373 -21.294 -16.977  0.00  0.00    +0.202 C 
ATOM      7  C   UNL     1      34.208 -21.020 -18.338  0.00  0.00    -0.001 C 
ATOM      8  C   UNL     1      33.134 -22.707 -16.310  0.00  0.00    +0.015 C 
ATOM      9  C   UNL     1      32.866 -21.403 -18.362  0.00  0.00    -0.000 C 
ATOM     10  C   UNL     1      32.334 -22.237 -17.359  0.00  0.00    +0.001 C 
ENDROOT
BRANCH   7  11
ATOM     11  C   UNL     1      34.733 -20.158 -19.381  0.00  0.00    -0.000 C 
ATOM     12  C   UNL     1      33.985 -19.412 -20.231  0.00  0.00    -0.000 C 
BRANCH  12  13
ATOM     13  C   UNL     1      34.518 -18.524 -21.279  0.00  0.00    -0.000 C 
ATOM     14  C   UNL     1      35.323 -17.439 -20.931  0.00  0.00    -0.000 C 
ATOM     15  C   UNL     1      34.220 -18.768 -22.619  0.00  0.00    -0.000 C 
ATOM     16  C   UNL     1      35.828 -16.598 -21.923  0.00  0.00    +0.000 C 
ATOM     17  C   UNL     1      34.725 -17.928 -23.611  0.00  0.00    +0.000 C 
ATOM     18  C   UNL     1      35.528 -16.842 -23.263  0.00  0.00    +0.000 C 
ENDBRANCH  12  13
ENDBRANCH   7  11
BRANCH   6  19
ATOM     19  N   UNL     1      37.250 -20.602 -17.613  0.00  0.00    -0.075 NA
BRANCH  19  20
ATOM     20  O   UNL     1      37.668 -19.551 -16.792  0.00  0.00    -0.294 OA
ATOM     21  H   UNL     1      37.567 -18.664 -17.077  0.00  0.00    +0.238 HD
ENDBRANCH  19  20
ENDBRANCH   6  19
BRANCH   2  22
ATOM     22  C   UNL     1      35.243 -23.492 -14.214  0.00  0.00    +0.128 C 
BRANCH  22  26
ATOM     23  F   UNL     1      37.642 -21.895 -10.297  0.00  0.00    -0.204 F 
ATOM     24  O   UNL     1      37.377 -25.248 -14.646  0.00  0.00    -0.448 OA
ATOM     25  O   UNL     1      39.685 -25.833 -14.342  0.00  0.00    -0.311 OA
ATOM     26  C   UNL     1      36.441 -23.542 -13.311  0.00  0.00    +0.034 C 
ATOM     27  C   UNL     1      37.490 -24.430 -13.549  0.00  0.00    +0.138 C 
ATOM     28  C   UNL     1      38.608 -24.453 -12.706  0.00  0.00    +0.043 C 
ATOM     29  C   UNL     1      36.496 -22.685 -12.211  0.00  0.00    +0.030 C 
ATOM     30  C   UNL     1      39.726 -25.412 -12.979  0.00  0.00    +0.176 C 
ATOM     31  C   UNL     1      38.649 -23.598 -11.600  0.00  0.00    +0.031 C 
ATOM     32  C   UNL     1      37.596 -22.715 -11.355  0.00  0.00    +0.140 C 
ATOM     33  C   UNL     1      38.373 -26.275 -14.684  0.00  0.00    +0.361 C 
ENDBRANCH  22  26
ENDBRANCH   2  22
TORSDOF 6
ENDMDL
MODEL 6
REMARK VINA RESULT:     -10.9      7.280     13.186
REMARK  Name = 45268539
REMARK  6 active torsions:
REMARK  status: ('A' for Active; 'I' for Inactive)
REMARK    1  A    between atoms: N_2  and  C_22
REMARK    2  A    between atoms: N_3  and  C_7
REMARK    3  A    between atoms: N_3  and  O_12
REMARK    4  A    between atoms: C_8  and  C_14
REMARK    5  A    between atoms: C_15  and  C_16
REMARK    6  A    between atoms: C_22  and  C_26
REMARK                            x       y       z     vdW  Elec       q    Type
REMARK                         _______ _______ _______ _____ _____    ______ ____
ROOT
ATOM      1  O   UNL     1      34.214 -14.892 -25.914  0.00  0.00    -0.273 OA
ATOM      2  N   UNL     1      33.598 -13.413 -24.157  0.00  0.00    -0.253 N 
ATOM      3  C   UNL     1      33.745 -13.469 -22.758  0.00  0.00    +0.052 C 
ATOM      4  C   UNL     1      34.386 -14.649 -22.381  0.00  0.00    +0.018 C 
ATOM      5  C   UNL     1      34.132 -14.543 -24.755  0.00  0.00    +0.252 C 
ATOM      6  C   UNL     1      34.657 -15.373 -23.609  0.00  0.00    +0.202 C 
ATOM      7  C   UNL     1      34.662 -14.968 -21.068  0.00  0.00    -0.001 C 
ATOM      8  C   UNL     1      33.350 -12.550 -21.804  0.00  0.00    +0.015 C 
ATOM      9  C   UNL     1      34.266 -14.045 -20.099  0.00  0.00    -0.000 C 
ATOM     10  C   UNL     1      33.617 -12.849 -20.462  0.00  0.00    +0.001 C 
ENDROOT
BRANCH   7  11
ATOM     11  C   UNL     1      35.327 -16.195 -20.670  0.00  0.00    -0.000 C 
ATOM     12  C   UNL     1      34.726 -17.403 -20.534  0.00  0.00    -0.000 C 
BRANCH  12  13
ATOM     13  C   UNL     1      35.405 -18.653 -20.147  0.00  0.00    -0.000 C 
ATOM     14  C   UNL     1      34.654 -19.775 -19.797  0.00  0.00    -0.000 C 
ATOM     15  C   UNL     1      36.799 -18.714 -20.132  0.00  0.00    -0.000 C 
ATOM     16  C   UNL     1      35.297 -20.958 -19.430  0.00  0.00    +0.000 C 
ATOM     17  C   UNL     1      37.441 -19.896 -19.766  0.00  0.00    +0.000 C 
ATOM     18  C   UNL     1      36.690 -21.018 -19.414  0.00  0.00    +0.000 C 
ENDBRANCH  12  13
ENDBRANCH   7  11
BRANCH   6  19
ATOM     19  N   UNL     1      35.232 -16.513 -23.760  0.00  0.00    -0.075 NA
BRANCH  19  20
ATOM     20  O   UNL     1      34.307 -17.407 -24.307  0.00  0.00    -0.294 OA
ATOM     21  H   UNL     1      33.533 -17.632 -23.828  0.00  0.00    +0.238 HD
ENDBRANCH  19  20
ENDBRANCH   6  19
BRANCH   2  22
ATOM     22  C   UNL     1      32.971 -12.312 -24.847  0.00  0.00    +0.128 C 
BRANCH  22  26
ATOM     23  F   UNL     1      36.311 -10.688 -27.986  0.00  0.00    -0.204 F 
ATOM     24  O   UNL     1      33.428  -9.990 -23.358  0.00  0.00    -0.448 OA
ATOM     25  O   UNL     1      34.854  -8.160 -22.739  0.00  0.00    -0.311 OA
ATOM     26  C   UNL     1      33.967 -11.270 -25.265  0.00  0.00    +0.034 C 
ATOM     27  C   UNL     1      34.172 -10.120 -24.504  0.00  0.00    +0.138 C 
ATOM     28  C   UNL     1      35.117  -9.165 -24.899  0.00  0.00    +0.043 C 
ATOM     29  C   UNL     1      34.692 -11.461 -26.441  0.00  0.00    +0.030 C 
ATOM     30  C   UNL     1      35.326  -7.936 -24.068  0.00  0.00    +0.176 C 
ATOM     31  C   UNL     1      35.831  -9.358 -26.086  0.00  0.00    +0.031 C 
ATOM     32  C   UNL     1      35.620 -10.505 -26.853  0.00  0.00    +0.140 C 
ATOM     33  C   UNL     1      33.531  -8.690 -22.767  0.00  0.00    +0.361 C 
ENDBRANCH  22  26
ENDBRANCH   2  22
TORSDOF 6
ENDMDL
MODEL 7
REMARK VINA RESULT:     -10.9      5.771      9.741
REMARK  Name = 45268539
REMARK  6 active torsions:
REMARK  status: ('A' for Active; 'I' for Inactive)
REMARK    1  A    between atoms: N_2  and  C_22
REMARK    2  A    between atoms: N_3  and  C_7
REMARK    3  A    between atoms: N_3  and  O_12
REMARK    4  A    between atoms: C_8  and  C_14
REMARK    5  A    between atoms: C_15  and  C_16
REMARK    6  A    between atoms: C_22  and  C_26
REMARK                            x       y       z     vdW  Elec       q    Type
REMARK                         _______ _______ _______ _____ _____    ______ ____
ROOT
ATOM      1  O   UNL     1      33.931 -16.074 -25.790  0.00  0.00    -0.273 OA
ATOM      2  N   UNL     1      34.382 -16.423 -23.482  0.00  0.00    -0.253 N 
ATOM      3  C   UNL     1      34.520 -15.549 -22.387  0.00  0.00    +0.052 C 
ATOM      4  C   UNL     1      34.349 -14.225 -22.794  0.00  0.00    +0.018 C 
ATOM      5  C   UNL     1      34.116 -15.719 -24.645  0.00  0.00    +0.252 C 
ATOM      6  C   UNL     1      34.090 -14.271 -24.220  0.00  0.00    +0.202 C 
ATOM      7  C   UNL     1      34.432 -13.156 -21.927  0.00  0.00    -0.001 C 
ATOM      8  C   UNL     1      34.786 -15.847 -21.063  0.00  0.00    +0.015 C 
ATOM      9  C   UNL     1      34.699 -13.449 -20.589  0.00  0.00    -0.000 C 
ATOM     10  C   UNL     1      34.875 -14.780 -20.161  0.00  0.00    +0.001 C 
ENDROOT
BRANCH   7  11
ATOM     11  C   UNL     1      34.256 -11.778 -22.345  0.00  0.00    -0.000 C 
ATOM     12  C   UNL     1      33.145 -11.030 -22.132  0.00  0.00    -0.000 C 
BRANCH  12  13
ATOM     13  C   UNL     1      32.973  -9.625 -22.541  0.00  0.00    -0.000 C 
ATOM     14  C   UNL     1      33.948  -9.000 -23.319  0.00  0.00    -0.000 C 
ATOM     15  C   UNL     1      31.834  -8.919 -22.151  0.00  0.00    -0.000 C 
ATOM     16  C   UNL     1      33.785  -7.670 -23.706  0.00  0.00    +0.000 C 
ATOM     17  C   UNL     1      31.671  -7.590 -22.539  0.00  0.00    +0.000 C 
ATOM     18  C   UNL     1      32.647  -6.964 -23.315  0.00  0.00    +0.000 C 
ENDBRANCH  12  13
ENDBRANCH   7  11
BRANCH   6  19
ATOM     19  N   UNL     1      33.872 -13.296 -25.029  0.00  0.00    -0.075 NA
BRANCH  19  20
ATOM     20  O   UNL     1      32.582 -13.432 -25.551  0.00  0.00    -0.294 OA
ATOM     21  H   UNL     1      32.295 -14.262 -25.880  0.00  0.00    +0.238 HD
ENDBRANCH  19  20
ENDBRANCH   6  19
BRANCH   2  22
ATOM     22  C   UNL     1      34.505 -17.856 -23.375  0.00  0.00    +0.128 C 
BRANCH  22  26
ATOM     23  F   UNL     1      38.951 -17.826 -21.404  0.00  0.00    -0.204 F 
ATOM     24  O   UNL     1      33.683 -19.382 -21.181  0.00  0.00    -0.448 OA
ATOM     25  O   UNL     1      34.198 -20.883 -19.379  0.00  0.00    -0.311 OA
ATOM     26  C   UNL     1      35.446 -18.259 -22.277  0.00  0.00    +0.034 C 
ATOM     27  C   UNL     1      35.007 -19.020 -21.193  0.00  0.00    +0.138 C 
ATOM     28  C   UNL     1      35.901 -19.402 -20.185  0.00  0.00    +0.043 C 
ATOM     29  C   UNL     1      36.780 -17.858 -22.347  0.00  0.00    +0.030 C 
ATOM     30  C   UNL     1      35.412 -20.220 -19.029  0.00  0.00    +0.176 C 
ATOM     31  C   UNL     1      37.234 -18.986 -20.257  0.00  0.00    +0.031 C 
ATOM     32  C   UNL     1      37.672 -18.217 -21.336  0.00  0.00    +0.140 C 
ATOM     33  C   UNL     1      33.270 -19.954 -19.936  0.00  0.00    +0.361 C 
ENDBRANCH  22  26
ENDBRANCH   2  22
TORSDOF 6
ENDMDL
MODEL 8
REMARK VINA RESULT:     -10.8      9.847     15.489
REMARK  Name = 45268539
REMARK  6 active torsions:
REMARK  status: ('A' for Active; 'I' for Inactive)
REMARK    1  A    between atoms: N_2  and  C_22
REMARK    2  A    between atoms: N_3  and  C_7
REMARK    3  A    between atoms: N_3  and  O_12
REMARK    4  A    between atoms: C_8  and  C_14
REMARK    5  A    between atoms: C_15  and  C_16
REMARK    6  A    between atoms: C_22  and  C_26
REMARK                            x       y       z     vdW  Elec       q    Type
REMARK                         _______ _______ _______ _____ _____    ______ ____
ROOT
ATOM      1  O   UNL     1      30.392 -10.006 -20.293  0.00  0.00    -0.273 OA
ATOM      2  N   UNL     1      31.652  -9.234 -22.155  0.00  0.00    -0.253 N 
ATOM      3  C   UNL     1      32.743  -9.770 -22.866  0.00  0.00    +0.052 C 
ATOM      4  C   UNL     1      33.120 -11.000 -22.327  0.00  0.00    +0.018 C 
ATOM      5  C   UNL     1      31.267 -10.081 -21.129  0.00  0.00    +0.252 C 
ATOM      6  C   UNL     1      32.218 -11.251 -21.220  0.00  0.00    +0.202 C 
ATOM      7  C   UNL     1      34.163 -11.751 -22.827  0.00  0.00    -0.001 C 
ATOM      8  C   UNL     1      33.419  -9.242 -23.951  0.00  0.00    +0.015 C 
ATOM      9  C   UNL     1      34.850 -11.225 -23.922  0.00  0.00    -0.000 C 
ATOM     10  C   UNL     1      34.482  -9.985 -24.478  0.00  0.00    +0.001 C 
ENDROOT
BRANCH   7  11
ATOM     11  C   UNL     1      34.561 -13.031 -22.269  0.00  0.00    -0.000 C 
ATOM     12  C   UNL     1      34.595 -14.204 -22.948  0.00  0.00    -0.000 C 
BRANCH  12  13
ATOM     13  C   UNL     1      35.015 -15.500 -22.387  0.00  0.00    -0.000 C 
ATOM     14  C   UNL     1      35.231 -16.589 -23.231  0.00  0.00    -0.000 C 
ATOM     15  C   UNL     1      35.200 -15.638 -21.011  0.00  0.00    -0.000 C 
ATOM     16  C   UNL     1      35.629 -17.817 -22.700  0.00  0.00    +0.000 C 
ATOM     17  C   UNL     1      35.598 -16.864 -20.480  0.00  0.00    +0.000 C 
ATOM     18  C   UNL     1      35.811 -17.954 -21.324  0.00  0.00    +0.000 C 
ENDBRANCH  12  13
ENDBRANCH   7  11
BRANCH   6  19
ATOM     19  N   UNL     1      32.183 -12.259 -20.424  0.00  0.00    -0.075 NA
BRANCH  19  20
ATOM     20  O   UNL     1      32.061 -11.787 -19.114  0.00  0.00    -0.294 OA
ATOM     21  H   UNL     1      32.736 -11.963 -18.488  0.00  0.00    +0.238 HD
ENDBRANCH  19  20
ENDBRANCH   6  19
BRANCH   2  22
ATOM     22  C   UNL     1      31.037  -7.970 -22.479  0.00  0.00    +0.128 C 
BRANCH  22  26
ATOM     23  F   UNL     1      32.924  -6.337 -18.305  0.00  0.00    -0.204 F 
ATOM     24  O   UNL     1      31.285  -5.364 -23.461  0.00  0.00    -0.448 OA
ATOM     25  O   UNL     1      31.454  -3.000 -23.075  0.00  0.00    -0.311 OA
ATOM     26  C   UNL     1      31.591  -6.847 -21.652  0.00  0.00    +0.034 C 
ATOM     27  C   UNL     1      31.706  -5.557 -22.169  0.00  0.00    +0.138 C 
ATOM     28  C   UNL     1      32.210  -4.516 -21.379  0.00  0.00    +0.043 C 
ATOM     29  C   UNL     1      32.003  -7.108 -20.345  0.00  0.00    +0.030 C 
ATOM     30  C   UNL     1      32.323  -3.136 -21.951  0.00  0.00    +0.176 C 
ATOM     31  C   UNL     1      32.630  -4.789 -20.074  0.00  0.00    +0.031 C 
ATOM     32  C   UNL     1      32.525  -6.081 -19.558  0.00  0.00    +0.140 C 
ATOM     33  C   UNL     1      31.649  -4.081 -23.984  0.00  0.00    +0.361 C 
ENDBRANCH  22  26
ENDBRANCH   2  22
TORSDOF 6
ENDMDL
MODEL 9
REMARK VINA RESULT:     -10.8      1.858      2.512
REMARK  Name = 45268539
REMARK  6 active torsions:
REMARK  status: ('A' for Active; 'I' for Inactive)
REMARK    1  A    between atoms: N_2  and  C_22
REMARK    2  A    between atoms: N_3  and  C_7
REMARK    3  A    between atoms: N_3  and  O_12
REMARK    4  A    between atoms: C_8  and  C_14
REMARK    5  A    between atoms: C_15  and  C_16
REMARK    6  A    between atoms: C_22  and  C_26
REMARK                            x       y       z     vdW  Elec       q    Type
REMARK                         _______ _______ _______ _____ _____    ______ ____
ROOT
ATOM      1  O   UNL     1      37.608 -22.446 -15.220  0.00  0.00    -0.273 OA
ATOM      2  N   UNL     1      35.277 -22.873 -15.397  0.00  0.00    -0.253 N 
ATOM      3  C   UNL     1      34.286 -22.442 -16.301  0.00  0.00    +0.052 C 
ATOM      4  C   UNL     1      34.839 -21.596 -17.263  0.00  0.00    +0.018 C 
ATOM      5  C   UNL     1      36.511 -22.336 -15.724  0.00  0.00    +0.252 C 
ATOM      6  C   UNL     1      36.250 -21.492 -16.948  0.00  0.00    +0.202 C 
ATOM      7  C   UNL     1      34.097 -21.025 -18.275  0.00  0.00    -0.001 C 
ATOM      8  C   UNL     1      32.938 -22.746 -16.325  0.00  0.00    +0.015 C 
ATOM      9  C   UNL     1      32.735 -21.328 -18.307  0.00  0.00    -0.000 C 
ATOM     10  C   UNL     1      32.161 -22.179 -17.342  0.00  0.00    +0.001 C 
ENDROOT
BRANCH   7  11
ATOM     11  C   UNL     1      34.666 -20.144 -19.279  0.00  0.00    -0.000 C 
ATOM     12  C   UNL     1      33.957 -19.452 -20.206  0.00  0.00    -0.000 C 
BRANCH  12  13
ATOM     13  C   UNL     1      34.533 -18.544 -21.213  0.00  0.00    -0.000 C 
ATOM     14  C   UNL     1      35.322 -17.466 -20.811  0.00  0.00    -0.000 C 
ATOM     15  C   UNL     1      34.291 -18.764 -22.569  0.00  0.00    -0.000 C 
ATOM     16  C   UNL     1      35.867 -16.606 -21.766  0.00  0.00    +0.000 C 
ATOM     17  C   UNL     1      34.836 -17.904 -23.523  0.00  0.00    +0.000 C 
ATOM     18  C   UNL     1      35.623 -16.825 -23.121  0.00  0.00    +0.000 C 
ENDBRANCH  12  13
ENDBRANCH   7  11
BRANCH   6  19
ATOM     19  N   UNL     1      37.163 -20.821 -17.557  0.00  0.00    -0.075 NA
BRANCH  19  20
ATOM     20  O   UNL     1      37.581 -19.781 -16.721  0.00  0.00    -0.294 OA
ATOM     21  H   UNL     1      37.483 -18.891 -16.997  0.00  0.00    +0.238 HD
ENDBRANCH  19  20
ENDBRANCH   6  19
BRANCH   2  22
ATOM     22  C   UNL     1      35.010 -23.757 -14.289  0.00  0.00    +0.128 C 
BRANCH  22  26
ATOM     23  F   UNL     1      38.454 -27.189 -14.378  0.00  0.00    -0.204 F 
ATOM     24  O   UNL     1      36.368 -22.633 -12.119  0.00  0.00    -0.448 OA
ATOM     25  O   UNL     1      37.875 -22.857 -10.263  0.00  0.00    -0.311 OA
ATOM     26  C   UNL     1      36.268 -24.354 -13.730  0.00  0.00    +0.034 C 
ATOM     27  C   UNL     1      36.926 -23.770 -12.647  0.00  0.00    +0.138 C 
ATOM     28  C   UNL     1      38.090 -24.348 -12.126  0.00  0.00    +0.043 C 
ATOM     29  C   UNL     1      36.786 -25.511 -14.312  0.00  0.00    +0.030 C 
ATOM     30  C   UNL     1      38.782 -23.707 -10.962  0.00  0.00    +0.176 C 
ATOM     31  C   UNL     1      38.609 -25.501 -12.724  0.00  0.00    +0.031 C 
ATOM     32  C   UNL     1      37.957 -26.082 -13.813  0.00  0.00    +0.140 C 
ATOM     33  C   UNL     1      37.221 -21.976 -11.174  0.00  0.00    +0.361 C 
ENDBRANCH  22  26
ENDBRANCH   2  22
TORSDOF 6
ENDMDL
