MODEL 1
REMARK VINA RESULT:     -13.0      0.000      0.000
REMARK  Name = 11952989
REMARK  5 active torsions:
REMARK  status: ('A' for Active; 'I' for Inactive)
REMARK    1  A    between atoms: C_4  and  C_21
REMARK    2  A    between atoms: C_6  and  C_11
REMARK    3  A    between atoms: C_24  and  C_27
REMARK    4  A    between atoms: C_27  and  C_29
REMARK    5  A    between atoms: C_29  and  O_30
REMARK                            x       y       z     vdW  Elec       q    Type
REMARK                         _______ _______ _______ _____ _____    ______ ____
ROOT
ATOM      1  N   UNL     1      32.044 -23.900 -14.159  0.00  0.00    -0.297 N 
ATOM      2  N   UNL     1      31.381 -22.476 -15.985  0.00  0.00    -0.229 NA
ATOM      3  C   UNL     1      33.687 -23.110 -15.447  0.00  0.00    +0.033 C 
ATOM      4  C   UNL     1      34.253 -23.924 -14.429  0.00  0.00    +0.017 C 
ATOM      5  C   UNL     1      32.310 -23.116 -15.250  0.00  0.00    +0.132 C 
ATOM      6  C   UNL     1      33.264 -21.678 -17.319  0.00  0.00    +0.019 C 
ATOM      7  C   UNL     1      34.183 -22.360 -16.526  0.00  0.00    +0.004 C 
ATOM      8  C   UNL     1      33.217 -24.396 -13.652  0.00  0.00    +0.063 C 
ATOM      9  C   UNL     1      31.914 -21.771 -17.010  0.00  0.00    +0.100 C 
ATOM     10  H   UNL     1      31.147 -24.080 -13.794  0.00  0.00    +0.154 HD
ENDROOT
BRANCH   6  11
ATOM     11  C   UNL     1      33.709 -20.887 -18.445  0.00  0.00    +0.001 C 
ATOM     12  C   UNL     1      35.510 -19.801 -19.668  0.00  0.00    +0.000 C 
ATOM     13  C   UNL     1      35.061 -20.568 -18.581  0.00  0.00    +0.000 C 
ATOM     14  C   UNL     1      34.575 -19.350 -20.631  0.00  0.00    +0.000 C 
ATOM     15  C   UNL     1      32.789 -20.444 -19.391  0.00  0.00    +0.000 C 
ATOM     16  C   UNL     1      33.218 -19.681 -20.477  0.00  0.00    +0.000 C 
ATOM     17  C   UNL     1      36.867 -19.471 -19.822  0.00  0.00    +0.000 C 
ATOM     18  C   UNL     1      35.024 -18.583 -21.718  0.00  0.00    +0.000 C 
ATOM     19  C   UNL     1      37.294 -18.707 -20.908  0.00  0.00    +0.000 C 
ATOM     20  C   UNL     1      36.375 -18.264 -21.855  0.00  0.00    +0.000 C 
ENDBRANCH   6  11
BRANCH   4  21
ATOM     21  C   UNL     1      35.623 -24.255 -14.169  0.00  0.00    +0.001 C 
ATOM     22  C   UNL     1      36.163 -25.441 -14.670  0.00  0.00    -0.000 C 
ATOM     23  C   UNL     1      36.420 -23.393 -13.414  0.00  0.00    -0.000 C 
ATOM     24  C   UNL     1      38.291 -24.900 -13.662  0.00  0.00    -0.011 C 
ATOM     25  C   UNL     1      37.496 -25.762 -14.417  0.00  0.00    -0.004 C 
ATOM     26  C   UNL     1      37.753 -23.715 -13.160  0.00  0.00    -0.004 C 
BRANCH  24  27
ATOM     27  C   UNL     1      39.718 -25.244 -13.394  0.00  0.00    +0.136 C 
BRANCH  27  29
ATOM     28  O   UNL     1      41.349 -23.692 -14.321  0.00  0.00    -0.250 OA
ATOM     29  C   UNL     1      40.676 -24.706 -14.439  0.00  0.00    +0.318 C 
BRANCH  29  30
ATOM     30  O   UNL     1      40.708 -25.491 -15.548  0.00  0.00    -0.480 OA
ATOM     31  H   UNL     1      41.498 -25.938 -15.783  0.00  0.00    +0.295 HD
ENDBRANCH  29  30
ENDBRANCH  27  29
ENDBRANCH  24  27
ENDBRANCH   4  21
TORSDOF 5
ENDMDL
MODEL 2
REMARK VINA RESULT:     -12.7      4.788      7.270
REMARK  Name = 11952989
REMARK  5 active torsions:
REMARK  status: ('A' for Active; 'I' for Inactive)
REMARK    1  A    between atoms: C_4  and  C_21
REMARK    2  A    between atoms: C_6  and  C_11
REMARK    3  A    between atoms: C_24  and  C_27
REMARK    4  A    between atoms: C_27  and  C_29
REMARK    5  A    between atoms: C_29  and  O_30
REMARK                            x       y       z     vdW  Elec       q    Type
REMARK                         _______ _______ _______ _____ _____    ______ ____
ROOT
ATOM      1  N   UNL     1      32.964 -24.639 -13.302  0.00  0.00    -0.297 N 
ATOM      2  N   UNL     1      34.968 -23.960 -14.452  0.00  0.00    -0.229 NA
ATOM      3  C   UNL     1      32.702 -23.186 -14.976  0.00  0.00    +0.033 C 
ATOM      4  C   UNL     1      31.429 -23.474 -14.414  0.00  0.00    +0.017 C 
ATOM      5  C   UNL     1      33.636 -23.928 -14.260  0.00  0.00    +0.132 C 
ATOM      6  C   UNL     1      34.552 -22.372 -16.259  0.00  0.00    +0.019 C 
ATOM      7  C   UNL     1      33.181 -22.375 -16.018  0.00  0.00    +0.004 C 
ATOM      8  C   UNL     1      31.622 -24.371 -13.386  0.00  0.00    +0.063 C 
ATOM      9  C   UNL     1      35.374 -23.161 -15.467  0.00  0.00    +0.100 C 
ATOM     10  H   UNL     1      33.380 -25.249 -12.650  0.00  0.00    +0.154 HD
ENDROOT
BRANCH   6  11
ATOM     11  C   UNL     1      35.110 -21.559 -17.318  0.00  0.00    +0.001 C 
ATOM     12  C   UNL     1      34.800 -20.238 -19.337  0.00  0.00    +0.000 C 
ATOM     13  C   UNL     1      34.276 -21.029 -18.302  0.00  0.00    +0.000 C 
ATOM     14  C   UNL     1      36.192 -19.982 -19.375  0.00  0.00    +0.000 C 
ATOM     15  C   UNL     1      36.478 -21.308 -17.355  0.00  0.00    +0.000 C 
ATOM     16  C   UNL     1      37.017 -20.524 -18.375  0.00  0.00    +0.000 C 
ATOM     17  C   UNL     1      33.975 -19.696 -20.337  0.00  0.00    +0.000 C 
ATOM     18  C   UNL     1      36.717 -19.191 -20.410  0.00  0.00    +0.000 C 
ATOM     19  C   UNL     1      34.515 -18.913 -21.357  0.00  0.00    +0.000 C 
ATOM     20  C   UNL     1      35.883 -18.661 -21.394  0.00  0.00    +0.000 C 
ENDBRANCH   6  11
BRANCH   4  21
ATOM     21  C   UNL     1      30.130 -22.982 -14.773  0.00  0.00    +0.001 C 
ATOM     22  C   UNL     1      29.661 -21.786 -14.228  0.00  0.00    -0.000 C 
ATOM     23  C   UNL     1      29.334 -23.698 -15.668  0.00  0.00    -0.000 C 
ATOM     24  C   UNL     1      27.604 -22.025 -15.472  0.00  0.00    -0.011 C 
ATOM     25  C   UNL     1      28.399 -21.308 -14.578  0.00  0.00    -0.004 C 
ATOM     26  C   UNL     1      28.071 -23.221 -16.017  0.00  0.00    -0.004 C 
BRANCH  24  27
ATOM     27  C   UNL     1      26.254 -21.511 -15.847  0.00  0.00    +0.136 C 
BRANCH  27  29
ATOM     28  O   UNL     1      26.203 -21.566 -18.281  0.00  0.00    -0.250 OA
ATOM     29  C   UNL     1      26.198 -20.920 -17.241  0.00  0.00    +0.318 C 
BRANCH  29  30
ATOM     30  O   UNL     1      26.140 -19.562 -17.214  0.00  0.00    -0.480 OA
ATOM     31  H   UNL     1      25.435 -19.115 -17.639  0.00  0.00    +0.295 HD
ENDBRANCH  29  30
ENDBRANCH  27  29
ENDBRANCH  24  27
ENDBRANCH   4  21
TORSDOF 5
ENDMDL
MODEL 3
REMARK VINA RESULT:     -12.2      7.601     12.248
REMARK  Name = 11952989
REMARK  5 active torsions:
REMARK  status: ('A' for Active; 'I' for Inactive)
REMARK    1  A    between atoms: C_4  and  C_21
REMARK    2  A    between atoms: C_6  and  C_11
REMARK    3  A    between atoms: C_24  and  C_27
REMARK    4  A    between atoms: C_27  and  C_29
REMARK    5  A    between atoms: C_29  and  O_30
REMARK                            x       y       z     vdW  Elec       q    Type
REMARK                         _______ _______ _______ _____ _____    ______ ____
ROOT
ATOM      1  N   UNL     1      33.903 -13.756 -25.429  0.00  0.00    -0.297 N 
ATOM      2  N   UNL     1      34.939 -15.905 -25.095  0.00  0.00    -0.229 NA
ATOM      3  C   UNL     1      34.058 -14.463 -23.318  0.00  0.00    +0.033 C 
ATOM      4  C   UNL     1      33.427 -13.191 -23.330  0.00  0.00    +0.017 C 
ATOM      5  C   UNL     1      34.342 -14.787 -24.641  0.00  0.00    +0.132 C 
ATOM      6  C   UNL     1      35.049 -16.568 -22.748  0.00  0.00    +0.019 C 
ATOM      7  C   UNL     1      34.427 -15.393 -22.332  0.00  0.00    +0.004 C 
ATOM      8  C   UNL     1      33.346 -12.781 -24.644  0.00  0.00    +0.063 C 
ATOM      9  C   UNL     1      35.272 -16.764 -24.104  0.00  0.00    +0.100 C 
ATOM     10  H   UNL     1      33.977 -13.720 -26.411  0.00  0.00    +0.154 HD
ENDROOT
BRANCH   6  11
ATOM     11  C   UNL     1      35.455 -17.566 -21.783  0.00  0.00    +0.001 C 
ATOM     12  C   UNL     1      34.871 -19.344 -20.228  0.00  0.00    +0.000 C 
ATOM     13  C   UNL     1      34.495 -18.371 -21.168  0.00  0.00    +0.000 C 
ATOM     14  C   UNL     1      36.241 -19.504 -19.908  0.00  0.00    +0.000 C 
ATOM     15  C   UNL     1      36.801 -17.723 -21.468  0.00  0.00    +0.000 C 
ATOM     16  C   UNL     1      37.193 -18.685 -20.538  0.00  0.00    +0.000 C 
ATOM     17  C   UNL     1      33.919 -20.163 -19.599  0.00  0.00    +0.000 C 
ATOM     18  C   UNL     1      36.617 -20.477 -18.969  0.00  0.00    +0.000 C 
ATOM     19  C   UNL     1      34.312 -21.125 -18.668  0.00  0.00    +0.000 C 
ATOM     20  C   UNL     1      35.658 -21.282 -18.353  0.00  0.00    +0.000 C 
ENDBRANCH   6  11
BRANCH   4  21
ATOM     21  C   UNL     1      32.932 -12.396 -22.244  0.00  0.00    +0.001 C 
ATOM     22  C   UNL     1      32.795 -11.016 -22.394  0.00  0.00    -0.000 C 
ATOM     23  C   UNL     1      32.587 -13.002 -21.035  0.00  0.00    -0.000 C 
ATOM     24  C   UNL     1      31.968 -10.850 -20.130  0.00  0.00    -0.011 C 
ATOM     25  C   UNL     1      32.314 -10.244 -21.337  0.00  0.00    -0.004 C 
ATOM     26  C   UNL     1      32.105 -12.230 -19.979  0.00  0.00    -0.004 C 
BRANCH  24  27
ATOM     27  C   UNL     1      31.451 -10.023 -19.001  0.00  0.00    +0.136 C 
BRANCH  27  29
ATOM     28  O   UNL     1      32.007  -7.658 -19.161  0.00  0.00    -0.250 OA
ATOM     29  C   UNL     1      32.271  -8.776 -18.740  0.00  0.00    +0.318 C 
BRANCH  29  30
ATOM     30  O   UNL     1      33.360  -9.038 -17.969  0.00  0.00    -0.480 OA
ATOM     31  H   UNL     1      33.313  -9.693 -17.299  0.00  0.00    +0.295 HD
ENDBRANCH  29  30
ENDBRANCH  27  29
ENDBRANCH  24  27
ENDBRANCH   4  21
TORSDOF 5
ENDMDL
MODEL 4
REMARK VINA RESULT:     -11.3      4.255      6.224
REMARK  Name = 11952989
REMARK  5 active torsions:
REMARK  status: ('A' for Active; 'I' for Inactive)
REMARK    1  A    between atoms: C_4  and  C_21
REMARK    2  A    between atoms: C_6  and  C_11
REMARK    3  A    between atoms: C_24  and  C_27
REMARK    4  A    between atoms: C_27  and  C_29
REMARK    5  A    between atoms: C_29  and  O_30
REMARK                            x       y       z     vdW  Elec       q    Type
REMARK                         _______ _______ _______ _____ _____    ______ ____
ROOT
ATOM      1  N   UNL     1      36.192 -23.477 -13.862  0.00  0.00    -0.297 N 
ATOM      2  N   UNL     1      37.573 -22.308 -15.452  0.00  0.00    -0.229 NA
ATOM      3  C   UNL     1      35.126 -22.439 -15.526  0.00  0.00    +0.033 C 
ATOM      4  C   UNL     1      34.167 -23.071 -14.689  0.00  0.00    +0.017 C 
ATOM      5  C   UNL     1      36.378 -22.711 -14.982  0.00  0.00    +0.132 C 
ATOM      6  C   UNL     1      36.294 -21.216 -17.221  0.00  0.00    +0.019 C 
ATOM      7  C   UNL     1      35.084 -21.659 -16.693  0.00  0.00    +0.004 C 
ATOM      8  C   UNL     1      34.853 -23.701 -13.674  0.00  0.00    +0.063 C 
ATOM      9  C   UNL     1      37.473 -21.561 -16.576  0.00  0.00    +0.100 C 
ATOM     10  H   UNL     1      36.911 -23.814 -13.278  0.00  0.00    +0.154 HD
ENDROOT
BRANCH   6  11
ATOM     11  C   UNL     1      36.320 -20.409 -18.422  0.00  0.00    +0.001 C 
ATOM     12  C   UNL     1      35.181 -19.516 -20.377  0.00  0.00    +0.000 C 
ATOM     13  C   UNL     1      35.173 -20.294 -19.209  0.00  0.00    +0.000 C 
ATOM     14  C   UNL     1      36.369 -18.843 -20.753  0.00  0.00    +0.000 C 
ATOM     15  C   UNL     1      37.488 -19.748 -18.791  0.00  0.00    +0.000 C 
ATOM     16  C   UNL     1      37.514 -18.970 -19.948  0.00  0.00    +0.000 C 
ATOM     17  C   UNL     1      34.037 -19.389 -21.182  0.00  0.00    +0.000 C 
ATOM     18  C   UNL     1      36.377 -18.065 -21.922  0.00  0.00    +0.000 C 
ATOM     19  C   UNL     1      34.064 -18.611 -22.340  0.00  0.00    +0.000 C 
ATOM     20  C   UNL     1      35.231 -17.950 -22.709  0.00  0.00    +0.000 C 
ENDBRANCH   6  11
BRANCH   4  21
ATOM     21  C   UNL     1      32.737 -23.109 -14.792  0.00  0.00    +0.001 C 
ATOM     22  C   UNL     1      32.089 -22.393 -15.799  0.00  0.00    -0.000 C 
ATOM     23  C   UNL     1      31.991 -23.863 -13.885  0.00  0.00    -0.000 C 
ATOM     24  C   UNL     1      29.954 -23.185 -14.991  0.00  0.00    -0.011 C 
ATOM     25  C   UNL     1      30.699 -22.431 -15.898  0.00  0.00    -0.004 C 
ATOM     26  C   UNL     1      30.601 -23.901 -13.984  0.00  0.00    -0.004 C 
BRANCH  24  27
ATOM     27  C   UNL     1      28.467 -23.226 -15.100  0.00  0.00    +0.136 C 
BRANCH  27  29
ATOM     28  O   UNL     1      27.770 -21.209 -16.272  0.00  0.00    -0.250 OA
ATOM     29  C   UNL     1      27.924 -22.423 -16.264  0.00  0.00    +0.318 C 
BRANCH  29  30
ATOM     30  O   UNL     1      27.618 -23.214 -17.327  0.00  0.00    -0.480 OA
ATOM     31  H   UNL     1      27.437 -24.124 -17.196  0.00  0.00    +0.295 HD
ENDBRANCH  29  30
ENDBRANCH  27  29
ENDBRANCH  24  27
ENDBRANCH   4  21
TORSDOF 5
ENDMDL
MODEL 5
REMARK VINA RESULT:     -10.9      3.003      7.751
REMARK  Name = 11952989
REMARK  5 active torsions:
REMARK  status: ('A' for Active; 'I' for Inactive)
REMARK    1  A    between atoms: C_4  and  C_21
REMARK    2  A    between atoms: C_6  and  C_11
REMARK    3  A    between atoms: C_24  and  C_27
REMARK    4  A    between atoms: C_27  and  C_29
REMARK    5  A    between atoms: C_29  and  O_30
REMARK                            x       y       z     vdW  Elec       q    Type
REMARK                         _______ _______ _______ _____ _____    ______ ____
ROOT
ATOM      1  N   UNL     1      30.913 -22.381 -16.158  0.00  0.00    -0.297 N 
ATOM      2  N   UNL     1      32.063 -23.571 -14.408  0.00  0.00    -0.229 NA
ATOM      3  C   UNL     1      33.143 -22.382 -16.261  0.00  0.00    +0.033 C 
ATOM      4  C   UNL     1      32.633 -21.640 -17.360  0.00  0.00    +0.017 C 
ATOM      5  C   UNL     1      32.045 -22.829 -15.531  0.00  0.00    +0.132 C 
ATOM      6  C   UNL     1      34.493 -23.499 -14.629  0.00  0.00    +0.019 C 
ATOM      7  C   UNL     1      34.419 -22.731 -15.789  0.00  0.00    +0.004 C 
ATOM      8  C   UNL     1      31.258 -21.657 -17.270  0.00  0.00    +0.063 C 
ATOM      9  C   UNL     1      33.316 -23.878 -13.999  0.00  0.00    +0.100 C 
ATOM     10  H   UNL     1      29.991 -22.551 -15.856  0.00  0.00    +0.154 HD
ENDROOT
BRANCH   6  11
ATOM     11  C   UNL     1      35.777 -23.894 -14.091  0.00  0.00    +0.001 C 
ATOM     12  C   UNL     1      38.181 -24.149 -14.365  0.00  0.00    +0.000 C 
ATOM     13  C   UNL     1      36.927 -23.771 -14.872  0.00  0.00    +0.000 C 
ATOM     14  C   UNL     1      38.269 -24.660 -13.047  0.00  0.00    +0.000 C 
ATOM     15  C   UNL     1      35.864 -24.396 -12.796  0.00  0.00    +0.000 C 
ATOM     16  C   UNL     1      37.101 -24.777 -12.276  0.00  0.00    +0.000 C 
ATOM     17  C   UNL     1      39.349 -24.033 -15.136  0.00  0.00    +0.000 C 
ATOM     18  C   UNL     1      39.523 -25.039 -12.541  0.00  0.00    +0.000 C 
ATOM     19  C   UNL     1      40.586 -24.415 -14.616  0.00  0.00    +0.000 C 
ATOM     20  C   UNL     1      40.673 -24.917 -13.321  0.00  0.00    +0.000 C 
ENDBRANCH   6  11
BRANCH   4  21
ATOM     21  C   UNL     1      33.327 -20.964 -18.417  0.00  0.00    +0.001 C 
ATOM     22  C   UNL     1      34.702 -21.141 -18.576  0.00  0.00    -0.000 C 
ATOM     23  C   UNL     1      32.628 -20.129 -19.290  0.00  0.00    -0.000 C 
ATOM     24  C   UNL     1      34.677 -19.650 -20.477  0.00  0.00    -0.011 C 
ATOM     25  C   UNL     1      35.376 -20.484 -19.605  0.00  0.00    -0.004 C 
ATOM     26  C   UNL     1      33.302 -19.472 -20.319  0.00  0.00    -0.004 C 
BRANCH  24  27
ATOM     27  C   UNL     1      35.399 -18.950 -21.579  0.00  0.00    +0.136 C 
BRANCH  27  29
ATOM     28  O   UNL     1      35.787 -17.064 -20.088  0.00  0.00    -0.250 OA
ATOM     29  C   UNL     1      35.870 -17.559 -21.204  0.00  0.00    +0.318 C 
BRANCH  29  30
ATOM     30  O   UNL     1      36.409 -16.903 -22.266  0.00  0.00    -0.480 OA
ATOM     31  H   UNL     1      36.209 -15.999 -22.409  0.00  0.00    +0.295 HD
ENDBRANCH  29  30
ENDBRANCH  27  29
ENDBRANCH  24  27
ENDBRANCH   4  21
TORSDOF 5
ENDMDL
MODEL 6
REMARK VINA RESULT:     -10.8      7.514     11.083
REMARK  Name = 11952989
REMARK  5 active torsions:
REMARK  status: ('A' for Active; 'I' for Inactive)
REMARK    1  A    between atoms: C_4  and  C_21
REMARK    2  A    between atoms: C_6  and  C_11
REMARK    3  A    between atoms: C_24  and  C_27
REMARK    4  A    between atoms: C_27  and  C_29
REMARK    5  A    between atoms: C_29  and  O_30
REMARK                            x       y       z     vdW  Elec       q    Type
REMARK                         _______ _______ _______ _____ _____    ______ ____
ROOT
ATOM      1  N   UNL     1      34.322 -15.110 -25.689  0.00  0.00    -0.297 N 
ATOM      2  N   UNL     1      33.481 -12.914 -25.165  0.00  0.00    -0.229 NA
ATOM      3  C   UNL     1      34.109 -14.621 -23.521  0.00  0.00    +0.033 C 
ATOM      4  C   UNL     1      34.614 -15.943 -23.647  0.00  0.00    +0.017 C 
ATOM      5  C   UNL     1      33.939 -14.130 -24.812  0.00  0.00    +0.132 C 
ATOM      6  C   UNL     1      33.295 -12.500 -22.766  0.00  0.00    +0.019 C 
ATOM      7  C   UNL     1      33.774 -13.771 -22.456  0.00  0.00    +0.004 C 
ATOM      8  C   UNL     1      34.734 -16.216 -24.993  0.00  0.00    +0.063 C 
ATOM      9  C   UNL     1      33.174 -12.137 -24.100  0.00  0.00    +0.100 C 
ATOM     10  H   UNL     1      34.304 -15.031 -26.671  0.00  0.00    +0.154 HD
ENDROOT
BRANCH   6  11
ATOM     11  C   UNL     1      32.930 -11.575 -21.715  0.00  0.00    +0.001 C 
ATOM     12  C   UNL     1      32.641  -9.289 -20.936  0.00  0.00    +0.000 C 
ATOM     13  C   UNL     1      32.991 -10.201 -21.945  0.00  0.00    +0.000 C 
ATOM     14  C   UNL     1      32.224  -9.779 -19.675  0.00  0.00    +0.000 C 
ATOM     15  C   UNL     1      32.521 -12.057 -20.475  0.00  0.00    +0.000 C 
ATOM     16  C   UNL     1      32.169 -11.166 -19.461  0.00  0.00    +0.000 C 
ATOM     17  C   UNL     1      32.696  -7.902 -21.149  0.00  0.00    +0.000 C 
ATOM     18  C   UNL     1      31.874  -8.867 -18.665  0.00  0.00    +0.000 C 
ATOM     19  C   UNL     1      32.344  -7.011 -20.134  0.00  0.00    +0.000 C 
ATOM     20  C   UNL     1      31.935  -7.493 -18.895  0.00  0.00    +0.000 C 
ENDBRANCH   6  11
BRANCH   4  21
ATOM     21  C   UNL     1      34.963 -16.897 -22.635  0.00  0.00    +0.001 C 
ATOM     22  C   UNL     1      35.433 -16.461 -21.395  0.00  0.00    -0.000 C 
ATOM     23  C   UNL     1      34.833 -18.264 -22.887  0.00  0.00    -0.000 C 
ATOM     24  C   UNL     1      35.641 -18.754 -20.665  0.00  0.00    -0.011 C 
ATOM     25  C   UNL     1      35.772 -17.389 -20.411  0.00  0.00    -0.004 C 
ATOM     26  C   UNL     1      35.172 -19.192 -21.903  0.00  0.00    -0.004 C 
BRANCH  24  27
ATOM     27  C   UNL     1      36.002 -19.746 -19.610  0.00  0.00    +0.136 C 
BRANCH  27  29
ATOM     28  O   UNL     1      33.664 -20.236 -19.137  0.00  0.00    -0.250 OA
ATOM     29  C   UNL     1      34.833 -20.597 -19.156  0.00  0.00    +0.318 C 
BRANCH  29  30
ATOM     30  O   UNL     1      35.231 -21.836 -18.762  0.00  0.00    -0.480 OA
ATOM     31  H   UNL     1      34.823 -22.246 -18.025  0.00  0.00    +0.295 HD
ENDBRANCH  29  30
ENDBRANCH  27  29
ENDBRANCH  24  27
ENDBRANCH   4  21
TORSDOF 5
ENDMDL
MODEL 7
REMARK VINA RESULT:     -10.5     10.525     14.293
REMARK  Name = 11952989
REMARK  5 active torsions:
REMARK  status: ('A' for Active; 'I' for Inactive)
REMARK    1  A    between atoms: C_4  and  C_21
REMARK    2  A    between atoms: C_6  and  C_11
REMARK    3  A    between atoms: C_24  and  C_27
REMARK    4  A    between atoms: C_27  and  C_29
REMARK    5  A    between atoms: C_29  and  O_30
REMARK                            x       y       z     vdW  Elec       q    Type
REMARK                         _______ _______ _______ _____ _____    ______ ____
ROOT
ATOM      1  N   UNL     1      31.892 -11.254 -19.125  0.00  0.00    -0.297 N 
ATOM      2  N   UNL     1      31.724  -8.910 -19.654  0.00  0.00    -0.229 NA
ATOM      3  C   UNL     1      32.620 -10.638 -21.144  0.00  0.00    +0.033 C 
ATOM      4  C   UNL     1      32.791 -12.042 -21.002  0.00  0.00    +0.017 C 
ATOM      5  C   UNL     1      32.057 -10.178 -19.957  0.00  0.00    +0.132 C 
ATOM      6  C   UNL     1      32.551  -8.363 -21.885  0.00  0.00    +0.019 C 
ATOM      7  C   UNL     1      32.877  -9.691 -22.148  0.00  0.00    +0.004 C 
ATOM      8  C   UNL     1      32.334 -12.391 -19.750  0.00  0.00    +0.063 C 
ATOM      9  C   UNL     1      31.993  -8.040 -20.656  0.00  0.00    +0.100 C 
ATOM     10  H   UNL     1      31.512 -11.216 -18.217  0.00  0.00    +0.154 HD
ENDROOT
BRANCH   6  11
ATOM     11  C   UNL     1      32.790  -7.337 -22.877  0.00  0.00    +0.001 C 
ATOM     12  C   UNL     1      34.213  -6.370 -24.597  0.00  0.00    +0.000 C 
ATOM     13  C   UNL     1      33.965  -7.357 -23.630  0.00  0.00    +0.000 C 
ATOM     14  C   UNL     1      33.257  -5.346 -24.802  0.00  0.00    +0.000 C 
ATOM     15  C   UNL     1      31.850  -6.331 -23.078  0.00  0.00    +0.000 C 
ATOM     16  C   UNL     1      32.080  -5.342 -24.035  0.00  0.00    +0.000 C 
ATOM     17  C   UNL     1      35.390  -6.374 -25.364  0.00  0.00    +0.000 C 
ATOM     18  C   UNL     1      33.505  -4.358 -25.769  0.00  0.00    +0.000 C 
ATOM     19  C   UNL     1      35.619  -5.384 -26.320  0.00  0.00    +0.000 C 
ATOM     20  C   UNL     1      34.680  -4.378 -26.522  0.00  0.00    +0.000 C 
ENDBRANCH   6  11
BRANCH   4  21
ATOM     21  C   UNL     1      33.328 -13.003 -21.921  0.00  0.00    +0.001 C 
ATOM     22  C   UNL     1      34.241 -13.960 -21.478  0.00  0.00    -0.000 C 
ATOM     23  C   UNL     1      32.936 -12.983 -23.261  0.00  0.00    -0.000 C 
ATOM     24  C   UNL     1      34.370 -14.874 -23.711  0.00  0.00    -0.011 C 
ATOM     25  C   UNL     1      34.762 -14.894 -22.372  0.00  0.00    -0.004 C 
ATOM     26  C   UNL     1      33.457 -13.917 -24.155  0.00  0.00    -0.004 C 
BRANCH  24  27
ATOM     27  C   UNL     1      34.926 -15.876 -24.666  0.00  0.00    +0.136 C 
BRANCH  27  29
ATOM     28  O   UNL     1      34.314 -18.185 -24.193  0.00  0.00    -0.250 OA
ATOM     29  C   UNL     1      34.088 -17.134 -24.778  0.00  0.00    +0.318 C 
BRANCH  29  30
ATOM     30  O   UNL     1      33.032 -16.967 -25.617  0.00  0.00    -0.480 OA
ATOM     31  H   UNL     1      32.165 -17.174 -25.327  0.00  0.00    +0.295 HD
ENDBRANCH  29  30
ENDBRANCH  27  29
ENDBRANCH  24  27
ENDBRANCH   4  21
TORSDOF 5
ENDMDL
MODEL 8
REMARK VINA RESULT:     -10.4     10.813     14.310
REMARK  Name = 11952989
REMARK  5 active torsions:
REMARK  status: ('A' for Active; 'I' for Inactive)
REMARK    1  A    between atoms: C_4  and  C_21
REMARK    2  A    between atoms: C_6  and  C_11
REMARK    3  A    between atoms: C_24  and  C_27
REMARK    4  A    between atoms: C_27  and  C_29
REMARK    5  A    between atoms: C_29  and  O_30
REMARK                            x       y       z     vdW  Elec       q    Type
REMARK                         _______ _______ _______ _____ _____    ______ ____
ROOT
ATOM      1  N   UNL     1      31.861 -11.878 -18.417  0.00  0.00    -0.297 N 
ATOM      2  N   UNL     1      31.428  -9.519 -18.636  0.00  0.00    -0.229 NA
ATOM      3  C   UNL     1      32.379 -10.954 -20.382  0.00  0.00    +0.033 C 
ATOM      4  C   UNL     1      32.695 -12.338 -20.428  0.00  0.00    +0.017 C 
ATOM      5  C   UNL     1      31.860 -10.700 -19.116  0.00  0.00    +0.132 C 
ATOM      6  C   UNL     1      32.034  -8.627 -20.827  0.00  0.00    +0.019 C 
ATOM      7  C   UNL     1      32.468  -9.873 -21.273  0.00  0.00    +0.004 C 
ATOM      8  C   UNL     1      32.366 -12.880 -19.204  0.00  0.00    +0.063 C 
ATOM      9  C   UNL     1      31.538  -8.513 -19.536  0.00  0.00    +0.100 C 
ATOM     10  H   UNL     1      31.546 -11.989 -17.490  0.00  0.00    +0.154 HD
ENDROOT
BRANCH   6  11
ATOM     11  C   UNL     1      32.101  -7.471 -21.695  0.00  0.00    +0.001 C 
ATOM     12  C   UNL     1      32.192  -5.056 -21.974  0.00  0.00    +0.000 C 
ATOM     13  C   UNL     1      32.128  -6.189 -21.146  0.00  0.00    +0.000 C 
ATOM     14  C   UNL     1      32.228  -5.228 -23.379  0.00  0.00    +0.000 C 
ATOM     15  C   UNL     1      32.136  -7.640 -23.076  0.00  0.00    +0.000 C 
ATOM     16  C   UNL     1      32.200  -6.526 -23.914  0.00  0.00    +0.000 C 
ATOM     17  C   UNL     1      32.220  -3.758 -21.440  0.00  0.00    +0.000 C 
ATOM     18  C   UNL     1      32.292  -4.095 -24.207  0.00  0.00    +0.000 C 
ATOM     19  C   UNL     1      32.283  -2.645 -22.279  0.00  0.00    +0.000 C 
ATOM     20  C   UNL     1      32.319  -2.812 -23.660  0.00  0.00    +0.000 C 
ENDBRANCH   6  11
BRANCH   4  21
ATOM     21  C   UNL     1      33.255 -13.122 -21.491  0.00  0.00    +0.001 C 
ATOM     22  C   UNL     1      34.250 -14.061 -21.217  0.00  0.00    -0.000 C 
ATOM     23  C   UNL     1      32.804 -12.947 -22.800  0.00  0.00    -0.000 C 
ATOM     24  C   UNL     1      34.342 -14.647 -23.559  0.00  0.00    -0.011 C 
ATOM     25  C   UNL     1      34.794 -14.823 -22.251  0.00  0.00    -0.004 C 
ATOM     26  C   UNL     1      33.347 -13.709 -23.834  0.00  0.00    -0.004 C 
BRANCH  24  27
ATOM     27  C   UNL     1      34.922 -15.465 -24.664  0.00  0.00    +0.136 C 
BRANCH  27  29
ATOM     28  O   UNL     1      34.340 -17.828 -24.588  0.00  0.00    -0.250 OA
ATOM     29  C   UNL     1      34.107 -16.698 -24.996  0.00  0.00    +0.318 C 
BRANCH  29  30
ATOM     30  O   UNL     1      33.061 -16.409 -25.815  0.00  0.00    -0.480 OA
ATOM     31  H   UNL     1      33.220 -16.120 -26.693  0.00  0.00    +0.295 HD
ENDBRANCH  29  30
ENDBRANCH  27  29
ENDBRANCH  24  27
ENDBRANCH   4  21
TORSDOF 5
ENDMDL
MODEL 9
REMARK VINA RESULT:     -10.3      4.009      8.098
REMARK  Name = 11952989
REMARK  5 active torsions:
REMARK  status: ('A' for Active; 'I' for Inactive)
REMARK    1  A    between atoms: C_4  and  C_21
REMARK    2  A    between atoms: C_6  and  C_11
REMARK    3  A    between atoms: C_24  and  C_27
REMARK    4  A    between atoms: C_27  and  C_29
REMARK    5  A    between atoms: C_29  and  O_30
REMARK                            x       y       z     vdW  Elec       q    Type
REMARK                         _______ _______ _______ _____ _____    ______ ____
ROOT
ATOM      1  N   UNL     1      38.177 -22.085 -15.639  0.00  0.00    -0.297 N 
ATOM      2  N   UNL     1      36.577 -23.211 -14.233  0.00  0.00    -0.229 NA
ATOM      3  C   UNL     1      36.036 -21.936 -16.256  0.00  0.00    +0.033 C 
ATOM      4  C   UNL     1      36.834 -21.222 -17.190  0.00  0.00    +0.017 C 
ATOM      5  C   UNL     1      36.903 -22.462 -15.303  0.00  0.00    +0.132 C 
ATOM      6  C   UNL     1      34.275 -22.976 -15.011  0.00  0.00    +0.019 C 
ATOM      7  C   UNL     1      34.666 -22.205 -16.103  0.00  0.00    +0.004 C 
ATOM      8  C   UNL     1      38.147 -21.331 -16.784  0.00  0.00    +0.063 C 
ATOM      9  C   UNL     1      35.247 -23.439 -14.135  0.00  0.00    +0.100 C 
ATOM     10  H   UNL     1      38.990 -22.320 -15.136  0.00  0.00    +0.154 HD
ENDROOT
BRANCH   6  11
ATOM     11  C   UNL     1      32.879 -23.289 -14.795  0.00  0.00    +0.001 C 
ATOM     12  C   UNL     1      30.539 -22.962 -15.375  0.00  0.00    +0.000 C 
ATOM     13  C   UNL     1      31.899 -22.671 -15.572  0.00  0.00    +0.000 C 
ATOM     14  C   UNL     1      30.169 -23.895 -14.376  0.00  0.00    +0.000 C 
ATOM     15  C   UNL     1      32.516 -24.205 -13.813  0.00  0.00    +0.000 C 
ATOM     16  C   UNL     1      31.170 -24.508 -13.604  0.00  0.00    +0.000 C 
ATOM     17  C   UNL     1      29.539 -22.349 -16.147  0.00  0.00    +0.000 C 
ATOM     18  C   UNL     1      28.809 -24.186 -14.180  0.00  0.00    +0.000 C 
ATOM     19  C   UNL     1      28.193 -22.652 -15.937  0.00  0.00    +0.000 C 
ATOM     20  C   UNL     1      27.828 -23.568 -14.956  0.00  0.00    +0.000 C 
ENDBRANCH   6  11
BRANCH   4  21
ATOM     21  C   UNL     1      36.450 -20.491 -18.362  0.00  0.00    +0.001 C 
ATOM     22  C   UNL     1      35.144 -20.582 -18.846  0.00  0.00    -0.000 C 
ATOM     23  C   UNL     1      37.381 -19.686 -19.021  0.00  0.00    -0.000 C 
ATOM     24  C   UNL     1      35.702 -19.066 -20.643  0.00  0.00    -0.011 C 
ATOM     25  C   UNL     1      34.771 -19.870 -19.985  0.00  0.00    -0.004 C 
ATOM     26  C   UNL     1      37.008 -18.975 -20.160  0.00  0.00    -0.004 C 
BRANCH  24  27
ATOM     27  C   UNL     1      35.301 -18.304 -21.861  0.00  0.00    +0.136 C 
BRANCH  27  29
ATOM     28  O   UNL     1      35.213 -16.147 -20.733  0.00  0.00    -0.250 OA
ATOM     29  C   UNL     1      35.491 -16.806 -21.726  0.00  0.00    +0.318 C 
BRANCH  29  30
ATOM     30  O   UNL     1      36.018 -16.259 -22.853  0.00  0.00    -0.480 OA
ATOM     31  H   UNL     1      35.817 -15.372 -23.082  0.00  0.00    +0.295 HD
ENDBRANCH  29  30
ENDBRANCH  27  29
ENDBRANCH  24  27
ENDBRANCH   4  21
TORSDOF 5
ENDMDL
