MODEL 1
REMARK VINA RESULT:     -12.2      0.000      0.000
REMARK  Name = 11697676
REMARK  7 active torsions:
REMARK  status: ('A' for Active; 'I' for Inactive)
REMARK    1  A    between atoms: N_1  and  C_18
REMARK    2  A    between atoms: N_2  and  C_8
REMARK    3  A    between atoms: C_18  and  C_19
REMARK    4  A    between atoms: C_19  and  C_20
REMARK    5  A    between atoms: C_20  and  C_21
REMARK    6  A    between atoms: C_21  and  O_22
REMARK    7  A    between atoms: O_22  and  C_28
REMARK                            x       y       z     vdW  Elec       q    Type
REMARK                         _______ _______ _______ _____ _____    ______ ____
ROOT
ATOM      1  N   UNL     1      34.897 -21.179 -18.748  0.00  0.00    +0.389 N 
ATOM      2  N   UNL     1      34.942 -19.067 -20.670  0.00  0.00    -0.312 N 
ATOM      3  C   UNL     1      33.682 -20.401 -19.025  0.00  0.00    -0.055 C 
ATOM      4  C   UNL     1      36.081 -20.321 -18.882  0.00  0.00    -0.055 C 
ATOM      5  C   UNL     1      33.709 -19.830 -20.444  0.00  0.00    +0.068 C 
ATOM      6  C   UNL     1      36.186 -19.746 -20.297  0.00  0.00    +0.068 C 
ATOM      7  H   UNL     1      34.962 -21.939 -19.425  0.00  0.00    -0.080 HD
ENDROOT
BRANCH   2   8
ATOM      8  C   UNL     1      34.950 -18.121 -21.701  0.00  0.00    +0.048 C 
ATOM      9  C   UNL     1      34.971 -16.718 -21.460  0.00  0.00    +0.013 C 
ATOM     10  C   UNL     1      34.938 -18.569 -23.040  0.00  0.00    +0.015 C 
ATOM     11  C   UNL     1      34.978 -15.805 -22.541  0.00  0.00    +0.001 C 
ATOM     12  C   UNL     1      34.983 -16.227 -20.145  0.00  0.00    +0.001 C 
ATOM     13  C   UNL     1      34.946 -17.670 -24.103  0.00  0.00    +0.001 C 
ATOM     14  C   UNL     1      34.966 -16.298 -23.856  0.00  0.00    +0.000 C 
ATOM     15  C   UNL     1      34.998 -14.426 -22.275  0.00  0.00    +0.000 C 
ATOM     16  C   UNL     1      35.003 -14.854 -19.899  0.00  0.00    +0.000 C 
ATOM     17  C   UNL     1      35.010 -13.955 -20.962  0.00  0.00    +0.000 C 
ENDBRANCH   2   8
BRANCH   1  18
ATOM     18  C   UNL     1      34.836 -21.764 -17.409  0.00  0.00    -0.077 C 
BRANCH  18  19
ATOM     19  C   UNL     1      33.765 -22.852 -17.353  0.00  0.00    -0.019 C 
BRANCH  19  20
ATOM     20  C   UNL     1      32.762 -22.582 -16.232  0.00  0.00    +0.045 C 
BRANCH  20  21
ATOM     21  C   UNL     1      33.431 -22.595 -14.864  0.00  0.00    +0.208 C 
BRANCH  21  22
ATOM     22  O   UNL     1      33.964 -23.885 -14.600  0.00  0.00    -0.452 OA
BRANCH  22  28
ATOM     23  O   UNL     1      40.773 -25.257 -15.299  0.00  0.00    -0.275 OA
ATOM     24  N   UNL     1      38.549 -24.745 -15.036  0.00  0.00    -0.263 N 
ATOM     25  N   UNL     1      36.236 -24.308 -14.804  0.00  0.00    -0.357 NA
ATOM     26  C   UNL     1      37.690 -24.044 -12.891  0.00  0.00    +0.090 C 
ATOM     27  C   UNL     1      39.088 -24.018 -12.350  0.00  0.00    +0.022 C 
ATOM     28  C   UNL     1      35.203 -23.934 -14.016  0.00  0.00    +0.278 C 
ATOM     29  C   UNL     1      37.460 -24.367 -14.228  0.00  0.00    +0.170 C 
ATOM     30  C   UNL     1      39.958 -25.046 -13.054  0.00  0.00    +0.086 C 
ATOM     31  C   UNL     1      36.599 -23.649 -12.116  0.00  0.00    -0.012 C 
ATOM     32  C   UNL     1      35.330 -23.601 -12.679  0.00  0.00    +0.068 C 
ATOM     33  C   UNL     1      39.822 -24.995 -14.561  0.00  0.00    +0.228 C 
ATOM     34  H   UNL     1      38.394 -24.836 -16.004  0.00  0.00    +0.157 HD
ENDBRANCH  22  28
ENDBRANCH  21  22
ENDBRANCH  20  21
ENDBRANCH  19  20
ENDBRANCH  18  19
ENDBRANCH   1  18
TORSDOF 7
ENDMDL
MODEL 2
REMARK VINA RESULT:     -12.0      1.719      2.426
REMARK  Name = 11697676
REMARK  7 active torsions:
REMARK  status: ('A' for Active; 'I' for Inactive)
REMARK    1  A    between atoms: N_1  and  C_18
REMARK    2  A    between atoms: N_2  and  C_8
REMARK    3  A    between atoms: C_18  and  C_19
REMARK    4  A    between atoms: C_19  and  C_20
REMARK    5  A    between atoms: C_20  and  C_21
REMARK    6  A    between atoms: C_21  and  O_22
REMARK    7  A    between atoms: O_22  and  C_28
REMARK                            x       y       z     vdW  Elec       q    Type
REMARK                         _______ _______ _______ _____ _____    ______ ____
ROOT
ATOM      1  N   UNL     1      35.944 -19.723 -20.328  0.00  0.00    +0.389 N 
ATOM      2  N   UNL     1      35.245 -17.485 -21.960  0.00  0.00    -0.312 N 
ATOM      3  C   UNL     1      34.535 -19.419 -20.606  0.00  0.00    -0.055 C 
ATOM      4  C   UNL     1      36.719 -18.478 -20.254  0.00  0.00    -0.055 C 
ATOM      5  C   UNL     1      34.386 -18.675 -21.936  0.00  0.00    +0.068 C 
ATOM      6  C   UNL     1      36.641 -17.703 -21.572  0.00  0.00    +0.068 C 
ATOM      7  H   UNL     1      36.313 -20.296 -21.087  0.00  0.00    -0.080 HD
ENDROOT
BRANCH   2   8
ATOM      8  C   UNL     1      34.926 -16.462 -22.860  0.00  0.00    +0.048 C 
ATOM      9  C   UNL     1      34.719 -15.114 -22.453  0.00  0.00    +0.013 C 
ATOM     10  C   UNL     1      34.802 -16.772 -24.232  0.00  0.00    +0.015 C 
ATOM     11  C   UNL     1      34.398 -14.118 -23.405  0.00  0.00    +0.001 C 
ATOM     12  C   UNL     1      34.830 -14.759 -21.099  0.00  0.00    +0.001 C 
ATOM     13  C   UNL     1      34.487 -15.792 -25.169  0.00  0.00    +0.001 C 
ATOM     14  C   UNL     1      34.287 -14.474 -24.760  0.00  0.00    +0.000 C 
ATOM     15  C   UNL     1      34.198 -12.796 -22.976  0.00  0.00    +0.000 C 
ATOM     16  C   UNL     1      34.629 -13.441 -20.690  0.00  0.00    +0.000 C 
ATOM     17  C   UNL     1      34.313 -12.461 -21.627  0.00  0.00    +0.000 C 
ENDBRANCH   2   8
BRANCH   1  18
ATOM     18  C   UNL     1      36.069 -20.480 -19.083  0.00  0.00    -0.077 C 
BRANCH  18  19
ATOM     19  C   UNL     1      35.111 -21.670 -19.087  0.00  0.00    -0.019 C 
BRANCH  19  20
ATOM     20  C   UNL     1      33.968 -21.462 -18.094  0.00  0.00    +0.045 C 
BRANCH  20  21
ATOM     21  C   UNL     1      33.817 -22.650 -17.154  0.00  0.00    +0.208 C 
BRANCH  21  22
ATOM     22  O   UNL     1      34.055 -22.239 -15.815  0.00  0.00    -0.452 OA
BRANCH  22  28
ATOM     23  O   UNL     1      37.301 -26.210 -11.080  0.00  0.00    -0.275 OA
ATOM     24  N   UNL     1      36.281 -24.924 -12.687  0.00  0.00    -0.263 N 
ATOM     25  N   UNL     1      35.168 -23.564 -14.269  0.00  0.00    -0.357 NA
ATOM     26  C   UNL     1      37.576 -23.449 -14.093  0.00  0.00    +0.090 C 
ATOM     27  C   UNL     1      38.836 -24.006 -13.501  0.00  0.00    +0.022 C 
ATOM     28  C   UNL     1      35.239 -22.634 -15.248  0.00  0.00    +0.278 C 
ATOM     29  C   UNL     1      36.334 -23.949 -13.700  0.00  0.00    +0.170 C 
ATOM     30  C   UNL     1      38.606 -24.457 -12.068  0.00  0.00    +0.086 C 
ATOM     31  C   UNL     1      37.606 -22.501 -15.116  0.00  0.00    -0.012 C 
ATOM     32  C   UNL     1      36.420 -22.075 -15.701  0.00  0.00    +0.068 C 
ATOM     33  C   UNL     1      37.360 -25.306 -11.913  0.00  0.00    +0.228 C 
ATOM     34  H   UNL     1      35.417 -25.364 -12.518  0.00  0.00    +0.157 HD
ENDBRANCH  22  28
ENDBRANCH  21  22
ENDBRANCH  20  21
ENDBRANCH  19  20
ENDBRANCH  18  19
ENDBRANCH   1  18
TORSDOF 7
ENDMDL
MODEL 3
REMARK VINA RESULT:     -12.0      3.751      7.126
REMARK  Name = 11697676
REMARK  7 active torsions:
REMARK  status: ('A' for Active; 'I' for Inactive)
REMARK    1  A    between atoms: N_1  and  C_18
REMARK    2  A    between atoms: N_2  and  C_8
REMARK    3  A    between atoms: C_18  and  C_19
REMARK    4  A    between atoms: C_19  and  C_20
REMARK    5  A    between atoms: C_20  and  C_21
REMARK    6  A    between atoms: C_21  and  O_22
REMARK    7  A    between atoms: O_22  and  C_28
REMARK                            x       y       z     vdW  Elec       q    Type
REMARK                         _______ _______ _______ _____ _____    ______ ____
ROOT
ATOM      1  N   UNL     1      34.815 -15.295 -23.721  0.00  0.00    +0.389 N 
ATOM      2  N   UNL     1      33.767 -12.786 -22.848  0.00  0.00    -0.312 N 
ATOM      3  C   UNL     1      33.626 -14.723 -24.365  0.00  0.00    -0.055 C 
ATOM      4  C   UNL     1      34.832 -14.937 -22.297  0.00  0.00    -0.055 C 
ATOM      5  C   UNL     1      33.620 -13.196 -24.249  0.00  0.00    +0.068 C 
ATOM      6  C   UNL     1      34.866 -13.417 -22.113  0.00  0.00    +0.068 C 
ATOM      7  H   UNL     1      35.648 -14.912 -24.167  0.00  0.00    -0.080 HD
ENDROOT
BRANCH   2   8
ATOM      8  C   UNL     1      33.342 -11.500 -22.492  0.00  0.00    +0.048 C 
ATOM      9  C   UNL     1      32.648 -11.226 -21.280  0.00  0.00    +0.013 C 
ATOM     10  C   UNL     1      33.610 -10.425 -23.367  0.00  0.00    +0.015 C 
ATOM     11  C   UNL     1      32.241  -9.907 -20.969  0.00  0.00    +0.001 C 
ATOM     12  C   UNL     1      32.359 -12.264 -20.380  0.00  0.00    +0.001 C 
ATOM     13  C   UNL     1      33.211  -9.127 -23.060  0.00  0.00    +0.001 C 
ATOM     14  C   UNL     1      32.531  -8.869 -21.870  0.00  0.00    +0.000 C 
ATOM     15  C   UNL     1      31.557  -9.665 -19.767  0.00  0.00    +0.000 C 
ATOM     16  C   UNL     1      31.679 -12.006 -19.190  0.00  0.00    +0.000 C 
ATOM     17  C   UNL     1      31.278 -10.708 -18.884  0.00  0.00    +0.000 C 
ENDBRANCH   2   8
BRANCH   1  18
ATOM     18  C   UNL     1      34.837 -16.748 -23.884  0.00  0.00    -0.077 C 
BRANCH  18  19
ATOM     19  C   UNL     1      35.572 -17.403 -22.716  0.00  0.00    -0.019 C 
BRANCH  19  20
ATOM     20  C   UNL     1      34.949 -18.750 -22.356  0.00  0.00    +0.045 C 
BRANCH  20  21
ATOM     21  C   UNL     1      34.950 -18.987 -20.852  0.00  0.00    +0.208 C 
BRANCH  21  22
ATOM     22  O   UNL     1      33.818 -19.763 -20.486  0.00  0.00    -0.452 OA
BRANCH  22  28
ATOM     23  O   UNL     1      30.588 -23.104 -15.276  0.00  0.00    -0.275 OA
ATOM     24  N   UNL     1      31.693 -22.062 -17.000  0.00  0.00    -0.263 N 
ATOM     25  N   UNL     1      32.776 -20.904 -18.755  0.00  0.00    -0.357 NA
ATOM     26  C   UNL     1      34.106 -22.031 -17.080  0.00  0.00    +0.090 C 
ATOM     27  C   UNL     1      34.147 -22.949 -15.895  0.00  0.00    +0.022 C 
ATOM     28  C   UNL     1      33.928 -20.520 -19.348  0.00  0.00    +0.278 C 
ATOM     29  C   UNL     1      32.882 -21.644 -17.626  0.00  0.00    +0.170 C 
ATOM     30  C   UNL     1      32.940 -22.728 -14.998  0.00  0.00    +0.086 C 
ATOM     31  C   UNL     1      35.271 -21.626 -17.732  0.00  0.00    -0.012 C 
ATOM     32  C   UNL     1      35.188 -20.849 -18.880  0.00  0.00    +0.068 C 
ATOM     33  C   UNL     1      31.637 -22.688 -15.769  0.00  0.00    +0.228 C 
ATOM     34  H   UNL     1      30.843 -21.897 -17.470  0.00  0.00    +0.157 HD
ENDBRANCH  22  28
ENDBRANCH  21  22
ENDBRANCH  20  21
ENDBRANCH  19  20
ENDBRANCH  18  19
ENDBRANCH   1  18
TORSDOF 7
ENDMDL
MODEL 4
REMARK VINA RESULT:     -11.9      3.505      6.345
REMARK  Name = 11697676
REMARK  7 active torsions:
REMARK  status: ('A' for Active; 'I' for Inactive)
REMARK    1  A    between atoms: N_1  and  C_18
REMARK    2  A    between atoms: N_2  and  C_8
REMARK    3  A    between atoms: C_18  and  C_19
REMARK    4  A    between atoms: C_19  and  C_20
REMARK    5  A    between atoms: C_20  and  C_21
REMARK    6  A    between atoms: C_21  and  O_22
REMARK    7  A    between atoms: O_22  and  C_28
REMARK                            x       y       z     vdW  Elec       q    Type
REMARK                         _______ _______ _______ _____ _____    ______ ____
ROOT
ATOM      1  N   UNL     1      34.939 -15.499 -23.637  0.00  0.00    +0.389 N 
ATOM      2  N   UNL     1      33.876 -12.931 -22.975  0.00  0.00    -0.312 N 
ATOM      3  C   UNL     1      33.788 -14.959 -24.372  0.00  0.00    -0.055 C 
ATOM      4  C   UNL     1      34.893 -15.051 -22.239  0.00  0.00    -0.055 C 
ATOM      5  C   UNL     1      33.793 -13.429 -24.353  0.00  0.00    +0.068 C 
ATOM      6  C   UNL     1      34.933 -13.523 -22.150  0.00  0.00    +0.068 C 
ATOM      7  H   UNL     1      35.796 -15.151 -24.066  0.00  0.00    -0.080 HD
ENDROOT
BRANCH   2   8
ATOM      8  C   UNL     1      33.449 -11.623 -22.721  0.00  0.00    +0.048 C 
ATOM      9  C   UNL     1      32.678 -11.272 -21.578  0.00  0.00    +0.013 C 
ATOM     10  C   UNL     1      33.793 -10.602 -23.634  0.00  0.00    +0.015 C 
ATOM     11  C   UNL     1      32.272  -9.933 -21.370  0.00  0.00    +0.001 C 
ATOM     12  C   UNL     1      32.313 -12.254 -20.643  0.00  0.00    +0.001 C 
ATOM     13  C   UNL     1      33.394  -9.284 -23.429  0.00  0.00    +0.001 C 
ATOM     14  C   UNL     1      32.639  -8.951 -22.305  0.00  0.00    +0.000 C 
ATOM     15  C   UNL     1      31.512  -9.615 -20.233  0.00  0.00    +0.000 C 
ATOM     16  C   UNL     1      31.557 -11.920 -19.519  0.00  0.00    +0.000 C 
ATOM     17  C   UNL     1      31.157 -10.603 -19.314  0.00  0.00    +0.000 C 
ENDBRANCH   2   8
BRANCH   1  18
ATOM     18  C   UNL     1      34.953 -16.959 -23.707  0.00  0.00    -0.077 C 
BRANCH  18  19
ATOM     19  C   UNL     1      35.646 -17.543 -22.477  0.00  0.00    -0.019 C 
BRANCH  19  20
ATOM     20  C   UNL     1      34.969 -18.835 -22.023  0.00  0.00    +0.045 C 
BRANCH  20  21
ATOM     21  C   UNL     1      34.940 -18.951 -20.505  0.00  0.00    +0.208 C 
BRANCH  21  22
ATOM     22  O   UNL     1      35.896 -19.910 -20.076  0.00  0.00    -0.452 OA
BRANCH  22  28
ATOM     23  O   UNL     1      37.983 -22.347 -13.876  0.00  0.00    -0.275 OA
ATOM     24  N   UNL     1      37.235 -21.524 -15.886  0.00  0.00    -0.263 N 
ATOM     25  N   UNL     1      36.549 -20.715 -18.000  0.00  0.00    -0.357 NA
ATOM     26  C   UNL     1      35.020 -22.050 -16.688  0.00  0.00    +0.090 C 
ATOM     27  C   UNL     1      34.719 -22.728 -15.385  0.00  0.00    +0.022 C 
ATOM     28  C   UNL     1      35.590 -20.629 -18.950  0.00  0.00    +0.278 C 
ATOM     29  C   UNL     1      36.253 -21.432 -16.890  0.00  0.00    +0.170 C 
ATOM     30  C   UNL     1      35.983 -23.315 -14.778  0.00  0.00    +0.086 C 
ATOM     31  C   UNL     1      34.053 -21.924 -17.686  0.00  0.00    -0.012 C 
ATOM     32  C   UNL     1      34.340 -21.211 -18.843  0.00  0.00    +0.068 C 
ATOM     33  C   UNL     1      37.140 -22.337 -14.774  0.00  0.00    +0.228 C 
ATOM     34  H   UNL     1      38.045 -20.972 -15.983  0.00  0.00    +0.157 HD
ENDBRANCH  22  28
ENDBRANCH  21  22
ENDBRANCH  20  21
ENDBRANCH  19  20
ENDBRANCH  18  19
ENDBRANCH   1  18
TORSDOF 7
ENDMDL
MODEL 5
REMARK VINA RESULT:     -11.8      3.852      7.545
REMARK  Name = 11697676
REMARK  7 active torsions:
REMARK  status: ('A' for Active; 'I' for Inactive)
REMARK    1  A    between atoms: N_1  and  C_18
REMARK    2  A    between atoms: N_2  and  C_8
REMARK    3  A    between atoms: C_18  and  C_19
REMARK    4  A    between atoms: C_19  and  C_20
REMARK    5  A    between atoms: C_20  and  C_21
REMARK    6  A    between atoms: C_21  and  O_22
REMARK    7  A    between atoms: O_22  and  C_28
REMARK                            x       y       z     vdW  Elec       q    Type
REMARK                         _______ _______ _______ _____ _____    ______ ____
ROOT
ATOM      1  N   UNL     1      34.371 -15.286 -23.455  0.00  0.00    +0.389 N 
ATOM      2  N   UNL     1      33.854 -12.515 -22.993  0.00  0.00    -0.312 N 
ATOM      3  C   UNL     1      35.212 -14.519 -22.527  0.00  0.00    -0.055 C 
ATOM      4  C   UNL     1      33.920 -14.421 -24.552  0.00  0.00    -0.055 C 
ATOM      5  C   UNL     1      34.437 -13.342 -21.930  0.00  0.00    +0.068 C 
ATOM      6  C   UNL     1      33.102 -13.241 -24.021  0.00  0.00    +0.068 C 
ATOM      7  H   UNL     1      33.555 -15.632 -22.950  0.00  0.00    -0.080 HD
ENDROOT
BRANCH   2   8
ATOM      8  C   UNL     1      33.511 -11.194 -22.685  0.00  0.00    +0.048 C 
ATOM      9  C   UNL     1      34.127 -10.073 -23.308  0.00  0.00    +0.013 C 
ATOM     10  C   UNL     1      32.513 -10.956 -21.716  0.00  0.00    +0.015 C 
ATOM     11  C   UNL     1      33.742  -8.757 -22.959  0.00  0.00    +0.001 C 
ATOM     12  C   UNL     1      35.125 -10.262 -24.278  0.00  0.00    +0.001 C 
ATOM     13  C   UNL     1      32.133  -9.661 -21.373  0.00  0.00    +0.001 C 
ATOM     14  C   UNL     1      32.743  -8.568 -21.990  0.00  0.00    +0.000 C 
ATOM     15  C   UNL     1      34.366  -7.669 -23.589  0.00  0.00    +0.000 C 
ATOM     16  C   UNL     1      35.735  -9.169 -24.894  0.00  0.00    +0.000 C 
ATOM     17  C   UNL     1      35.356  -7.875 -24.551  0.00  0.00    +0.000 C 
ENDBRANCH   2   8
BRANCH   1  18
ATOM     18  C   UNL     1      35.104 -16.438 -23.978  0.00  0.00    -0.077 C 
BRANCH  18  19
ATOM     19  C   UNL     1      34.364 -17.733 -23.648  0.00  0.00    -0.019 C 
BRANCH  19  20
ATOM     20  C   UNL     1      35.245 -18.682 -22.837  0.00  0.00    +0.045 C 
BRANCH  20  21
ATOM     21  C   UNL     1      35.052 -18.487 -21.339  0.00  0.00    +0.208 C 
BRANCH  21  22
ATOM     22  O   UNL     1      33.948 -19.262 -20.891  0.00  0.00    -0.452 OA
BRANCH  22  28
ATOM     23  O   UNL     1      31.178 -23.022 -15.702  0.00  0.00    -0.275 OA
ATOM     24  N   UNL     1      32.134 -21.839 -17.424  0.00  0.00    -0.263 N 
ATOM     25  N   UNL     1      33.061 -20.540 -19.170  0.00  0.00    -0.357 NA
ATOM     26  C   UNL     1      34.534 -21.671 -17.623  0.00  0.00    +0.090 C 
ATOM     27  C   UNL     1      34.687 -22.640 -16.489  0.00  0.00    +0.022 C 
ATOM     28  C   UNL     1      34.159 -20.065 -19.800  0.00  0.00    +0.278 C 
ATOM     29  C   UNL     1      33.265 -21.326 -18.087  0.00  0.00    +0.170 C 
ATOM     30  C   UNL     1      33.518 -22.530 -15.523  0.00  0.00    +0.086 C 
ATOM     31  C   UNL     1      35.641 -21.171 -18.310  0.00  0.00    -0.012 C 
ATOM     32  C   UNL     1      35.456 -20.346 -19.413  0.00  0.00    +0.068 C 
ATOM     33  C   UNL     1      32.176 -22.525 -16.225  0.00  0.00    +0.228 C 
ATOM     34  H   UNL     1      31.254 -21.700 -17.842  0.00  0.00    +0.157 HD
ENDBRANCH  22  28
ENDBRANCH  21  22
ENDBRANCH  20  21
ENDBRANCH  19  20
ENDBRANCH  18  19
ENDBRANCH   1  18
TORSDOF 7
ENDMDL
MODEL 6
REMARK VINA RESULT:     -11.7      3.479      6.301
REMARK  Name = 11697676
REMARK  7 active torsions:
REMARK  status: ('A' for Active; 'I' for Inactive)
REMARK    1  A    between atoms: N_1  and  C_18
REMARK    2  A    between atoms: N_2  and  C_8
REMARK    3  A    between atoms: C_18  and  C_19
REMARK    4  A    between atoms: C_19  and  C_20
REMARK    5  A    between atoms: C_20  and  C_21
REMARK    6  A    between atoms: C_21  and  O_22
REMARK    7  A    between atoms: O_22  and  C_28
REMARK                            x       y       z     vdW  Elec       q    Type
REMARK                         _______ _______ _______ _____ _____    ______ ____
ROOT
ATOM      1  N   UNL     1      35.731 -16.797 -21.996  0.00  0.00    +0.389 N 
ATOM      2  N   UNL     1      34.504 -14.224 -22.181  0.00  0.00    -0.312 N 
ATOM      3  C   UNL     1      34.911 -16.448 -23.163  0.00  0.00    -0.055 C 
ATOM      4  C   UNL     1      35.198 -16.140 -20.797  0.00  0.00    -0.055 C 
ATOM      5  C   UNL     1      34.909 -14.935 -23.400  0.00  0.00    +0.068 C 
ATOM      6  C   UNL     1      35.204 -14.617 -20.955  0.00  0.00    +0.068 C 
ATOM      7  H   UNL     1      36.685 -16.471 -22.154  0.00  0.00    -0.080 HD
ENDROOT
BRANCH   2   8
ATOM      8  C   UNL     1      34.015 -12.920 -22.314  0.00  0.00    +0.048 C 
ATOM      9  C   UNL     1      33.119 -12.334 -21.376  0.00  0.00    +0.013 C 
ATOM     10  C   UNL     1      34.423 -12.146 -23.422  0.00  0.00    +0.015 C 
ATOM     11  C   UNL     1      32.655 -11.010 -21.558  0.00  0.00    +0.001 C 
ATOM     12  C   UNL     1      32.686 -13.067 -20.259  0.00  0.00    +0.001 C 
ATOM     13  C   UNL     1      33.966 -10.843 -23.600  0.00  0.00    +0.001 C 
ATOM     14  C   UNL     1      33.089 -10.278 -22.675  0.00  0.00    +0.000 C 
ATOM     15  C   UNL     1      31.771 -10.457 -20.617  0.00  0.00    +0.000 C 
ATOM     16  C   UNL     1      31.808 -12.501 -19.334  0.00  0.00    +0.000 C 
ATOM     17  C   UNL     1      31.351 -11.199 -19.513  0.00  0.00    +0.000 C 
ENDBRANCH   2   8
BRANCH   1  18
ATOM     18  C   UNL     1      35.770 -18.247 -21.812  0.00  0.00    -0.077 C 
BRANCH  18  19
ATOM     19  C   UNL     1      34.697 -18.685 -20.816  0.00  0.00    -0.019 C 
BRANCH  19  20
ATOM     20  C   UNL     1      35.195 -19.828 -19.934  0.00  0.00    +0.045 C 
BRANCH  20  21
ATOM     21  C   UNL     1      34.041 -20.608 -19.318  0.00  0.00    +0.208 C 
BRANCH  21  22
ATOM     22  O   UNL     1      34.546 -21.697 -18.559  0.00  0.00    -0.452 OA
BRANCH  22  28
ATOM     23  O   UNL     1      28.341 -22.273 -15.413  0.00  0.00    -0.275 OA
ATOM     24  N   UNL     1      30.399 -22.149 -16.425  0.00  0.00    -0.263 N 
ATOM     25  N   UNL     1      32.498 -21.924 -17.492  0.00  0.00    -0.357 NA
ATOM     26  C   UNL     1      32.406 -22.733 -15.216  0.00  0.00    +0.090 C 
ATOM     27  C   UNL     1      31.566 -23.197 -14.064  0.00  0.00    +0.022 C 
ATOM     28  C   UNL     1      33.843 -22.046 -17.435  0.00  0.00    +0.278 C 
ATOM     29  C   UNL     1      31.802 -22.259 -16.380  0.00  0.00    +0.170 C 
ATOM     30  C   UNL     1      30.267 -22.410 -13.992  0.00  0.00    +0.086 C 
ATOM     31  C   UNL     1      33.796 -22.857 -15.204  0.00  0.00    -0.012 C 
ATOM     32  C   UNL     1      34.533 -22.500 -16.325  0.00  0.00    +0.068 C 
ATOM     33  C   UNL     1      29.569 -22.308 -15.332  0.00  0.00    +0.228 C 
ATOM     34  H   UNL     1      29.982 -21.946 -17.293  0.00  0.00    +0.157 HD
ENDBRANCH  22  28
ENDBRANCH  21  22
ENDBRANCH  20  21
ENDBRANCH  19  20
ENDBRANCH  18  19
ENDBRANCH   1  18
TORSDOF 7
ENDMDL
MODEL 7
REMARK VINA RESULT:     -11.6      2.746      5.073
REMARK  Name = 11697676
REMARK  7 active torsions:
REMARK  status: ('A' for Active; 'I' for Inactive)
REMARK    1  A    between atoms: N_1  and  C_18
REMARK    2  A    between atoms: N_2  and  C_8
REMARK    3  A    between atoms: C_18  and  C_19
REMARK    4  A    between atoms: C_19  and  C_20
REMARK    5  A    between atoms: C_20  and  C_21
REMARK    6  A    between atoms: C_21  and  O_22
REMARK    7  A    between atoms: O_22  and  C_28
REMARK                            x       y       z     vdW  Elec       q    Type
REMARK                         _______ _______ _______ _____ _____    ______ ____
ROOT
ATOM      1  N   UNL     1      35.891 -20.078 -18.739  0.00  0.00    +0.389 N 
ATOM      2  N   UNL     1      35.351 -18.514 -21.067  0.00  0.00    -0.312 N 
ATOM      3  C   UNL     1      36.984 -19.675 -19.633  0.00  0.00    -0.055 C 
ATOM      4  C   UNL     1      34.666 -20.301 -19.517  0.00  0.00    -0.055 C 
ATOM      5  C   UNL     1      36.639 -18.382 -20.375  0.00  0.00    +0.068 C 
ATOM      6  C   UNL     1      34.244 -19.029 -20.256  0.00  0.00    +0.068 C 
ATOM      7  H   UNL     1      35.723 -19.329 -18.067  0.00  0.00    -0.080 HD
ENDROOT
BRANCH   2   8
ATOM      8  C   UNL     1      35.085 -17.645 -22.131  0.00  0.00    +0.048 C 
ATOM      9  C   UNL     1      34.967 -16.236 -21.965  0.00  0.00    +0.013 C 
ATOM     10  C   UNL     1      34.926 -18.181 -23.428  0.00  0.00    +0.015 C 
ATOM     11  C   UNL     1      34.697 -15.403 -23.076  0.00  0.00    +0.001 C 
ATOM     12  C   UNL     1      35.118 -15.659 -20.694  0.00  0.00    +0.001 C 
ATOM     13  C   UNL     1      34.661 -17.360 -24.521  0.00  0.00    +0.001 C 
ATOM     14  C   UNL     1      34.548 -15.981 -24.348  0.00  0.00    +0.000 C 
ATOM     15  C   UNL     1      34.586 -14.017 -22.884  0.00  0.00    +0.000 C 
ATOM     16  C   UNL     1      35.004 -14.279 -20.521  0.00  0.00    +0.000 C 
ATOM     17  C   UNL     1      34.738 -13.460 -21.614  0.00  0.00    +0.000 C 
ENDBRANCH   2   8
BRANCH   1  18
ATOM     18  C   UNL     1      36.254 -21.284 -17.996  0.00  0.00    -0.077 C 
BRANCH  18  19
ATOM     19  C   UNL     1      37.077 -20.920 -16.762  0.00  0.00    -0.019 C 
BRANCH  19  20
ATOM     20  C   UNL     1      36.834 -21.909 -15.623  0.00  0.00    +0.045 C 
BRANCH  20  21
ATOM     21  C   UNL     1      35.457 -22.552 -15.722  0.00  0.00    +0.208 C 
BRANCH  21  22
ATOM     22  O   UNL     1      34.770 -22.412 -14.486  0.00  0.00    -0.452 OA
BRANCH  22  28
ATOM     23  O   UNL     1      28.285 -22.071 -17.049  0.00  0.00    -0.275 OA
ATOM     24  N   UNL     1      30.415 -22.254 -16.209  0.00  0.00    -0.263 N 
ATOM     25  N   UNL     1      32.610 -22.342 -15.331  0.00  0.00    -0.357 NA
ATOM     26  C   UNL     1      30.897 -23.761 -14.384  0.00  0.00    +0.090 C 
ATOM     27  C   UNL     1      29.497 -24.291 -14.465  0.00  0.00    +0.022 C 
ATOM     28  C   UNL     1      33.479 -22.871 -14.441  0.00  0.00    +0.278 C 
ATOM     29  C   UNL     1      31.332 -22.786 -15.283  0.00  0.00    +0.170 C 
ATOM     30  C   UNL     1      28.541 -23.217 -14.958  0.00  0.00    +0.086 C 
ATOM     31  C   UNL     1      31.829 -24.291 -13.492  0.00  0.00    -0.012 C 
ATOM     32  C   UNL     1      33.141 -23.836 -13.509  0.00  0.00    +0.068 C 
ATOM     33  C   UNL     1      29.055 -22.494 -16.186  0.00  0.00    +0.228 C 
ATOM     34  H   UNL     1      30.767 -21.673 -16.921  0.00  0.00    +0.157 HD
ENDBRANCH  22  28
ENDBRANCH  21  22
ENDBRANCH  20  21
ENDBRANCH  19  20
ENDBRANCH  18  19
ENDBRANCH   1  18
TORSDOF 7
ENDMDL
MODEL 8
REMARK VINA RESULT:     -11.6      3.408     11.235
REMARK  Name = 11697676
REMARK  7 active torsions:
REMARK  status: ('A' for Active; 'I' for Inactive)
REMARK    1  A    between atoms: N_1  and  C_18
REMARK    2  A    between atoms: N_2  and  C_8
REMARK    3  A    between atoms: C_18  and  C_19
REMARK    4  A    between atoms: C_19  and  C_20
REMARK    5  A    between atoms: C_20  and  C_21
REMARK    6  A    between atoms: C_21  and  O_22
REMARK    7  A    between atoms: O_22  and  C_28
REMARK                            x       y       z     vdW  Elec       q    Type
REMARK                         _______ _______ _______ _____ _____    ______ ____
ROOT
ATOM      1  N   UNL     1      34.693 -21.500 -17.614  0.00  0.00    +0.389 N 
ATOM      2  N   UNL     1      35.578 -22.735 -15.195  0.00  0.00    -0.312 N 
ATOM      3  C   UNL     1      34.029 -22.710 -17.112  0.00  0.00    -0.055 C 
ATOM      4  C   UNL     1      36.122 -21.538 -17.278  0.00  0.00    -0.055 C 
ATOM      5  C   UNL     1      34.167 -22.821 -15.592  0.00  0.00    +0.068 C 
ATOM      6  C   UNL     1      36.329 -21.612 -15.764  0.00  0.00    +0.068 C 
ATOM      7  H   UNL     1      34.271 -20.684 -17.168  0.00  0.00    -0.080 HD
ENDROOT
BRANCH   2   8
ATOM      8  C   UNL     1      35.943 -23.253 -13.948  0.00  0.00    +0.048 C 
ATOM      9  C   UNL     1      37.231 -23.800 -13.687  0.00  0.00    +0.013 C 
ATOM     10  C   UNL     1      34.999 -23.237 -12.898  0.00  0.00    +0.015 C 
ATOM     11  C   UNL     1      37.548 -24.311 -12.407  0.00  0.00    +0.001 C 
ATOM     12  C   UNL     1      38.201 -23.837 -14.701  0.00  0.00    +0.001 C 
ATOM     13  C   UNL     1      35.311 -23.740 -11.638  0.00  0.00    +0.001 C 
ATOM     14  C   UNL     1      36.576 -24.273 -11.393  0.00  0.00    +0.000 C 
ATOM     15  C   UNL     1      38.826 -24.845 -12.178  0.00  0.00    +0.000 C 
ATOM     16  C   UNL     1      39.467 -24.371 -14.456  0.00  0.00    +0.000 C 
ATOM     17  C   UNL     1      39.779 -24.875 -13.197  0.00  0.00    +0.000 C 
ENDBRANCH   2   8
BRANCH   1  18
ATOM     18  C   UNL     1      34.508 -21.375 -19.059  0.00  0.00    -0.077 C 
BRANCH  18  19
ATOM     19  C   UNL     1      33.453 -20.315 -19.370  0.00  0.00    -0.019 C 
BRANCH  19  20
ATOM     20  C   UNL     1      34.031 -19.196 -20.234  0.00  0.00    +0.045 C 
BRANCH  20  21
ATOM     21  C   UNL     1      35.524 -19.384 -20.473  0.00  0.00    +0.208 C 
BRANCH  21  22
ATOM     22  O   UNL     1      36.133 -18.127 -20.732  0.00  0.00    -0.452 OA
BRANCH  22  28
ATOM     23  O   UNL     1      34.268 -11.850 -23.150  0.00  0.00    -0.275 OA
ATOM     24  N   UNL     1      34.915 -13.928 -22.416  0.00  0.00    -0.263 N 
ATOM     25  N   UNL     1      35.526 -16.053 -21.576  0.00  0.00    -0.357 NA
ATOM     26  C   UNL     1      34.587 -15.882 -23.797  0.00  0.00    +0.090 C 
ATOM     27  C   UNL     1      34.130 -15.000 -24.920  0.00  0.00    +0.022 C 
ATOM     28  C   UNL     1      35.614 -17.389 -21.764  0.00  0.00    +0.278 C 
ATOM     29  C   UNL     1      35.005 -15.322 -22.590  0.00  0.00    +0.170 C 
ATOM     30  C   UNL     1      33.465 -13.743 -24.383  0.00  0.00    +0.086 C 
ATOM     31  C   UNL     1      34.708 -17.263 -23.955  0.00  0.00    -0.012 C 
ATOM     32  C   UNL     1      35.220 -18.036 -22.921  0.00  0.00    +0.068 C 
ATOM     33  C   UNL     1      34.273 -13.073 -23.291  0.00  0.00    +0.228 C 
ATOM     34  H   UNL     1      35.338 -13.536 -21.619  0.00  0.00    +0.157 HD
ENDBRANCH  22  28
ENDBRANCH  21  22
ENDBRANCH  20  21
ENDBRANCH  19  20
ENDBRANCH  18  19
ENDBRANCH   1  18
TORSDOF 7
ENDMDL
MODEL 9
REMARK VINA RESULT:     -11.5      4.016      7.000
REMARK  Name = 11697676
REMARK  7 active torsions:
REMARK  status: ('A' for Active; 'I' for Inactive)
REMARK    1  A    between atoms: N_1  and  C_18
REMARK    2  A    between atoms: N_2  and  C_8
REMARK    3  A    between atoms: C_18  and  C_19
REMARK    4  A    between atoms: C_19  and  C_20
REMARK    5  A    between atoms: C_20  and  C_21
REMARK    6  A    between atoms: C_21  and  O_22
REMARK    7  A    between atoms: O_22  and  C_28
REMARK                            x       y       z     vdW  Elec       q    Type
REMARK                         _______ _______ _______ _____ _____    ______ ____
ROOT
ATOM      1  N   UNL     1      34.219 -15.084 -23.288  0.00  0.00    +0.389 N 
ATOM      2  N   UNL     1      33.800 -12.282 -22.926  0.00  0.00    -0.312 N 
ATOM      3  C   UNL     1      34.913 -14.363 -22.214  0.00  0.00    -0.055 C 
ATOM      4  C   UNL     1      34.043 -14.202 -24.449  0.00  0.00    -0.055 C 
ATOM      5  C   UNL     1      34.113 -13.134 -21.772  0.00  0.00    +0.068 C 
ATOM      6  C   UNL     1      33.215 -12.968 -24.081  0.00  0.00    +0.068 C 
ATOM      7  H   UNL     1      33.300 -15.373 -22.951  0.00  0.00    -0.080 HD
ENDROOT
BRANCH   2   8
ATOM      8  C   UNL     1      33.488 -10.939 -22.685  0.00  0.00    +0.048 C 
ATOM      9  C   UNL     1      34.147  -9.865 -23.346  0.00  0.00    +0.013 C 
ATOM     10  C   UNL     1      32.479 -10.629 -21.748  0.00  0.00    +0.015 C 
ATOM     11  C   UNL     1      33.793  -8.524 -23.065  0.00  0.00    +0.001 C 
ATOM     12  C   UNL     1      35.157 -10.126 -24.286  0.00  0.00    +0.001 C 
ATOM     13  C   UNL     1      32.130  -9.310 -21.472  0.00  0.00    +0.001 C 
ATOM     14  C   UNL     1      32.782  -8.264 -22.126  0.00  0.00    +0.000 C 
ATOM     15  C   UNL     1      34.459  -7.484 -23.732  0.00  0.00    +0.000 C 
ATOM     16  C   UNL     1      35.809  -9.080 -24.940  0.00  0.00    +0.000 C 
ATOM     17  C   UNL     1      35.460  -7.761 -24.663  0.00  0.00    +0.000 C 
ENDBRANCH   2   8
BRANCH   1  18
ATOM     18  C   UNL     1      34.965 -16.285 -23.665  0.00  0.00    -0.077 C 
BRANCH  18  19
ATOM     19  C   UNL     1      35.690 -16.861 -22.450  0.00  0.00    -0.019 C 
BRANCH  19  20
ATOM     20  C   UNL     1      35.180 -18.262 -22.115  0.00  0.00    +0.045 C 
BRANCH  20  21
ATOM     21  C   UNL     1      35.163 -18.511 -20.613  0.00  0.00    +0.208 C 
BRANCH  21  22
ATOM     22  O   UNL     1      36.009 -19.607 -20.297  0.00  0.00    -0.452 OA
BRANCH  22  28
ATOM     23  O   UNL     1      37.930 -22.305 -14.151  0.00  0.00    -0.275 OA
ATOM     24  N   UNL     1      37.237 -21.395 -16.144  0.00  0.00    -0.263 N 
ATOM     25  N   UNL     1      36.607 -20.498 -18.239  0.00  0.00    -0.357 NA
ATOM     26  C   UNL     1      35.025 -21.842 -17.001  0.00  0.00    +0.090 C 
ATOM     27  C   UNL     1      34.686 -22.557 -15.728  0.00  0.00    +0.022 C 
ATOM     28  C   UNL     1      35.667 -20.357 -19.201  0.00  0.00    +0.278 C 
ATOM     29  C   UNL     1      36.275 -21.245 -17.160  0.00  0.00    +0.170 C 
ATOM     30  C   UNL     1      35.925 -23.194 -15.120  0.00  0.00    +0.086 C 
ATOM     31  C   UNL     1      34.079 -21.659 -18.010  0.00  0.00    -0.012 C 
ATOM     32  C   UNL     1      34.403 -20.914 -19.136  0.00  0.00    +0.068 C 
ATOM     33  C   UNL     1      37.104 -22.244 -15.062  0.00  0.00    +0.228 C 
ATOM     34  H   UNL     1      38.060 -20.859 -16.207  0.00  0.00    +0.157 HD
ENDBRANCH  22  28
ENDBRANCH  21  22
ENDBRANCH  20  21
ENDBRANCH  19  20
ENDBRANCH  18  19
ENDBRANCH   1  18
TORSDOF 7
ENDMDL
