MODEL 1
REMARK VINA RESULT:     -12.3      0.000      0.000
REMARK  Name = 447359
REMARK  5 active torsions:
REMARK  status: ('A' for Active; 'I' for Inactive)
REMARK    1  A    between atoms: N_2  and  S_8
REMARK    2  A    between atoms: N_3  and  C_21
REMARK    3  A    between atoms: S_8  and  C_13
REMARK    4  A    between atoms: C_21  and  C_22
REMARK    5  A    between atoms: C_25  and  C_30
REMARK                            x       y       z     vdW  Elec       q    Type
REMARK                         _______ _______ _______ _____ _____    ______ ____
ROOT
ATOM      1  O   UNL     1      37.538 -19.889 -19.835  0.00  0.00    -0.273 OA
ATOM      2  N   UNL     1      34.297 -20.951 -18.624  0.00  0.00    -0.144 NA
ATOM      3  N   UNL     1      35.447 -18.973 -20.237  0.00  0.00    -0.273 N 
ATOM      4  C   UNL     1      33.463 -20.340 -19.682  0.00  0.00    +0.118 C 
ATOM      5  C   UNL     1      34.018 -18.956 -19.939  0.00  0.00    +0.113 C 
ATOM      6  C   UNL     1      35.686 -21.151 -19.079  0.00  0.00    +0.181 C 
ATOM      7  C   UNL     1      36.309 -19.940 -19.726  0.00  0.00    +0.244 C 
ENDROOT
BRANCH   2   8
ATOM      8  S   UNL     1      33.594 -22.269 -17.787  0.00  0.00    +0.069 S 
ATOM      9  O   UNL     1      33.879 -23.485 -18.522  0.00  0.00    -0.152 OA
ATOM     10  O   UNL     1      32.251 -21.913 -17.383  0.00  0.00    -0.152 OA
BRANCH   8  13
ATOM     11 CL   UNL     1      36.058 -23.667 -10.126  0.00  0.00    -0.082 Cl
ATOM     12  S   UNL     1      33.518 -23.031 -14.972  0.00  0.00    -0.067 S 
ATOM     13  C   UNL     1      34.475 -22.454 -16.240  0.00  0.00    +0.152 C 
ATOM     14  C   UNL     1      35.763 -22.218 -15.896  0.00  0.00    +0.027 C 
ATOM     15  C   UNL     1      36.011 -22.520 -14.515  0.00  0.00    +0.008 C 
ATOM     16  C   UNL     1      34.853 -22.980 -13.881  0.00  0.00    +0.032 C 
ATOM     17  C   UNL     1      37.198 -22.422 -13.751  0.00  0.00    +0.001 C 
ATOM     18  C   UNL     1      34.852 -23.340 -12.519  0.00  0.00    +0.018 C 
ATOM     19  C   UNL     1      37.202 -22.778 -12.400  0.00  0.00    +0.011 C 
ATOM     20  C   UNL     1      36.039 -23.231 -11.792  0.00  0.00    +0.058 C 
ENDBRANCH   8  13
ENDBRANCH   2   8
BRANCH   3  21
ATOM     21  C   UNL     1      35.980 -17.792 -20.903  0.00  0.00    +0.120 C 
BRANCH  21  22
ATOM     22  C   UNL     1      35.342 -17.646 -22.251  0.00  0.00    -0.002 C 
ATOM     23  C   UNL     1      35.086 -16.376 -22.759  0.00  0.00    +0.000 C 
ATOM     24  C   UNL     1      35.009 -18.780 -22.985  0.00  0.00    -0.003 C 
ATOM     25  C   UNL     1      34.492 -16.239 -24.013  0.00  0.00    +0.030 C 
ATOM     26  C   UNL     1      34.414 -18.643 -24.238  0.00  0.00    -0.000 C 
ATOM     27  C   UNL     1      34.155 -17.373 -24.753  0.00  0.00    +0.003 C 
BRANCH  25  30
ATOM     28  N   UNL     1      34.029 -13.818 -23.713  0.00  0.00    -0.343 N 
ATOM     29  N   UNL     1      34.152 -14.737 -25.858  0.00  0.00    -0.285 NA
ATOM     30  C   UNL     1      34.221 -14.915 -24.551  0.00  0.00    +0.117 C 
ATOM     31  H   UNL     1      33.847 -12.930 -24.098  0.00  0.00    +0.144 HD
ATOM     32  H   UNL     1      34.074 -13.931 -22.737  0.00  0.00    +0.144 HD
ATOM     33  H   UNL     1      33.969 -13.841 -26.224  0.00  0.00    +0.188 HD
ENDBRANCH  25  30
ENDBRANCH  21  22
ENDBRANCH   3  21
TORSDOF 5
ENDMDL
MODEL 2
REMARK VINA RESULT:     -11.5      4.530     10.154
REMARK  Name = 447359
REMARK  5 active torsions:
REMARK  status: ('A' for Active; 'I' for Inactive)
REMARK    1  A    between atoms: N_2  and  S_8
REMARK    2  A    between atoms: N_3  and  C_21
REMARK    3  A    between atoms: S_8  and  C_13
REMARK    4  A    between atoms: C_21  and  C_22
REMARK    5  A    between atoms: C_25  and  C_30
REMARK                            x       y       z     vdW  Elec       q    Type
REMARK                         _______ _______ _______ _____ _____    ______ ____
ROOT
ATOM      1  O   UNL     1      33.778 -23.563 -13.352  0.00  0.00    -0.273 OA
ATOM      2  N   UNL     1      34.358 -22.111 -16.617  0.00  0.00    -0.144 NA
ATOM      3  N   UNL     1      35.654 -22.467 -14.161  0.00  0.00    -0.273 N 
ATOM      4  C   UNL     1      35.837 -22.144 -16.606  0.00  0.00    +0.118 C 
ATOM      5  C   UNL     1      36.279 -21.694 -15.230  0.00  0.00    +0.113 C 
ATOM      6  C   UNL     1      33.789 -23.088 -15.670  0.00  0.00    +0.181 C 
ATOM      7  C   UNL     1      34.391 -23.040 -14.288  0.00  0.00    +0.244 C 
ENDROOT
BRANCH   2   8
ATOM      8  S   UNL     1      33.624 -22.063 -18.163  0.00  0.00    +0.069 S 
ATOM      9  O   UNL     1      32.266 -21.580 -18.013  0.00  0.00    -0.152 OA
ATOM     10  O   UNL     1      33.929 -23.287 -18.871  0.00  0.00    -0.152 OA
BRANCH   8  13
ATOM     11 CL   UNL     1      35.792 -15.842 -22.991  0.00  0.00    -0.082 Cl
ATOM     12  S   UNL     1      33.411 -19.806 -20.000  0.00  0.00    -0.067 S 
ATOM     13  C   UNL     1      34.456 -20.795 -19.114  0.00  0.00    +0.152 C 
ATOM     14  C   UNL     1      35.765 -20.481 -19.256  0.00  0.00    +0.027 C 
ATOM     15  C   UNL     1      35.954 -19.366 -20.138  0.00  0.00    +0.008 C 
ATOM     16  C   UNL     1      34.732 -18.892 -20.624  0.00  0.00    +0.032 C 
ATOM     17  C   UNL     1      37.139 -18.717 -20.560  0.00  0.00    +0.001 C 
ATOM     18  C   UNL     1      34.666 -17.799 -21.511  0.00  0.00    +0.018 C 
ATOM     19  C   UNL     1      37.078 -17.632 -21.439  0.00  0.00    +0.011 C 
ATOM     20  C   UNL     1      35.853 -17.180 -21.908  0.00  0.00    +0.058 C 
ENDBRANCH   8  13
ENDBRANCH   2   8
BRANCH   3  21
ATOM     21  C   UNL     1      36.308 -22.415 -12.861  0.00  0.00    +0.120 C 
BRANCH  21  22
ATOM     22  C   UNL     1      37.150 -23.640 -12.673  0.00  0.00    -0.002 C 
ATOM     23  C   UNL     1      38.365 -23.752 -13.344  0.00  0.00    +0.000 C 
ATOM     24  C   UNL     1      36.712 -24.658 -11.832  0.00  0.00    -0.003 C 
ATOM     25  C   UNL     1      39.148 -24.893 -13.170  0.00  0.00    +0.030 C 
ATOM     26  C   UNL     1      37.495 -25.799 -11.660  0.00  0.00    -0.000 C 
ATOM     27  C   UNL     1      38.714 -25.917 -12.329  0.00  0.00    +0.003 C 
BRANCH  25  30
ATOM     28  N   UNL     1      41.009 -26.260 -14.085  0.00  0.00    -0.343 N 
ATOM     29  N   UNL     1      41.037 -23.933 -14.305  0.00  0.00    -0.285 NA
ATOM     30  C   UNL     1      40.419 -25.016 -13.868  0.00  0.00    +0.117 C 
ATOM     31  H   UNL     1      41.869 -26.320 -14.559  0.00  0.00    +0.144 HD
ATOM     32  H   UNL     1      40.565 -27.077 -13.764  0.00  0.00    +0.144 HD
ATOM     33  H   UNL     1      41.897 -24.014 -14.778  0.00  0.00    +0.188 HD
ENDBRANCH  25  30
ENDBRANCH  21  22
ENDBRANCH   3  21
TORSDOF 5
ENDMDL
MODEL 3
REMARK VINA RESULT:     -10.8      1.383      2.029
REMARK  Name = 447359
REMARK  5 active torsions:
REMARK  status: ('A' for Active; 'I' for Inactive)
REMARK    1  A    between atoms: N_2  and  S_8
REMARK    2  A    between atoms: N_3  and  C_21
REMARK    3  A    between atoms: S_8  and  C_13
REMARK    4  A    between atoms: C_21  and  C_22
REMARK    5  A    between atoms: C_25  and  C_30
REMARK                            x       y       z     vdW  Elec       q    Type
REMARK                         _______ _______ _______ _____ _____    ______ ____
ROOT
ATOM      1  O   UNL     1      37.817 -19.355 -19.921  0.00  0.00    -0.273 OA
ATOM      2  N   UNL     1      34.448 -20.453 -19.184  0.00  0.00    -0.144 NA
ATOM      3  N   UNL     1      35.805 -18.613 -20.801  0.00  0.00    -0.273 N 
ATOM      4  C   UNL     1      33.802 -20.018 -20.442  0.00  0.00    +0.118 C 
ATOM      5  C   UNL     1      34.346 -18.643 -20.767  0.00  0.00    +0.113 C 
ATOM      6  C   UNL     1      35.903 -20.624 -19.356  0.00  0.00    +0.181 C 
ATOM      7  C   UNL     1      36.592 -19.463 -20.028  0.00  0.00    +0.244 C 
ENDROOT
BRANCH   2   8
ATOM      8  S   UNL     1      33.650 -21.702 -18.328  0.00  0.00    +0.069 S 
ATOM      9  O   UNL     1      33.752 -22.925 -19.098  0.00  0.00    -0.152 OA
ATOM     10  O   UNL     1      32.381 -21.208 -17.839  0.00  0.00    -0.152 OA
BRANCH   8  13
ATOM     11 CL   UNL     1      36.427 -23.802 -10.939  0.00  0.00    -0.082 Cl
ATOM     12  S   UNL     1      33.695 -22.745 -15.604  0.00  0.00    -0.067 S 
ATOM     13  C   UNL     1      34.592 -22.019 -16.840  0.00  0.00    +0.152 C 
ATOM     14  C   UNL     1      35.886 -21.787 -16.519  0.00  0.00    +0.027 C 
ATOM     15  C   UNL     1      36.192 -22.220 -15.185  0.00  0.00    +0.008 C 
ATOM     16  C   UNL     1      35.068 -22.771 -14.561  0.00  0.00    +0.032 C 
ATOM     17  C   UNL     1      37.404 -22.169 -14.457  0.00  0.00    +0.001 C 
ATOM     18  C   UNL     1      35.126 -23.266 -13.244  0.00  0.00    +0.018 C 
ATOM     19  C   UNL     1      37.466 -22.659 -13.150  0.00  0.00    +0.011 C 
ATOM     20  C   UNL     1      36.337 -23.201 -12.551  0.00  0.00    +0.058 C 
ENDBRANCH   8  13
ENDBRANCH   2   8
BRANCH   3  21
ATOM     21  C   UNL     1      36.409 -17.489 -21.503  0.00  0.00    +0.120 C 
BRANCH  21  22
ATOM     22  C   UNL     1      35.608 -16.250 -21.250  0.00  0.00    -0.002 C 
ATOM     23  C   UNL     1      35.233 -15.440 -22.319  0.00  0.00    +0.000 C 
ATOM     24  C   UNL     1      35.244 -15.914 -19.950  0.00  0.00    -0.003 C 
ATOM     25  C   UNL     1      34.487 -14.285 -22.084  0.00  0.00    +0.030 C 
ATOM     26  C   UNL     1      34.499 -14.759 -19.715  0.00  0.00    -0.000 C 
ATOM     27  C   UNL     1      34.120 -13.944 -20.781  0.00  0.00    +0.003 C 
BRANCH  25  30
ATOM     28  N   UNL     1      33.331 -13.930 -24.253  0.00  0.00    -0.343 N 
ATOM     29  N   UNL     1      34.460 -12.165 -23.216  0.00  0.00    -0.285 NA
ATOM     30  C   UNL     1      34.092 -13.434 -23.196  0.00  0.00    +0.117 C 
ATOM     31  H   UNL     1      33.075 -13.337 -24.995  0.00  0.00    +0.144 HD
ATOM     32  H   UNL     1      33.051 -14.873 -24.257  0.00  0.00    +0.144 HD
ATOM     33  H   UNL     1      34.193 -11.588 -23.968  0.00  0.00    +0.188 HD
ENDBRANCH  25  30
ENDBRANCH  21  22
ENDBRANCH   3  21
TORSDOF 5
ENDMDL
MODEL 4
REMARK VINA RESULT:     -10.6      3.841      6.269
REMARK  Name = 447359
REMARK  5 active torsions:
REMARK  status: ('A' for Active; 'I' for Inactive)
REMARK    1  A    between atoms: N_2  and  S_8
REMARK    2  A    between atoms: N_3  and  C_21
REMARK    3  A    between atoms: S_8  and  C_13
REMARK    4  A    between atoms: C_21  and  C_22
REMARK    5  A    between atoms: C_25  and  C_30
REMARK                            x       y       z     vdW  Elec       q    Type
REMARK                         _______ _______ _______ _____ _____    ______ ____
ROOT
ATOM      1  O   UNL     1      34.350 -13.934 -19.997  0.00  0.00    -0.273 OA
ATOM      2  N   UNL     1      35.226 -16.622 -22.258  0.00  0.00    -0.144 NA
ATOM      3  N   UNL     1      34.119 -14.051 -22.301  0.00  0.00    -0.273 N 
ATOM      4  C   UNL     1      35.361 -15.823 -23.496  0.00  0.00    +0.118 C 
ATOM      5  C   UNL     1      34.205 -14.847 -23.521  0.00  0.00    +0.113 C 
ATOM      6  C   UNL     1      35.380 -15.782 -21.054  0.00  0.00    +0.181 C 
ATOM      7  C   UNL     1      34.551 -14.523 -21.064  0.00  0.00    +0.244 C 
ENDROOT
BRANCH   2   8
ATOM      8  S   UNL     1      36.069 -18.112 -22.234  0.00  0.00    +0.069 S 
ATOM      9  O   UNL     1      37.431 -17.863 -21.810  0.00  0.00    -0.152 OA
ATOM     10  O   UNL     1      35.764 -18.849 -23.442  0.00  0.00    -0.152 OA
BRANCH   8  13
ATOM     11 CL   UNL     1      34.507 -22.931 -15.828  0.00  0.00    -0.082 Cl
ATOM     12  S   UNL     1      36.505 -19.819 -19.910  0.00  0.00    -0.067 S 
ATOM     13  C   UNL     1      35.359 -19.110 -20.930  0.00  0.00    +0.152 C 
ATOM     14  C   UNL     1      34.077 -19.403 -20.608  0.00  0.00    +0.027 C 
ATOM     15  C   UNL     1      33.997 -20.258 -19.458  0.00  0.00    +0.008 C 
ATOM     16  C   UNL     1      35.270 -20.569 -18.969  0.00  0.00    +0.032 C 
ATOM     17  C   UNL     1      32.873 -20.800 -18.791  0.00  0.00    +0.001 C 
ATOM     18  C   UNL     1      35.443 -21.398 -17.843  0.00  0.00    +0.018 C 
ATOM     19  C   UNL     1      33.041 -21.622 -17.673  0.00  0.00    +0.011 C 
ATOM     20  C   UNL     1      34.314 -21.917 -17.207  0.00  0.00    +0.058 C 
ENDBRANCH   8  13
ENDBRANCH   2   8
BRANCH   3  21
ATOM     21  C   UNL     1      33.340 -12.823 -22.386  0.00  0.00    +0.120 C 
BRANCH  21  22
ATOM     22  C   UNL     1      33.750 -12.052 -23.604  0.00  0.00    -0.002 C 
ATOM     23  C   UNL     1      34.460 -10.864 -23.462  0.00  0.00    +0.000 C 
ATOM     24  C   UNL     1      33.417 -12.529 -24.868  0.00  0.00    -0.003 C 
ATOM     25  C   UNL     1      34.842 -10.146 -24.595  0.00  0.00    +0.030 C 
ATOM     26  C   UNL     1      33.798 -11.810 -26.001  0.00  0.00    -0.000 C 
ATOM     27  C   UNL     1      34.510 -10.619 -25.865  0.00  0.00    +0.003 C 
BRANCH  25  30
ATOM     28  N   UNL     1      35.947  -8.145 -25.566  0.00  0.00    -0.343 N 
ATOM     29  N   UNL     1      35.930  -8.476 -23.252  0.00  0.00    -0.285 NA
ATOM     30  C   UNL     1      35.584  -8.903 -24.454  0.00  0.00    +0.117 C 
ATOM     31  H   UNL     1      36.450  -7.307 -25.447  0.00  0.00    +0.144 HD
ATOM     32  H   UNL     1      35.702  -8.448 -26.469  0.00  0.00    +0.144 HD
ATOM     33  H   UNL     1      36.432  -7.635 -23.154  0.00  0.00    +0.188 HD
ENDBRANCH  25  30
ENDBRANCH  21  22
ENDBRANCH   3  21
TORSDOF 5
ENDMDL
MODEL 5
REMARK VINA RESULT:     -10.4      5.834     10.733
REMARK  Name = 447359
REMARK  5 active torsions:
REMARK  status: ('A' for Active; 'I' for Inactive)
REMARK    1  A    between atoms: N_2  and  S_8
REMARK    2  A    between atoms: N_3  and  C_21
REMARK    3  A    between atoms: S_8  and  C_13
REMARK    4  A    between atoms: C_21  and  C_22
REMARK    5  A    between atoms: C_25  and  C_30
REMARK                            x       y       z     vdW  Elec       q    Type
REMARK                         _______ _______ _______ _____ _____    ______ ____
ROOT
ATOM      1  O   UNL     1      35.722 -16.236 -19.926  0.00  0.00    -0.273 OA
ATOM      2  N   UNL     1      34.927 -16.225 -23.458  0.00  0.00    -0.144 NA
ATOM      3  N   UNL     1      35.730 -17.992 -21.440  0.00  0.00    -0.273 N 
ATOM      4  C   UNL     1      34.578 -17.655 -23.603  0.00  0.00    +0.118 C 
ATOM      5  C   UNL     1      35.610 -18.443 -22.823  0.00  0.00    +0.113 C 
ATOM      6  C   UNL     1      34.802 -15.778 -22.057  0.00  0.00    +0.181 C 
ATOM      7  C   UNL     1      35.481 -16.677 -21.054  0.00  0.00    +0.244 C 
ENDROOT
BRANCH   2   8
ATOM      8  S   UNL     1      34.263 -15.172 -24.633  0.00  0.00    +0.069 S 
ATOM      9  O   UNL     1      33.016 -15.738 -25.106  0.00  0.00    -0.152 OA
ATOM     10  O   UNL     1      35.309 -14.754 -25.542  0.00  0.00    -0.152 OA
BRANCH   8  13
ATOM     11 CL   UNL     1      32.876  -7.502 -22.191  0.00  0.00    -0.082 Cl
ATOM     12  S   UNL     1      34.247 -12.254 -24.614  0.00  0.00    -0.067 S 
ATOM     13  C   UNL     1      33.791 -13.662 -23.797  0.00  0.00    +0.152 C 
ATOM     14  C   UNL     1      33.137 -13.437 -22.633  0.00  0.00    +0.027 C 
ATOM     15  C   UNL     1      32.985 -12.034 -22.368  0.00  0.00    +0.008 C 
ATOM     16  C   UNL     1      33.555 -11.262 -23.385  0.00  0.00    +0.032 C 
ATOM     17  C   UNL     1      32.374 -11.364 -21.282  0.00  0.00    +0.001 C 
ATOM     18  C   UNL     1      33.529  -9.854 -23.344  0.00  0.00    +0.018 C 
ATOM     19  C   UNL     1      32.345  -9.967 -21.237  0.00  0.00    +0.011 C 
ATOM     20  C   UNL     1      32.919  -9.223 -22.259  0.00  0.00    +0.058 C 
ENDBRANCH   8  13
ENDBRANCH   2   8
BRANCH   3  21
ATOM     21  C   UNL     1      36.353 -18.923 -20.510  0.00  0.00    +0.120 C 
BRANCH  21  22
ATOM     22  C   UNL     1      35.294 -19.707 -19.799  0.00  0.00    -0.002 C 
ATOM     23  C   UNL     1      35.644 -20.536 -18.737  0.00  0.00    +0.000 C 
ATOM     24  C   UNL     1      33.967 -19.604 -20.205  0.00  0.00    -0.003 C 
ATOM     25  C   UNL     1      34.658 -21.267 -18.075  0.00  0.00    +0.030 C 
ATOM     26  C   UNL     1      32.981 -20.335 -19.543  0.00  0.00    -0.000 C 
ATOM     27  C   UNL     1      33.326 -21.167 -18.478  0.00  0.00    +0.003 C 
BRANCH  25  30
ATOM     28  N   UNL     1      36.168 -21.910 -16.211  0.00  0.00    -0.343 N 
ATOM     29  N   UNL     1      34.245 -23.162 -16.656  0.00  0.00    -0.285 NA
ATOM     30  C   UNL     1      35.017 -22.135 -16.964  0.00  0.00    +0.117 C 
ATOM     31  H   UNL     1      36.392 -22.510 -15.464  0.00  0.00    +0.144 HD
ATOM     32  H   UNL     1      36.757 -21.152 -16.427  0.00  0.00    +0.144 HD
ATOM     33  H   UNL     1      34.486 -23.751 -15.904  0.00  0.00    +0.188 HD
ENDBRANCH  25  30
ENDBRANCH  21  22
ENDBRANCH   3  21
TORSDOF 5
ENDMDL
MODEL 6
REMARK VINA RESULT:     -10.4      1.240      1.912
REMARK  Name = 447359
REMARK  5 active torsions:
REMARK  status: ('A' for Active; 'I' for Inactive)
REMARK    1  A    between atoms: N_2  and  S_8
REMARK    2  A    between atoms: N_3  and  C_21
REMARK    3  A    between atoms: S_8  and  C_13
REMARK    4  A    between atoms: C_21  and  C_22
REMARK    5  A    between atoms: C_25  and  C_30
REMARK                            x       y       z     vdW  Elec       q    Type
REMARK                         _______ _______ _______ _____ _____    ______ ____
ROOT
ATOM      1  O   UNL     1      33.851 -19.020 -21.480  0.00  0.00    -0.273 OA
ATOM      2  N   UNL     1      34.541 -21.350 -18.798  0.00  0.00    -0.144 NA
ATOM      3  N   UNL     1      35.807 -19.339 -20.278  0.00  0.00    -0.273 N 
ATOM      4  C   UNL     1      35.668 -20.626 -18.171  0.00  0.00    +0.118 C 
ATOM      5  C   UNL     1      36.549 -20.121 -19.294  0.00  0.00    +0.113 C 
ATOM      6  C   UNL     1      33.695 -20.443 -19.598  0.00  0.00    +0.181 C 
ATOM      7  C   UNL     1      34.459 -19.559 -20.551  0.00  0.00    +0.244 C 
ENDROOT
BRANCH   2   8
ATOM      8  S   UNL     1      33.701 -22.445 -17.785  0.00  0.00    +0.069 S 
ATOM      9  O   UNL     1      33.789 -23.769 -18.365  0.00  0.00    -0.152 OA
ATOM     10  O   UNL     1      32.435 -21.859 -17.399  0.00  0.00    -0.152 OA
BRANCH   8  13
ATOM     11 CL   UNL     1      36.305 -23.501 -10.115  0.00  0.00    -0.082 Cl
ATOM     12  S   UNL     1      33.678 -23.086 -14.938  0.00  0.00    -0.067 S 
ATOM     13  C   UNL     1      34.609 -22.559 -16.247  0.00  0.00    +0.152 C 
ATOM     14  C   UNL     1      35.901 -22.302 -15.936  0.00  0.00    +0.027 C 
ATOM     15  C   UNL     1      36.175 -22.543 -14.548  0.00  0.00    +0.008 C 
ATOM     16  C   UNL     1      35.031 -22.982 -13.875  0.00  0.00    +0.032 C 
ATOM     17  C   UNL     1      37.375 -22.406 -13.809  0.00  0.00    +0.001 C 
ATOM     18  C   UNL     1      35.056 -23.283 -12.499  0.00  0.00    +0.018 C 
ATOM     19  C   UNL     1      37.404 -22.704 -12.444  0.00  0.00    +0.011 C 
ATOM     20  C   UNL     1      36.254 -23.137 -11.798  0.00  0.00    +0.058 C 
ENDBRANCH   8  13
ENDBRANCH   2   8
BRANCH   3  21
ATOM     21  C   UNL     1      36.598 -18.470 -21.139  0.00  0.00    +0.120 C 
BRANCH  21  22
ATOM     22  C   UNL     1      35.904 -17.152 -21.295  0.00  0.00    -0.002 C 
ATOM     23  C   UNL     1      35.572 -16.693 -22.566  0.00  0.00    +0.000 C 
ATOM     24  C   UNL     1      35.597 -16.395 -20.168  0.00  0.00    -0.003 C 
ATOM     25  C   UNL     1      34.927 -15.464 -22.712  0.00  0.00    +0.030 C 
ATOM     26  C   UNL     1      34.952 -15.167 -20.315  0.00  0.00    -0.000 C 
ATOM     27  C   UNL     1      34.617 -14.701 -21.586  0.00  0.00    +0.003 C 
BRANCH  25  30
ATOM     28  N   UNL     1      33.841 -13.808 -24.210  0.00  0.00    -0.343 N 
ATOM     29  N   UNL     1      34.958 -15.655 -25.107  0.00  0.00    -0.285 NA
ATOM     30  C   UNL     1      34.577 -14.978 -24.038  0.00  0.00    +0.117 C 
ATOM     31  H   UNL     1      33.616 -13.497 -25.116  0.00  0.00    +0.144 HD
ATOM     32  H   UNL     1      33.546 -13.292 -23.426  0.00  0.00    +0.144 HD
ATOM     33  H   UNL     1      34.722 -15.328 -26.006  0.00  0.00    +0.188 HD
ENDBRANCH  25  30
ENDBRANCH  21  22
ENDBRANCH   3  21
TORSDOF 5
ENDMDL
MODEL 7
REMARK VINA RESULT:     -10.2      3.844      6.172
REMARK  Name = 447359
REMARK  5 active torsions:
REMARK  status: ('A' for Active; 'I' for Inactive)
REMARK    1  A    between atoms: N_2  and  S_8
REMARK    2  A    between atoms: N_3  and  C_21
REMARK    3  A    between atoms: S_8  and  C_13
REMARK    4  A    between atoms: C_21  and  C_22
REMARK    5  A    between atoms: C_25  and  C_30
REMARK                            x       y       z     vdW  Elec       q    Type
REMARK                         _______ _______ _______ _____ _____    ______ ____
ROOT
ATOM      1  O   UNL     1      34.612 -13.889 -19.737  0.00  0.00    -0.273 OA
ATOM      2  N   UNL     1      35.102 -16.502 -22.193  0.00  0.00    -0.144 NA
ATOM      3  N   UNL     1      34.132 -13.882 -22.005  0.00  0.00    -0.273 N 
ATOM      4  C   UNL     1      35.146 -15.651 -23.403  0.00  0.00    +0.118 C 
ATOM      5  C   UNL     1      34.047 -14.621 -23.261  0.00  0.00    +0.113 C 
ATOM      6  C   UNL     1      35.427 -15.730 -20.979  0.00  0.00    +0.181 C 
ATOM      7  C   UNL     1      34.668 -14.433 -20.844  0.00  0.00    +0.244 C 
ENDROOT
BRANCH   2   8
ATOM      8  S   UNL     1      35.863 -18.029 -22.326  0.00  0.00    +0.069 S 
ATOM      9  O   UNL     1      37.273 -17.867 -22.039  0.00  0.00    -0.152 OA
ATOM     10  O   UNL     1      35.396 -18.690 -23.526  0.00  0.00    -0.152 OA
BRANCH   8  13
ATOM     11 CL   UNL     1      34.725 -22.882 -15.855  0.00  0.00    -0.082 Cl
ATOM     12  S   UNL     1      36.449 -19.693 -20.002  0.00  0.00    -0.067 S 
ATOM     13  C   UNL     1      35.241 -19.056 -20.999  0.00  0.00    +0.152 C 
ATOM     14  C   UNL     1      33.986 -19.418 -20.645  0.00  0.00    +0.027 C 
ATOM     15  C   UNL     1      33.981 -20.269 -19.489  0.00  0.00    +0.008 C 
ATOM     16  C   UNL     1      35.280 -20.504 -19.028  0.00  0.00    +0.032 C 
ATOM     17  C   UNL     1      32.905 -20.868 -18.791  0.00  0.00    +0.001 C 
ATOM     18  C   UNL     1      35.527 -21.313 -17.901  0.00  0.00    +0.018 C 
ATOM     19  C   UNL     1      33.146 -21.671 -17.673  0.00  0.00    +0.011 C 
ATOM     20  C   UNL     1      34.444 -21.890 -17.235  0.00  0.00    +0.058 C 
ENDBRANCH   8  13
ENDBRANCH   2   8
BRANCH   3  21
ATOM     21  C   UNL     1      33.414 -12.616 -21.952  0.00  0.00    +0.120 C 
BRANCH  21  22
ATOM     22  C   UNL     1      33.837 -11.751 -23.100  0.00  0.00    -0.002 C 
ATOM     23  C   UNL     1      33.583 -12.163 -24.405  0.00  0.00    +0.000 C 
ATOM     24  C   UNL     1      34.483 -10.543 -22.854  0.00  0.00    -0.003 C 
ATOM     25  C   UNL     1      33.978 -11.359 -25.474  0.00  0.00    +0.030 C 
ATOM     26  C   UNL     1      34.878  -9.739 -23.924  0.00  0.00    -0.000 C 
ATOM     27  C   UNL     1      34.626 -10.147 -25.234  0.00  0.00    +0.003 C 
BRANCH  25  30
ATOM     28  N   UNL     1      32.474 -11.572 -27.439  0.00  0.00    -0.343 N 
ATOM     29  N   UNL     1      34.664 -12.385 -27.536  0.00  0.00    -0.285 NA
ATOM     30  C   UNL     1      33.715 -11.783 -26.840  0.00  0.00    +0.117 C 
ATOM     31  H   UNL     1      32.318 -11.867 -28.365  0.00  0.00    +0.144 HD
ATOM     32  H   UNL     1      31.755 -11.128 -26.937  0.00  0.00    +0.144 HD
ATOM     33  H   UNL     1      34.488 -12.673 -28.461  0.00  0.00    +0.188 HD
ENDBRANCH  25  30
ENDBRANCH  21  22
ENDBRANCH   3  21
TORSDOF 5
ENDMDL
MODEL 8
REMARK VINA RESULT:      -9.9      4.665     10.121
REMARK  Name = 447359
REMARK  5 active torsions:
REMARK  status: ('A' for Active; 'I' for Inactive)
REMARK    1  A    between atoms: N_2  and  S_8
REMARK    2  A    between atoms: N_3  and  C_21
REMARK    3  A    between atoms: S_8  and  C_13
REMARK    4  A    between atoms: C_21  and  C_22
REMARK    5  A    between atoms: C_25  and  C_30
REMARK                            x       y       z     vdW  Elec       q    Type
REMARK                         _______ _______ _______ _____ _____    ______ ____
ROOT
ATOM      1  O   UNL     1      32.436 -20.154 -19.061  0.00  0.00    -0.273 OA
ATOM      2  N   UNL     1      35.675 -19.215 -20.378  0.00  0.00    -0.144 NA
ATOM      3  N   UNL     1      34.516 -21.097 -18.660  0.00  0.00    -0.273 N 
ATOM      4  C   UNL     1      36.363 -20.512 -20.196  0.00  0.00    +0.118 C 
ATOM      5  C   UNL     1      35.964 -21.037 -18.833  0.00  0.00    +0.113 C 
ATOM      6  C   UNL     1      34.210 -19.384 -20.424  0.00  0.00    +0.181 C 
ATOM      7  C   UNL     1      33.645 -20.224 -19.307  0.00  0.00    +0.244 C 
ENDROOT
BRANCH   2   8
ATOM      8  S   UNL     1      36.339 -18.178 -21.567  0.00  0.00    +0.069 S 
ATOM      9  O   UNL     1      35.934 -18.656 -22.873  0.00  0.00    -0.152 OA
ATOM     10  O   UNL     1      37.724 -17.910 -21.244  0.00  0.00    -0.152 OA
BRANCH   8  13
ATOM     11 CL   UNL     1      32.995 -10.786 -22.517  0.00  0.00    -0.082 Cl
ATOM     12  S   UNL     1      35.425 -15.718 -22.844  0.00  0.00    -0.067 S 
ATOM     13  C   UNL     1      35.541 -16.585 -21.397  0.00  0.00    +0.152 C 
ATOM     14  C   UNL     1      35.013 -15.945 -20.327  0.00  0.00    +0.027 C 
ATOM     15  C   UNL     1      34.473 -14.664 -20.684  0.00  0.00    +0.008 C 
ATOM     16  C   UNL     1      34.634 -14.409 -22.049  0.00  0.00    +0.032 C 
ATOM     17  C   UNL     1      33.837 -13.680 -19.889  0.00  0.00    +0.001 C 
ATOM     18  C   UNL     1      34.180 -13.209 -22.632  0.00  0.00    +0.018 C 
ATOM     19  C   UNL     1      33.385 -12.490 -20.464  0.00  0.00    +0.011 C 
ATOM     20  C   UNL     1      33.557 -12.259 -21.822  0.00  0.00    +0.058 C 
ENDBRANCH   8  13
ENDBRANCH   2   8
BRANCH   3  21
ATOM     21  C   UNL     1      34.030 -21.961 -17.593  0.00  0.00    +0.120 C 
BRANCH  21  22
ATOM     22  C   UNL     1      35.059 -22.043 -16.507  0.00  0.00    -0.002 C 
ATOM     23  C   UNL     1      34.767 -22.726 -15.330  0.00  0.00    +0.000 C 
ATOM     24  C   UNL     1      36.298 -21.435 -16.681  0.00  0.00    -0.003 C 
ATOM     25  C   UNL     1      35.724 -22.801 -14.318  0.00  0.00    +0.030 C 
ATOM     26  C   UNL     1      37.255 -21.510 -15.669  0.00  0.00    -0.000 C 
ATOM     27  C   UNL     1      36.968 -22.193 -14.487  0.00  0.00    +0.003 C 
BRANCH  25  30
ATOM     28  N   UNL     1      36.157 -24.636 -12.701  0.00  0.00    -0.343 N 
ATOM     29  N   UNL     1      34.442 -23.098 -12.307  0.00  0.00    -0.285 NA
ATOM     30  C   UNL     1      35.426 -23.514 -13.085  0.00  0.00    +0.117 C 
ATOM     31  H   UNL     1      35.938 -25.103 -11.863  0.00  0.00    +0.144 HD
ATOM     32  H   UNL     1      36.891 -24.963 -13.268  0.00  0.00    +0.144 HD
ATOM     33  H   UNL     1      34.238 -23.579 -11.472  0.00  0.00    +0.188 HD
ENDBRANCH  25  30
ENDBRANCH  21  22
ENDBRANCH   3  21
TORSDOF 5
ENDMDL
MODEL 9
REMARK VINA RESULT:      -9.9      4.276      6.849
REMARK  Name = 447359
REMARK  5 active torsions:
REMARK  status: ('A' for Active; 'I' for Inactive)
REMARK    1  A    between atoms: N_2  and  S_8
REMARK    2  A    between atoms: N_3  and  C_21
REMARK    3  A    between atoms: S_8  and  C_13
REMARK    4  A    between atoms: C_21  and  C_22
REMARK    5  A    between atoms: C_25  and  C_30
REMARK                            x       y       z     vdW  Elec       q    Type
REMARK                         _______ _______ _______ _____ _____    ______ ____
ROOT
ATOM      1  O   UNL     1      34.408 -13.469 -19.946  0.00  0.00    -0.273 OA
ATOM      2  N   UNL     1      34.925 -16.149 -22.324  0.00  0.00    -0.144 NA
ATOM      3  N   UNL     1      33.728 -13.623 -22.157  0.00  0.00    -0.273 N 
ATOM      4  C   UNL     1      34.778 -15.362 -23.568  0.00  0.00    +0.118 C 
ATOM      5  C   UNL     1      33.602 -14.431 -23.366  0.00  0.00    +0.113 C 
ATOM      6  C   UNL     1      35.282 -15.288 -21.179  0.00  0.00    +0.181 C 
ATOM      7  C   UNL     1      34.417 -14.062 -21.029  0.00  0.00    +0.244 C 
ENDROOT
BRANCH   2   8
ATOM      8  S   UNL     1      35.815 -17.604 -22.462  0.00  0.00    +0.069 S 
ATOM      9  O   UNL     1      37.198 -17.332 -22.126  0.00  0.00    -0.152 OA
ATOM     10  O   UNL     1      35.442 -18.275 -23.689  0.00  0.00    -0.152 OA
BRANCH   8  13
ATOM     11 CL   UNL     1      34.902 -22.745 -16.180  0.00  0.00    -0.082 Cl
ATOM     12  S   UNL     1      36.477 -19.324 -20.199  0.00  0.00    -0.067 S 
ATOM     13  C   UNL     1      35.241 -18.709 -21.176  0.00  0.00    +0.152 C 
ATOM     14  C   UNL     1      34.005 -19.143 -20.839  0.00  0.00    +0.027 C 
ATOM     15  C   UNL     1      34.039 -20.036 -19.716  0.00  0.00    +0.008 C 
ATOM     16  C   UNL     1      35.347 -20.226 -19.260  0.00  0.00    +0.032 C 
ATOM     17  C   UNL     1      32.992 -20.712 -19.045  0.00  0.00    +0.001 C 
ATOM     18  C   UNL     1      35.630 -21.064 -18.164  0.00  0.00    +0.018 C 
ATOM     19  C   UNL     1      33.269 -21.543 -17.957  0.00  0.00    +0.011 C 
ATOM     20  C   UNL     1      34.575 -21.717 -17.523  0.00  0.00    +0.058 C 
ENDBRANCH   8  13
ENDBRANCH   2   8
BRANCH   3  21
ATOM     21  C   UNL     1      32.899 -12.428 -22.091  0.00  0.00    +0.120 C 
BRANCH  21  22
ATOM     22  C   UNL     1      33.541 -11.328 -22.880  0.00  0.00    -0.002 C 
ATOM     23  C   UNL     1      33.347 -10.003 -22.502  0.00  0.00    +0.000 C 
ATOM     24  C   UNL     1      34.325 -11.638 -23.987  0.00  0.00    -0.003 C 
ATOM     25  C   UNL     1      33.943  -8.978 -23.237  0.00  0.00    +0.030 C 
ATOM     26  C   UNL     1      34.921 -10.613 -24.722  0.00  0.00    -0.000 C 
ATOM     27  C   UNL     1      34.731  -9.284 -24.348  0.00  0.00    +0.003 C 
BRANCH  25  30
ATOM     28  N   UNL     1      33.563  -6.589 -23.798  0.00  0.00    -0.343 N 
ATOM     29  N   UNL     1      33.738  -7.263 -21.567  0.00  0.00    -0.285 NA
ATOM     30  C   UNL     1      33.745  -7.591 -22.847  0.00  0.00    +0.117 C 
ATOM     31  H   UNL     1      33.431  -5.657 -23.512  0.00  0.00    +0.144 HD
ATOM     32  H   UNL     1      33.568  -6.814 -24.756  0.00  0.00    +0.144 HD
ATOM     33  H   UNL     1      33.604  -6.324 -21.300  0.00  0.00    +0.188 HD
ENDBRANCH  25  30
ENDBRANCH  21  22
ENDBRANCH   3  21
TORSDOF 5
ENDMDL
