MODEL 1
REMARK VINA RESULT:     -12.8      0.000      0.000
REMARK  Name = 54766013
REMARK  5 active torsions:
REMARK  status: ('A' for Active; 'I' for Inactive)
REMARK    1  A    between atoms: C_3  and  C_11
REMARK    2  A    between atoms: C_4  and  C_18
REMARK    3  A    between atoms: C_5  and  C_24
REMARK    4  A    between atoms: C_24  and  N_25
REMARK    5  A    between atoms: N_25  and  C_28
REMARK                            x       y       z     vdW  Elec       q    Type
REMARK                         _______ _______ _______ _____ _____    ______ ____
ROOT
ATOM      1  N   UNL     1      35.320 -22.784 -13.796  0.00  0.00    -0.315 N 
ATOM      2  N   UNL     1      33.575 -23.438 -12.588  0.00  0.00    -0.317 N 
ATOM      3  C   UNL     1      33.179 -23.147 -13.869  0.00  0.00    +0.063 C 
ATOM      4  C   UNL     1      34.245 -22.740 -14.637  0.00  0.00    +0.085 C 
ATOM      5  C   UNL     1      34.870 -23.209 -12.576  0.00  0.00    +0.164 C 
ATOM      6  H   UNL     1      36.249 -22.554 -14.025  0.00  0.00    +0.148 HD
ATOM      7  H   UNL     1      33.013 -23.749 -11.841  0.00  0.00    +0.148 HD
ENDROOT
BRANCH   3  11
ATOM      8  N   UNL     1      29.646 -22.294 -14.714  0.00  0.00    -0.170 N 
ATOM      9  N   UNL     1      28.717 -21.312 -14.827  0.00  0.00    -0.150 NA
ATOM     10  N   UNL     1      27.791 -23.332 -15.361  0.00  0.00    -0.206 NA
ATOM     11  C   UNL     1      31.768 -23.284 -14.279  0.00  0.00    +0.031 C 
ATOM     12  C   UNL     1      30.987 -22.185 -14.336  0.00  0.00    +0.092 C 
ATOM     13  C   UNL     1      31.157 -24.572 -14.622  0.00  0.00    +0.006 C 
ATOM     14  C   UNL     1      29.053 -23.515 -15.044  0.00  0.00    +0.157 C 
ATOM     15  C   UNL     1      29.866 -24.678 -14.985  0.00  0.00    +0.036 C 
ATOM     16  C   UNL     1      27.636 -21.988 -15.215  0.00  0.00    +0.219 C 
ENDBRANCH   3  11
BRANCH   4  18
ATOM     17  N   UNL     1      35.548 -21.817 -16.363  0.00  0.00    -0.409 NA
ATOM     18  C   UNL     1      34.348 -22.332 -16.016  0.00  0.00    +0.127 C 
ATOM     19  C   UNL     1      33.282 -22.475 -16.891  0.00  0.00    +0.086 C 
ATOM     20  C   UNL     1      35.684 -21.426 -17.650  0.00  0.00    +0.109 C 
ATOM     21  C   UNL     1      33.462 -22.062 -18.206  0.00  0.00    -0.016 C 
ATOM     22  C   UNL     1      34.682 -21.526 -18.602  0.00  0.00    +0.023 C 
ATOM     23  C   UNL     1      37.007 -20.855 -18.039  0.00  0.00    +0.066 C 
ENDBRANCH   4  18
BRANCH   5  24
ATOM     24  C   UNL     1      35.786 -23.368 -11.433  0.00  0.00    +0.128 C 
BRANCH  24  25
ATOM     25  N   UNL     1      36.463 -24.655 -11.465  0.00  0.00    -0.328 N 
ATOM     26  H   UNL     1      36.139 -25.367 -10.869  0.00  0.00    +0.147 HD
BRANCH  25  28
ATOM     27  F   UNL     1      38.842 -23.265 -11.204  0.00  0.00    -0.203 F 
ATOM     28  C   UNL     1      37.537 -24.926 -12.289  0.00  0.00    +0.073 C 
ATOM     29  C   UNL     1      38.728 -24.216 -12.143  0.00  0.00    +0.153 C 
ATOM     30  C   UNL     1      37.429 -25.913 -13.270  0.00  0.00    +0.017 C 
ATOM     31  C   UNL     1      39.812 -24.492 -12.976  0.00  0.00    +0.031 C 
ATOM     32  C   UNL     1      38.513 -26.189 -14.103  0.00  0.00    +0.001 C 
ATOM     33  C   UNL     1      39.705 -25.479 -13.956  0.00  0.00    +0.002 C 
ENDBRANCH  25  28
ENDBRANCH  24  25
ENDBRANCH   5  24
TORSDOF 5
ENDMDL
MODEL 2
REMARK VINA RESULT:     -12.4      2.525      7.418
REMARK  Name = 54766013
REMARK  5 active torsions:
REMARK  status: ('A' for Active; 'I' for Inactive)
REMARK    1  A    between atoms: C_3  and  C_11
REMARK    2  A    between atoms: C_4  and  C_18
REMARK    3  A    between atoms: C_5  and  C_24
REMARK    4  A    between atoms: C_24  and  N_25
REMARK    5  A    between atoms: N_25  and  C_28
REMARK                            x       y       z     vdW  Elec       q    Type
REMARK                         _______ _______ _______ _____ _____    ______ ____
ROOT
ATOM      1  N   UNL     1      33.262 -22.302 -14.486  0.00  0.00    -0.315 N 
ATOM      2  N   UNL     1      34.031 -23.860 -13.103  0.00  0.00    -0.317 N 
ATOM      3  C   UNL     1      34.950 -23.610 -14.091  0.00  0.00    +0.063 C 
ATOM      4  C   UNL     1      34.495 -22.646 -14.960  0.00  0.00    +0.085 C 
ATOM      5  C   UNL     1      33.025 -23.056 -13.370  0.00  0.00    +0.164 C 
ATOM      6  H   UNL     1      32.654 -21.632 -14.875  0.00  0.00    +0.148 HD
ATOM      7  H   UNL     1      34.107 -24.501 -12.359  0.00  0.00    +0.148 HD
ENDROOT
BRANCH   3  11
ATOM      8  N   UNL     1      38.567 -24.415 -13.651  0.00  0.00    -0.170 N 
ATOM      9  N   UNL     1      39.770 -23.995 -13.183  0.00  0.00    -0.150 NA
ATOM     10  N   UNL     1      39.974 -26.070 -14.118  0.00  0.00    -0.206 NA
ATOM     11  C   UNL     1      36.236 -24.332 -14.134  0.00  0.00    +0.031 C 
ATOM     12  C   UNL     1      37.338 -23.752 -13.613  0.00  0.00    +0.092 C 
ATOM     13  C   UNL     1      36.387 -25.662 -14.733  0.00  0.00    +0.006 C 
ATOM     14  C   UNL     1      38.722 -25.682 -14.217  0.00  0.00    +0.157 C 
ATOM     15  C   UNL     1      37.570 -26.301 -14.770  0.00  0.00    +0.036 C 
ATOM     16  C   UNL     1      40.565 -25.019 -13.488  0.00  0.00    +0.219 C 
ENDBRANCH   3  11
BRANCH   4  18
ATOM     17  N   UNL     1      34.220 -21.892 -17.170  0.00  0.00    -0.409 NA
ATOM     18  C   UNL     1      35.075 -22.047 -16.136  0.00  0.00    +0.127 C 
ATOM     19  C   UNL     1      36.408 -21.668 -16.167  0.00  0.00    +0.086 C 
ATOM     20  C   UNL     1      34.728 -21.330 -18.290  0.00  0.00    +0.109 C 
ATOM     21  C   UNL     1      36.893 -21.093 -17.337  0.00  0.00    -0.016 C 
ATOM     22  C   UNL     1      36.044 -20.917 -18.423  0.00  0.00    +0.023 C 
ATOM     23  C   UNL     1      33.788 -21.158 -19.437  0.00  0.00    +0.066 C 
ENDBRANCH   4  18
BRANCH   5  24
ATOM     24  C   UNL     1      31.770 -22.927 -12.608  0.00  0.00    +0.128 C 
BRANCH  24  25
ATOM     25  N   UNL     1      30.727 -23.785 -13.147  0.00  0.00    -0.328 N 
ATOM     26  H   UNL     1      30.598 -24.672 -12.743  0.00  0.00    +0.147 HD
BRANCH  25  28
ATOM     27  F   UNL     1      30.065 -25.593 -15.134  0.00  0.00    -0.203 F 
ATOM     28  C   UNL     1      29.910 -23.417 -14.196  0.00  0.00    +0.073 C 
ATOM     29  C   UNL     1      29.587 -24.342 -15.189  0.00  0.00    +0.153 C 
ATOM     30  C   UNL     1      29.407 -22.117 -14.265  0.00  0.00    +0.017 C 
ATOM     31  C   UNL     1      28.761 -23.969 -16.249  0.00  0.00    +0.031 C 
ATOM     32  C   UNL     1      28.581 -21.744 -15.326  0.00  0.00    +0.001 C 
ATOM     33  C   UNL     1      28.258 -22.670 -16.317  0.00  0.00    +0.002 C 
ENDBRANCH  25  28
ENDBRANCH  24  25
ENDBRANCH   5  24
TORSDOF 5
ENDMDL
MODEL 3
REMARK VINA RESULT:     -12.3      3.234      6.985
REMARK  Name = 54766013
REMARK  5 active torsions:
REMARK  status: ('A' for Active; 'I' for Inactive)
REMARK    1  A    between atoms: C_3  and  C_11
REMARK    2  A    between atoms: C_4  and  C_18
REMARK    3  A    between atoms: C_5  and  C_24
REMARK    4  A    between atoms: C_24  and  N_25
REMARK    5  A    between atoms: N_25  and  C_28
REMARK                            x       y       z     vdW  Elec       q    Type
REMARK                         _______ _______ _______ _____ _____    ______ ____
ROOT
ATOM      1  N   UNL     1      37.367 -21.648 -16.184  0.00  0.00    -0.315 N 
ATOM      2  N   UNL     1      35.244 -21.726 -16.829  0.00  0.00    -0.317 N 
ATOM      3  C   UNL     1      35.390 -22.341 -15.612  0.00  0.00    +0.063 C 
ATOM      4  C   UNL     1      36.699 -22.305 -15.191  0.00  0.00    +0.085 C 
ATOM      5  C   UNL     1      36.453 -21.320 -17.147  0.00  0.00    +0.164 C 
ATOM      6  H   UNL     1      38.331 -21.446 -16.204  0.00  0.00    +0.148 HD
ATOM      7  H   UNL     1      34.416 -21.614 -17.351  0.00  0.00    +0.148 HD
ENDROOT
BRANCH   3  11
ATOM      8  N   UNL     1      31.903 -23.430 -14.848  0.00  0.00    -0.170 N 
ATOM      9  N   UNL     1      30.613 -23.467 -15.267  0.00  0.00    -0.150 NA
ATOM     10  N   UNL     1      30.804 -24.482 -13.228  0.00  0.00    -0.206 NA
ATOM     11  C   UNL     1      34.233 -22.938 -14.917  0.00  0.00    +0.031 C 
ATOM     12  C   UNL     1      33.014 -22.879 -15.492  0.00  0.00    +0.092 C 
ATOM     13  C   UNL     1      34.336 -23.589 -13.607  0.00  0.00    +0.006 C 
ATOM     14  C   UNL     1      31.990 -24.055 -13.601  0.00  0.00    +0.157 C 
ATOM     15  C   UNL     1      33.268 -24.120 -12.985  0.00  0.00    +0.036 C 
ATOM     16  C   UNL     1      30.009 -24.103 -14.265  0.00  0.00    +0.219 C 
ENDBRANCH   3  11
BRANCH   4  18
ATOM     17  N   UNL     1      38.321 -23.715 -14.237  0.00  0.00    -0.409 NA
ATOM     18  C   UNL     1      37.352 -22.802 -14.006  0.00  0.00    +0.127 C 
ATOM     19  C   UNL     1      36.993 -22.354 -12.744  0.00  0.00    +0.086 C 
ATOM     20  C   UNL     1      38.959 -24.203 -13.149  0.00  0.00    +0.109 C 
ATOM     21  C   UNL     1      37.673 -22.880 -11.650  0.00  0.00    -0.016 C 
ATOM     22  C   UNL     1      38.676 -23.821 -11.848  0.00  0.00    +0.023 C 
ATOM     23  C   UNL     1      40.029 -25.214 -13.399  0.00  0.00    +0.066 C 
ENDBRANCH   4  18
BRANCH   5  24
ATOM     24  C   UNL     1      36.851 -20.595 -18.368  0.00  0.00    +0.128 C 
BRANCH  24  25
ATOM     25  N   UNL     1      35.694 -20.103 -19.097  0.00  0.00    -0.328 N 
ATOM     26  H   UNL     1      34.799 -20.371 -18.788  0.00  0.00    +0.147 HD
BRANCH  25  28
ATOM     27  F   UNL     1      33.522 -19.715 -20.768  0.00  0.00    -0.203 F 
ATOM     28  C   UNL     1      35.786 -19.280 -20.201  0.00  0.00    +0.073 C 
ATOM     29  C   UNL     1      34.682 -19.096 -21.033  0.00  0.00    +0.153 C 
ATOM     30  C   UNL     1      36.989 -18.631 -20.486  0.00  0.00    +0.017 C 
ATOM     31  C   UNL     1      34.777 -18.265 -22.148  0.00  0.00    +0.031 C 
ATOM     32  C   UNL     1      37.084 -17.799 -21.602  0.00  0.00    +0.001 C 
ATOM     33  C   UNL     1      35.979 -17.615 -22.433  0.00  0.00    +0.002 C 
ENDBRANCH  25  28
ENDBRANCH  24  25
ENDBRANCH   5  24
TORSDOF 5
ENDMDL
MODEL 4
REMARK VINA RESULT:     -12.1      1.139      4.752
REMARK  Name = 54766013
REMARK  5 active torsions:
REMARK  status: ('A' for Active; 'I' for Inactive)
REMARK    1  A    between atoms: C_3  and  C_11
REMARK    2  A    between atoms: C_4  and  C_18
REMARK    3  A    between atoms: C_5  and  C_24
REMARK    4  A    between atoms: C_24  and  N_25
REMARK    5  A    between atoms: N_25  and  C_28
REMARK                            x       y       z     vdW  Elec       q    Type
REMARK                         _______ _______ _______ _____ _____    ______ ____
ROOT
ATOM      1  N   UNL     1      33.863 -23.626 -12.328  0.00  0.00    -0.315 N 
ATOM      2  N   UNL     1      35.597 -22.814 -13.452  0.00  0.00    -0.317 N 
ATOM      3  C   UNL     1      34.488 -22.855 -14.259  0.00  0.00    +0.063 C 
ATOM      4  C   UNL     1      33.399 -23.354 -13.583  0.00  0.00    +0.085 C 
ATOM      5  C   UNL     1      35.187 -23.286 -12.295  0.00  0.00    +0.164 C 
ATOM      6  H   UNL     1      33.339 -23.999 -11.581  0.00  0.00    +0.148 HD
ATOM      7  H   UNL     1      36.501 -22.502 -13.687  0.00  0.00    +0.148 HD
ENDROOT
BRANCH   3  11
ATOM      8  N   UNL     1      35.740 -21.330 -17.427  0.00  0.00    -0.170 N 
ATOM      9  N   UNL     1      36.765 -20.693 -18.047  0.00  0.00    -0.150 NA
ATOM     10  N   UNL     1      35.029 -20.985 -19.504  0.00  0.00    -0.206 NA
ATOM     11  C   UNL     1      34.550 -22.398 -15.661  0.00  0.00    +0.031 C 
ATOM     12  C   UNL     1      35.663 -21.778 -16.106  0.00  0.00    +0.092 C 
ATOM     13  C   UNL     1      33.446 -22.574 -16.609  0.00  0.00    +0.006 C 
ATOM     14  C   UNL     1      34.695 -21.494 -18.339  0.00  0.00    +0.157 C 
ATOM     15  C   UNL     1      33.518 -22.144 -17.881  0.00  0.00    +0.036 C 
ATOM     16  C   UNL     1      36.285 -20.515 -19.276  0.00  0.00    +0.219 C 
ENDBRANCH   3  11
BRANCH   4  18
ATOM     17  N   UNL     1      31.279 -22.476 -14.095  0.00  0.00    -0.409 NA
ATOM     18  C   UNL     1      32.034 -23.591 -13.981  0.00  0.00    +0.127 C 
ATOM     19  C   UNL     1      31.567 -24.873 -14.224  0.00  0.00    +0.086 C 
ATOM     20  C   UNL     1      29.992 -22.659 -14.469  0.00  0.00    +0.109 C 
ATOM     21  C   UNL     1      30.238 -25.019 -14.607  0.00  0.00    -0.016 C 
ATOM     22  C   UNL     1      29.429 -23.896 -14.735  0.00  0.00    +0.023 C 
ATOM     23  C   UNL     1      29.153 -21.431 -14.595  0.00  0.00    +0.066 C 
ENDBRANCH   4  18
BRANCH   5  24
ATOM     24  C   UNL     1      35.993 -23.456 -11.073  0.00  0.00    +0.128 C 
BRANCH  24  25
ATOM     25  N   UNL     1      36.766 -24.686 -11.110  0.00  0.00    -0.328 N 
ATOM     26  H   UNL     1      36.594 -25.366 -10.420  0.00  0.00    +0.147 HD
BRANCH  25  28
ATOM     27  F   UNL     1      39.101 -23.203 -11.216  0.00  0.00    -0.203 F 
ATOM     28  C   UNL     1      37.731 -24.949 -12.062  0.00  0.00    +0.073 C 
ATOM     29  C   UNL     1      38.901 -24.191 -12.100  0.00  0.00    +0.153 C 
ATOM     30  C   UNL     1      37.533 -25.973 -12.988  0.00  0.00    +0.017 C 
ATOM     31  C   UNL     1      39.874 -24.457 -13.063  0.00  0.00    +0.031 C 
ATOM     32  C   UNL     1      38.507 -26.240 -13.952  0.00  0.00    +0.001 C 
ATOM     33  C   UNL     1      39.677 -25.482 -13.989  0.00  0.00    +0.002 C 
ENDBRANCH  25  28
ENDBRANCH  24  25
ENDBRANCH   5  24
TORSDOF 5
ENDMDL
MODEL 5
REMARK VINA RESULT:     -12.0      2.955      7.965
REMARK  Name = 54766013
REMARK  5 active torsions:
REMARK  status: ('A' for Active; 'I' for Inactive)
REMARK    1  A    between atoms: C_3  and  C_11
REMARK    2  A    between atoms: C_4  and  C_18
REMARK    3  A    between atoms: C_5  and  C_24
REMARK    4  A    between atoms: C_24  and  N_25
REMARK    5  A    between atoms: N_25  and  C_28
REMARK                            x       y       z     vdW  Elec       q    Type
REMARK                         _______ _______ _______ _____ _____    ______ ____
ROOT
ATOM      1  N   UNL     1      32.947 -22.055 -17.087  0.00  0.00    -0.315 N 
ATOM      2  N   UNL     1      35.167 -22.051 -17.048  0.00  0.00    -0.317 N 
ATOM      3  C   UNL     1      34.677 -22.695 -15.940  0.00  0.00    +0.063 C 
ATOM      4  C   UNL     1      33.302 -22.711 -15.942  0.00  0.00    +0.085 C 
ATOM      5  C   UNL     1      34.100 -21.677 -17.718  0.00  0.00    +0.164 C 
ATOM      6  H   UNL     1      32.029 -21.887 -17.401  0.00  0.00    +0.148 HD
ATOM      7  H   UNL     1      36.111 -21.900 -17.288  0.00  0.00    +0.148 HD
ENDROOT
BRANCH   3  11
ATOM      8  N   UNL     1      37.062 -22.965 -13.082  0.00  0.00    -0.170 N 
ATOM      9  N   UNL     1      37.753 -22.303 -12.120  0.00  0.00    -0.150 NA
ATOM     10  N   UNL     1      38.194 -24.542 -12.001  0.00  0.00    -0.206 NA
ATOM     11  C   UNL     1      35.587 -23.267 -14.928  0.00  0.00    +0.031 C 
ATOM     12  C   UNL     1      36.190 -22.446 -14.043  0.00  0.00    +0.092 C 
ATOM     13  C   UNL     1      35.885 -24.699 -14.839  0.00  0.00    +0.006 C 
ATOM     14  C   UNL     1      37.351 -24.329 -12.987  0.00  0.00    +0.157 C 
ATOM     15  C   UNL     1      36.723 -25.201 -13.915  0.00  0.00    +0.036 C 
ATOM     16  C   UNL     1      38.406 -23.291 -11.511  0.00  0.00    +0.219 C 
ENDBRANCH   3  11
BRANCH   4  18
ATOM     17  N   UNL     1      31.054 -23.188 -15.444  0.00  0.00    -0.409 NA
ATOM     18  C   UNL     1      32.336 -23.254 -15.021  0.00  0.00    +0.127 C 
ATOM     19  C   UNL     1      32.725 -23.798 -13.807  0.00  0.00    +0.086 C 
ATOM     20  C   UNL     1      30.119 -23.690 -14.607  0.00  0.00    +0.109 C 
ATOM     21  C   UNL     1      31.734 -24.305 -12.974  0.00  0.00    -0.016 C 
ATOM     22  C   UNL     1      30.404 -24.254 -13.374  0.00  0.00    +0.023 C 
ATOM     23  C   UNL     1      28.701 -23.618 -15.068  0.00  0.00    +0.066 C 
ENDBRANCH   4  18
BRANCH   5  24
ATOM     24  C   UNL     1      34.070 -20.942 -18.996  0.00  0.00    +0.128 C 
BRANCH  24  25
ATOM     25  N   UNL     1      35.241 -20.096 -19.153  0.00  0.00    -0.328 N 
ATOM     26  H   UNL     1      35.910 -20.087 -18.432  0.00  0.00    +0.147 HD
BRANCH  25  28
ATOM     27  F   UNL     1      37.621 -18.718 -19.464  0.00  0.00    -0.203 F 
ATOM     28  C   UNL     1      35.462 -19.304 -20.262  0.00  0.00    +0.073 C 
ATOM     29  C   UNL     1      36.668 -18.616 -20.402  0.00  0.00    +0.153 C 
ATOM     30  C   UNL     1      34.477 -19.191 -21.243  0.00  0.00    +0.017 C 
ATOM     31  C   UNL     1      36.889 -17.817 -21.522  0.00  0.00    +0.031 C 
ATOM     32  C   UNL     1      34.699 -18.391 -22.365  0.00  0.00    +0.001 C 
ATOM     33  C   UNL     1      35.904 -17.704 -22.504  0.00  0.00    +0.002 C 
ENDBRANCH  25  28
ENDBRANCH  24  25
ENDBRANCH   5  24
TORSDOF 5
ENDMDL
MODEL 6
REMARK VINA RESULT:     -11.6      2.589      6.411
REMARK  Name = 54766013
REMARK  5 active torsions:
REMARK  status: ('A' for Active; 'I' for Inactive)
REMARK    1  A    between atoms: C_3  and  C_11
REMARK    2  A    between atoms: C_4  and  C_18
REMARK    3  A    between atoms: C_5  and  C_24
REMARK    4  A    between atoms: C_24  and  N_25
REMARK    5  A    between atoms: N_25  and  C_28
REMARK                            x       y       z     vdW  Elec       q    Type
REMARK                         _______ _______ _______ _____ _____    ______ ____
ROOT
ATOM      1  N   UNL     1      37.081 -22.289 -15.452  0.00  0.00    -0.315 N 
ATOM      2  N   UNL     1      35.090 -21.821 -16.317  0.00  0.00    -0.317 N 
ATOM      3  C   UNL     1      34.954 -22.684 -15.259  0.00  0.00    +0.063 C 
ATOM      4  C   UNL     1      36.176 -22.988 -14.706  0.00  0.00    +0.085 C 
ATOM      5  C   UNL     1      36.383 -21.602 -16.407  0.00  0.00    +0.164 C 
ATOM      6  H   UNL     1      38.058 -22.279 -15.326  0.00  0.00    +0.148 HD
ATOM      7  H   UNL     1      34.377 -21.447 -16.884  0.00  0.00    +0.148 HD
ENDROOT
BRANCH   3  11
ATOM      8  N   UNL     1      31.270 -23.274 -15.180  0.00  0.00    -0.170 N 
ATOM      9  N   UNL     1      30.074 -23.038 -15.777  0.00  0.00    -0.150 NA
ATOM     10  N   UNL     1      29.781 -24.342 -13.924  0.00  0.00    -0.206 NA
ATOM     11  C   UNL     1      33.625 -23.170 -14.840  0.00  0.00    +0.031 C 
ATOM     12  C   UNL     1      32.538 -22.831 -15.564  0.00  0.00    +0.092 C 
ATOM     13  C   UNL     1      33.418 -24.005 -13.652  0.00  0.00    +0.006 C 
ATOM     14  C   UNL     1      31.061 -24.071 -14.052  0.00  0.00    +0.157 C 
ATOM     15  C   UNL     1      32.197 -24.432 -13.281  0.00  0.00    +0.036 C 
ATOM     16  C   UNL     1      29.229 -23.697 -14.987  0.00  0.00    +0.219 C 
ENDBRANCH   3  11
BRANCH   4  18
ATOM     17  N   UNL     1      36.290 -23.317 -12.381  0.00  0.00    -0.409 NA
ATOM     18  C   UNL     1      36.559 -23.831 -13.601  0.00  0.00    +0.127 C 
ATOM     19  C   UNL     1      37.150 -25.067 -13.810  0.00  0.00    +0.086 C 
ATOM     20  C   UNL     1      36.633 -24.081 -11.319  0.00  0.00    +0.109 C 
ATOM     21  C   UNL     1      37.488 -25.823 -12.692  0.00  0.00    -0.016 C 
ATOM     22  C   UNL     1      37.227 -25.328 -11.420  0.00  0.00    +0.023 C 
ATOM     23  C   UNL     1      36.340 -23.517  -9.968  0.00  0.00    +0.066 C 
ENDBRANCH   4  18
BRANCH   5  24
ATOM     24  C   UNL     1      37.068 -20.739 -17.387  0.00  0.00    +0.128 C 
BRANCH  24  25
ATOM     25  N   UNL     1      36.659 -21.046 -18.747  0.00  0.00    -0.328 N 
ATOM     26  H   UNL     1      37.035 -21.847 -19.178  0.00  0.00    +0.147 HD
BRANCH  25  28
ATOM     27  F   UNL     1      37.542 -18.913 -20.273  0.00  0.00    -0.203 F 
ATOM     28  C   UNL     1      35.770 -20.271 -19.465  0.00  0.00    +0.073 C 
ATOM     29  C   UNL     1      36.233 -19.200 -20.229  0.00  0.00    +0.153 C 
ATOM     30  C   UNL     1      34.405 -20.561 -19.426  0.00  0.00    +0.017 C 
ATOM     31  C   UNL     1      35.334 -18.418 -20.953  0.00  0.00    +0.031 C 
ATOM     32  C   UNL     1      33.505 -19.779 -20.150  0.00  0.00    +0.001 C 
ATOM     33  C   UNL     1      33.969 -18.708 -20.914  0.00  0.00    +0.002 C 
ENDBRANCH  25  28
ENDBRANCH  24  25
ENDBRANCH   5  24
TORSDOF 5
ENDMDL
MODEL 7
REMARK VINA RESULT:     -11.6      3.185      7.075
REMARK  Name = 54766013
REMARK  5 active torsions:
REMARK  status: ('A' for Active; 'I' for Inactive)
REMARK    1  A    between atoms: C_3  and  C_11
REMARK    2  A    between atoms: C_4  and  C_18
REMARK    3  A    between atoms: C_5  and  C_24
REMARK    4  A    between atoms: C_24  and  N_25
REMARK    5  A    between atoms: N_25  and  C_28
REMARK                            x       y       z     vdW  Elec       q    Type
REMARK                         _______ _______ _______ _____ _____    ______ ____
ROOT
ATOM      1  N   UNL     1      37.149 -21.735 -16.771  0.00  0.00    -0.315 N 
ATOM      2  N   UNL     1      35.095 -21.488 -17.578  0.00  0.00    -0.317 N 
ATOM      3  C   UNL     1      35.051 -22.118 -16.360  0.00  0.00    +0.063 C 
ATOM      4  C   UNL     1      36.313 -22.282 -15.840  0.00  0.00    +0.085 C 
ATOM      5  C   UNL     1      36.373 -21.271 -17.797  0.00  0.00    +0.164 C 
ATOM      6  H   UNL     1      38.131 -21.683 -16.715  0.00  0.00    +0.148 HD
ATOM      7  H   UNL     1      34.337 -21.252 -18.161  0.00  0.00    +0.148 HD
ENDROOT
BRANCH   3  11
ATOM      8  N   UNL     1      32.556 -23.530 -13.971  0.00  0.00    -0.170 N 
ATOM      9  N   UNL     1      32.355 -24.135 -12.773  0.00  0.00    -0.150 NA
ATOM     10  N   UNL     1      30.357 -23.821 -13.837  0.00  0.00    -0.206 NA
ATOM     11  C   UNL     1      33.766 -22.531 -15.763  0.00  0.00    +0.031 C 
ATOM     12  C   UNL     1      33.761 -23.124 -14.550  0.00  0.00    +0.092 C 
ATOM     13  C   UNL     1      32.476 -22.341 -16.432  0.00  0.00    +0.006 C 
ATOM     14  C   UNL     1      31.321 -23.352 -14.598  0.00  0.00    +0.157 C 
ATOM     15  C   UNL     1      31.315 -22.731 -15.876  0.00  0.00    +0.036 C 
ATOM     16  C   UNL     1      31.031 -24.282 -12.749  0.00  0.00    +0.219 C 
ENDBRANCH   3  11
BRANCH   4  18
ATOM     17  N   UNL     1      37.097 -24.186 -14.703  0.00  0.00    -0.409 NA
ATOM     18  C   UNL     1      36.789 -22.873 -14.614  0.00  0.00    +0.127 C 
ATOM     19  C   UNL     1      36.914 -22.124 -13.455  0.00  0.00    +0.086 C 
ATOM     20  C   UNL     1      37.550 -24.774 -13.573  0.00  0.00    +0.109 C 
ATOM     21  C   UNL     1      37.384 -22.765 -12.314  0.00  0.00    -0.016 C 
ATOM     22  C   UNL     1      37.711 -24.115 -12.366  0.00  0.00    +0.023 C 
ATOM     23  C   UNL     1      37.889 -26.225 -13.666  0.00  0.00    +0.066 C 
ENDBRANCH   4  18
BRANCH   5  24
ATOM     24  C   UNL     1      36.970 -20.616 -18.976  0.00  0.00    +0.128 C 
BRANCH  24  25
ATOM     25  N   UNL     1      36.429 -19.282 -19.176  0.00  0.00    -0.328 N 
ATOM     26  H   UNL     1      36.374 -18.679 -18.400  0.00  0.00    +0.147 HD
BRANCH  25  28
ATOM     27  F   UNL     1      33.940 -19.996 -20.155  0.00  0.00    -0.203 F 
ATOM     28  C   UNL     1      35.987 -18.817 -20.398  0.00  0.00    +0.073 C 
ATOM     29  C   UNL     1      34.730 -19.188 -20.876  0.00  0.00    +0.153 C 
ATOM     30  C   UNL     1      36.802 -17.977 -21.159  0.00  0.00    +0.017 C 
ATOM     31  C   UNL     1      34.286 -18.718 -22.112  0.00  0.00    +0.031 C 
ATOM     32  C   UNL     1      36.358 -17.506 -22.395  0.00  0.00    +0.001 C 
ATOM     33  C   UNL     1      35.100 -17.877 -22.871  0.00  0.00    +0.002 C 
ENDBRANCH  25  28
ENDBRANCH  24  25
ENDBRANCH   5  24
TORSDOF 5
ENDMDL
MODEL 8
REMARK VINA RESULT:     -11.6      3.468      7.044
REMARK  Name = 54766013
REMARK  5 active torsions:
REMARK  status: ('A' for Active; 'I' for Inactive)
REMARK    1  A    between atoms: C_3  and  C_11
REMARK    2  A    between atoms: C_4  and  C_18
REMARK    3  A    between atoms: C_5  and  C_24
REMARK    4  A    between atoms: C_24  and  N_25
REMARK    5  A    between atoms: N_25  and  C_28
REMARK                            x       y       z     vdW  Elec       q    Type
REMARK                         _______ _______ _______ _____ _____    ______ ____
ROOT
ATOM      1  N   UNL     1      36.181 -21.639 -17.336  0.00  0.00    -0.315 N 
ATOM      2  N   UNL     1      34.095 -21.420 -18.064  0.00  0.00    -0.317 N 
ATOM      3  C   UNL     1      34.105 -22.042 -16.841  0.00  0.00    +0.063 C 
ATOM      4  C   UNL     1      35.388 -22.189 -16.369  0.00  0.00    +0.085 C 
ATOM      5  C   UNL     1      35.361 -21.191 -18.334  0.00  0.00    +0.164 C 
ATOM      6  H   UNL     1      37.164 -21.576 -17.318  0.00  0.00    +0.148 HD
ATOM      7  H   UNL     1      33.312 -21.195 -18.618  0.00  0.00    +0.148 HD
ENDROOT
BRANCH   3  11
ATOM      8  N   UNL     1      30.470 -22.408 -16.079  0.00  0.00    -0.170 N 
ATOM      9  N   UNL     1      29.203 -22.071 -16.427  0.00  0.00    -0.150 NA
ATOM     10  N   UNL     1      29.175 -23.439 -14.597  0.00  0.00    -0.206 NA
ATOM     11  C   UNL     1      32.849 -22.465 -16.192  0.00  0.00    +0.031 C 
ATOM     12  C   UNL     1      31.671 -22.027 -16.683  0.00  0.00    +0.092 C 
ATOM     13  C   UNL     1      32.812 -23.339 -15.015  0.00  0.00    +0.006 C 
ATOM     14  C   UNL     1      30.423 -23.241 -14.959  0.00  0.00    +0.157 C 
ATOM     15  C   UNL     1      31.657 -23.706 -14.432  0.00  0.00    +0.036 C 
ATOM     16  C   UNL     1      28.478 -22.713 -15.512  0.00  0.00    +0.219 C 
ENDBRANCH   3  11
BRANCH   4  18
ATOM     17  N   UNL     1      36.237 -24.077 -15.253  0.00  0.00    -0.409 NA
ATOM     18  C   UNL     1      35.918 -22.767 -15.160  0.00  0.00    +0.127 C 
ATOM     19  C   UNL     1      36.079 -22.010 -14.010  0.00  0.00    +0.086 C 
ATOM     20  C   UNL     1      36.740 -24.654 -14.138  0.00  0.00    +0.109 C 
ATOM     21  C   UNL     1      36.599 -22.639 -12.885  0.00  0.00    -0.016 C 
ATOM     22  C   UNL     1      36.939 -23.985 -12.941  0.00  0.00    +0.023 C 
ATOM     23  C   UNL     1      37.093 -26.101 -14.236  0.00  0.00    +0.066 C 
ENDBRANCH   4  18
BRANCH   5  24
ATOM     24  C   UNL     1      35.904 -20.537 -19.538  0.00  0.00    +0.128 C 
BRANCH  24  25
ATOM     25  N   UNL     1      35.568 -19.123 -19.576  0.00  0.00    -0.328 N 
ATOM     26  H   UNL     1      35.454 -18.647 -18.722  0.00  0.00    +0.147 HD
BRANCH  25  28
ATOM     27  F   UNL     1      35.772 -16.363 -19.611  0.00  0.00    -0.203 F 
ATOM     28  C   UNL     1      35.400 -18.414 -20.748  0.00  0.00    +0.073 C 
ATOM     29  C   UNL     1      35.506 -17.023 -20.747  0.00  0.00    +0.153 C 
ATOM     30  C   UNL     1      35.121 -19.090 -21.937  0.00  0.00    +0.017 C 
ATOM     31  C   UNL     1      35.335 -16.308 -21.932  0.00  0.00    +0.031 C 
ATOM     32  C   UNL     1      34.950 -18.375 -23.123  0.00  0.00    +0.001 C 
ATOM     33  C   UNL     1      35.058 -16.985 -23.120  0.00  0.00    +0.002 C 
ENDBRANCH  25  28
ENDBRANCH  24  25
ENDBRANCH   5  24
TORSDOF 5
ENDMDL
MODEL 9
REMARK VINA RESULT:     -11.4      3.133      7.965
REMARK  Name = 54766013
REMARK  5 active torsions:
REMARK  status: ('A' for Active; 'I' for Inactive)
REMARK    1  A    between atoms: C_3  and  C_11
REMARK    2  A    between atoms: C_4  and  C_18
REMARK    3  A    between atoms: C_5  and  C_24
REMARK    4  A    between atoms: C_24  and  N_25
REMARK    5  A    between atoms: N_25  and  C_28
REMARK                            x       y       z     vdW  Elec       q    Type
REMARK                         _______ _______ _______ _____ _____    ______ ____
ROOT
ATOM      1  N   UNL     1      34.905 -21.569 -17.570  0.00  0.00    -0.315 N 
ATOM      2  N   UNL     1      36.894 -21.885 -16.635  0.00  0.00    -0.317 N 
ATOM      3  C   UNL     1      35.907 -22.380 -15.822  0.00  0.00    +0.063 C 
ATOM      4  C   UNL     1      34.664 -22.196 -16.381  0.00  0.00    +0.085 C 
ATOM      5  C   UNL     1      36.258 -21.403 -17.680  0.00  0.00    +0.164 C 
ATOM      6  H   UNL     1      34.229 -21.288 -18.229  0.00  0.00    +0.148 HD
ATOM      7  H   UNL     1      37.866 -21.890 -16.473  0.00  0.00    +0.148 HD
ENDROOT
BRANCH   3  11
ATOM      8  N   UNL     1      37.006 -24.901 -13.299  0.00  0.00    -0.170 N 
ATOM      9  N   UNL     1      37.482 -26.154 -13.085  0.00  0.00    -0.150 NA
ATOM     10  N   UNL     1      37.207 -25.070 -11.092  0.00  0.00    -0.206 NA
ATOM     11  C   UNL     1      36.232 -23.014 -14.529  0.00  0.00    +0.031 C 
ATOM     12  C   UNL     1      36.700 -24.279 -14.512  0.00  0.00    +0.092 C 
ATOM     13  C   UNL     1      36.059 -22.336 -13.241  0.00  0.00    +0.006 C 
ATOM     14  C   UNL     1      36.847 -24.264 -12.066  0.00  0.00    +0.157 C 
ATOM     15  C   UNL     1      36.353 -22.932 -12.072  0.00  0.00    +0.036 C 
ATOM     16  C   UNL     1      37.581 -26.196 -11.758  0.00  0.00    +0.219 C 
ENDBRANCH   3  11
BRANCH   4  18
ATOM     17  N   UNL     1      33.295 -23.256 -14.789  0.00  0.00    -0.409 NA
ATOM     18  C   UNL     1      33.337 -22.532 -15.930  0.00  0.00    +0.127 C 
ATOM     19  C   UNL     1      32.213 -22.126 -16.633  0.00  0.00    +0.086 C 
ATOM     20  C   UNL     1      32.066 -23.588 -14.334  0.00  0.00    +0.109 C 
ATOM     21  C   UNL     1      30.967 -22.488 -16.132  0.00  0.00    -0.016 C 
ATOM     22  C   UNL     1      30.883 -23.232 -14.962  0.00  0.00    +0.023 C 
ATOM     23  C   UNL     1      32.014 -24.389 -13.075  0.00  0.00    +0.066 C 
ENDBRANCH   4  18
BRANCH   5  24
ATOM     24  C   UNL     1      36.859 -20.754 -18.859  0.00  0.00    +0.128 C 
BRANCH  24  25
ATOM     25  N   UNL     1      36.336 -19.411 -19.054  0.00  0.00    -0.328 N 
ATOM     26  H   UNL     1      36.225 -18.835 -18.264  0.00  0.00    +0.147 HD
BRANCH  25  28
ATOM     27  F   UNL     1      33.868 -19.970 -20.175  0.00  0.00    -0.203 F 
ATOM     28  C   UNL     1      35.987 -18.904 -20.289  0.00  0.00    +0.073 C 
ATOM     29  C   UNL     1      34.739 -19.197 -20.839  0.00  0.00    +0.153 C 
ATOM     30  C   UNL     1      36.886 -18.099 -20.990  0.00  0.00    +0.017 C 
ATOM     31  C   UNL     1      34.388 -18.684 -22.087  0.00  0.00    +0.031 C 
ATOM     32  C   UNL     1      36.535 -17.586 -22.239  0.00  0.00    +0.001 C 
ATOM     33  C   UNL     1      35.286 -17.878 -22.788  0.00  0.00    +0.002 C 
ENDBRANCH  25  28
ENDBRANCH  24  25
ENDBRANCH   5  24
TORSDOF 5
ENDMDL
