MODEL 1
REMARK VINA RESULT:     -12.8      0.000      0.000
REMARK  Name = 24978486
REMARK  5 active torsions:
REMARK  status: ('A' for Active; 'I' for Inactive)
REMARK    1  A    between atoms: O_1  and  C_6
REMARK    2  A    between atoms: O_1  and  C_18
REMARK    3  A    between atoms: C_18  and  C_20
REMARK    4  A    between atoms: N_19  and  C_26
REMARK    5  A    between atoms: C_26  and  C_29
REMARK                            x       y       z     vdW  Elec       q    Type
REMARK                         _______ _______ _______ _____ _____    ______ ____
ROOT
ATOM      1  O   UNL     1      35.163 -22.080 -16.803  0.00  0.00    -0.479 OA
ENDROOT
BRANCH   1   6
ATOM      2  N   UNL     1      36.301 -23.442 -12.295  0.00  0.00    -0.332 NA
ATOM      3  N   UNL     1      38.079 -22.733 -13.758  0.00  0.00    -0.317 NA
ATOM      4  N   UNL     1      37.653 -22.055 -15.948  0.00  0.00    -0.335 N 
ATOM      5  N   UNL     1      38.529 -23.409 -11.561  0.00  0.00    -0.283 N 
ATOM      6  C   UNL     1      34.842 -22.537 -15.549  0.00  0.00    +0.130 C 
ATOM      7  C   UNL     1      35.791 -22.758 -14.536  0.00  0.00    +0.177 C 
ATOM      8  C   UNL     1      33.495 -22.785 -15.307  0.00  0.00    +0.033 C 
ATOM      9  C   UNL     1      35.401 -23.228 -13.271  0.00  0.00    +0.137 C 
ATOM     10  C   UNL     1      37.152 -22.529 -14.713  0.00  0.00    +0.181 C 
ATOM     11  C   UNL     1      33.097 -23.252 -14.059  0.00  0.00    +0.005 C 
ATOM     12  C   UNL     1      34.047 -23.469 -13.056  0.00  0.00    +0.030 C 
ATOM     13  C   UNL     1      37.591 -23.183 -12.591  0.00  0.00    +0.197 C 
ATOM     14  H   UNL     1      38.617 -21.897 -16.061  0.00  0.00    +0.144 HD
ATOM     15  H   UNL     1      37.035 -21.882 -16.695  0.00  0.00    +0.144 HD
ATOM     16  H   UNL     1      38.227 -23.740 -10.684  0.00  0.00    +0.156 HD
ATOM     17  H   UNL     1      39.486 -23.236 -11.718  0.00  0.00    +0.156 HD
ENDBRANCH   1   6
BRANCH   1  18
ATOM     18  C   UNL     1      34.115 -22.016 -17.752  0.00  0.00    +0.205 C 
BRANCH  18  20
ATOM     19  N   UNL     1      35.422 -18.740 -20.245  0.00  0.00    +0.390 N 
ATOM     20  C   UNL     1      34.615 -21.257 -18.979  0.00  0.00    +0.040 C 
ATOM     21  C   UNL     1      35.969 -20.596 -18.703  0.00  0.00    -0.019 C 
ATOM     22  C   UNL     1      33.601 -20.197 -19.421  0.00  0.00    -0.019 C 
ATOM     23  C   UNL     1      36.428 -19.751 -19.894  0.00  0.00    -0.077 C 
ATOM     24  C   UNL     1      34.138 -19.366 -20.587  0.00  0.00    -0.077 C 
ATOM     25  H   UNL     1      35.275 -18.145 -19.429  0.00  0.00    -0.079 HD
BRANCH  19  26
ATOM     26  C   UNL     1      35.897 -17.908 -21.350  0.00  0.00    -0.049 C 
BRANCH  26  29
ATOM     27 CL   UNL     1      35.222 -16.454 -23.941  0.00  0.00    -0.082 Cl
ATOM     28 CL   UNL     1      34.162 -13.443 -23.572  0.00  0.00    -0.081 Cl
ATOM     29  C   UNL     1      35.396 -16.492 -21.243  0.00  0.00    -0.032 C 
ATOM     30  C   UNL     1      35.059 -15.740 -22.369  0.00  0.00    +0.062 C 
ATOM     31  C   UNL     1      35.272 -15.936 -19.970  0.00  0.00    -0.005 C 
ATOM     32  C   UNL     1      34.598 -14.431 -22.220  0.00  0.00    +0.068 C 
ATOM     33  C   UNL     1      34.811 -14.628 -19.822  0.00  0.00    +0.001 C 
ATOM     34  C   UNL     1      34.474 -13.876 -20.948  0.00  0.00    +0.012 C 
ENDBRANCH  26  29
ENDBRANCH  19  26
ENDBRANCH  18  20
ENDBRANCH   1  18
TORSDOF 5
ENDMDL
MODEL 2
REMARK VINA RESULT:     -12.3      1.579      2.440
REMARK  Name = 24978486
REMARK  5 active torsions:
REMARK  status: ('A' for Active; 'I' for Inactive)
REMARK    1  A    between atoms: O_1  and  C_6
REMARK    2  A    between atoms: O_1  and  C_18
REMARK    3  A    between atoms: C_18  and  C_20
REMARK    4  A    between atoms: N_19  and  C_26
REMARK    5  A    between atoms: C_26  and  C_29
REMARK                            x       y       z     vdW  Elec       q    Type
REMARK                         _______ _______ _______ _____ _____    ______ ____
ROOT
ATOM      1  O   UNL     1      34.805 -22.414 -16.866  0.00  0.00    -0.479 OA
ENDROOT
BRANCH   1   6
ATOM      2  N   UNL     1      34.042 -23.564 -12.222  0.00  0.00    -0.332 NA
ATOM      3  N   UNL     1      36.316 -23.324 -12.982  0.00  0.00    -0.317 NA
ATOM      4  N   UNL     1      36.806 -22.773 -15.194  0.00  0.00    -0.335 N 
ATOM      5  N   UNL     1      35.846 -23.878 -10.755  0.00  0.00    -0.283 N 
ATOM      6  C   UNL     1      33.992 -22.693 -15.797  0.00  0.00    +0.130 C 
ATOM      7  C   UNL     1      34.474 -22.995 -14.511  0.00  0.00    +0.177 C 
ATOM      8  C   UNL     1      32.622 -22.667 -16.037  0.00  0.00    +0.033 C 
ATOM      9  C   UNL     1      33.591 -23.274 -13.455  0.00  0.00    +0.137 C 
ATOM     10  C   UNL     1      35.831 -23.037 -14.204  0.00  0.00    +0.181 C 
ATOM     11  C   UNL     1      31.738 -22.941 -15.000  0.00  0.00    +0.005 C 
ATOM     12  C   UNL     1      32.226 -23.241 -13.723  0.00  0.00    +0.030 C 
ATOM     13  C   UNL     1      35.380 -23.573 -12.052  0.00  0.00    +0.197 C 
ATOM     14  H   UNL     1      37.762 -22.805 -14.964  0.00  0.00    +0.144 HD
ATOM     15  H   UNL     1      36.527 -22.555 -16.113  0.00  0.00    +0.144 HD
ATOM     16  H   UNL     1      35.203 -24.069 -10.034  0.00  0.00    +0.156 HD
ATOM     17  H   UNL     1      36.813 -23.898 -10.570  0.00  0.00    +0.156 HD
ENDBRANCH   1   6
BRANCH   1  18
ATOM     18  C   UNL     1      34.172 -22.168 -18.109  0.00  0.00    +0.205 C 
BRANCH  18  20
ATOM     19  N   UNL     1      35.510 -19.118 -20.859  0.00  0.00    +0.390 N 
ATOM     20  C   UNL     1      34.637 -20.811 -18.631  0.00  0.00    +0.040 C 
ATOM     21  C   UNL     1      33.661 -20.259 -19.675  0.00  0.00    -0.019 C 
ATOM     22  C   UNL     1      36.042 -20.906 -19.234  0.00  0.00    -0.019 C 
ATOM     23  C   UNL     1      34.173 -18.948 -20.276  0.00  0.00    -0.077 C 
ATOM     24  C   UNL     1      36.475 -19.573 -19.849  0.00  0.00    -0.077 C 
ATOM     25  H   UNL     1      35.449 -19.835 -21.582  0.00  0.00    -0.079 HD
BRANCH  19  26
ATOM     26  C   UNL     1      35.963 -17.871 -21.474  0.00  0.00    -0.049 C 
BRANCH  26  29
ATOM     27 CL   UNL     1      35.436 -14.938 -22.110  0.00  0.00    -0.082 Cl
ATOM     28 CL   UNL     1      33.807 -14.411 -24.829  0.00  0.00    -0.081 Cl
ATOM     29  C   UNL     1      35.203 -17.558 -22.735  0.00  0.00    -0.032 C 
ATOM     30  C   UNL     1      34.910 -16.249 -23.117  0.00  0.00    +0.062 C 
ATOM     31  C   UNL     1      34.788 -18.626 -23.531  0.00  0.00    -0.005 C 
ATOM     32  C   UNL     1      34.203 -16.008 -24.295  0.00  0.00    +0.068 C 
ATOM     33  C   UNL     1      34.082 -18.385 -24.709  0.00  0.00    +0.001 C 
ATOM     34  C   UNL     1      33.789 -17.076 -25.091  0.00  0.00    +0.012 C 
ENDBRANCH  26  29
ENDBRANCH  19  26
ENDBRANCH  18  20
ENDBRANCH   1  18
TORSDOF 5
ENDMDL
MODEL 3
REMARK VINA RESULT:     -11.8      2.599      3.791
REMARK  Name = 24978486
REMARK  5 active torsions:
REMARK  status: ('A' for Active; 'I' for Inactive)
REMARK    1  A    between atoms: O_1  and  C_6
REMARK    2  A    between atoms: O_1  and  C_18
REMARK    3  A    between atoms: C_18  and  C_20
REMARK    4  A    between atoms: N_19  and  C_26
REMARK    5  A    between atoms: C_26  and  C_29
REMARK                            x       y       z     vdW  Elec       q    Type
REMARK                         _______ _______ _______ _____ _____    ______ ____
ROOT
ATOM      1  O   UNL     1      33.381 -21.990 -17.214  0.00  0.00    -0.479 OA
ENDROOT
BRANCH   1   6
ATOM      2  N   UNL     1      32.513 -23.883 -12.839  0.00  0.00    -0.332 NA
ATOM      3  N   UNL     1      30.632 -23.225 -14.195  0.00  0.00    -0.317 NA
ATOM      4  N   UNL     1      30.927 -22.304 -16.316  0.00  0.00    -0.335 N 
ATOM      5  N   UNL     1      30.314 -24.150 -12.066  0.00  0.00    -0.283 N 
ATOM      6  C   UNL     1      33.782 -22.531 -16.018  0.00  0.00    +0.130 C 
ATOM      7  C   UNL     1      32.889 -22.941 -15.012  0.00  0.00    +0.177 C 
ATOM      8  C   UNL     1      35.153 -22.661 -15.825  0.00  0.00    +0.033 C 
ATOM      9  C   UNL     1      33.359 -23.487 -13.807  0.00  0.00    +0.137 C 
ATOM     10  C   UNL     1      31.507 -22.839 -15.143  0.00  0.00    +0.181 C 
ATOM     11  C   UNL     1      35.631 -23.199 -14.635  0.00  0.00    +0.005 C 
ATOM     12  C   UNL     1      34.736 -23.606 -13.640  0.00  0.00    +0.030 C 
ATOM     13  C   UNL     1      31.196 -23.731 -13.085  0.00  0.00    +0.197 C 
ATOM     14  H   UNL     1      29.948 -22.237 -16.396  0.00  0.00    +0.144 HD
ATOM     15  H   UNL     1      31.503 -21.999 -17.054  0.00  0.00    +0.144 HD
ATOM     16  H   UNL     1      30.673 -24.529 -11.231  0.00  0.00    +0.156 HD
ATOM     17  H   UNL     1      29.341 -24.065 -12.189  0.00  0.00    +0.156 HD
ENDBRANCH   1   6
BRANCH   1  18
ATOM     18  C   UNL     1      34.260 -22.142 -18.314  0.00  0.00    +0.205 C 
BRANCH  18  20
ATOM     19  N   UNL     1      35.466 -18.955 -20.968  0.00  0.00    +0.390 N 
ATOM     20  C   UNL     1      34.685 -20.755 -18.791  0.00  0.00    +0.040 C 
ATOM     21  C   UNL     1      33.671 -20.179 -19.784  0.00  0.00    -0.019 C 
ATOM     22  C   UNL     1      36.075 -20.798 -19.436  0.00  0.00    -0.019 C 
ATOM     23  C   UNL     1      34.143 -18.834 -20.342  0.00  0.00    -0.077 C 
ATOM     24  C   UNL     1      36.466 -19.433 -20.005  0.00  0.00    -0.077 C 
ATOM     25  H   UNL     1      35.397 -19.641 -21.719  0.00  0.00    -0.079 HD
BRANCH  19  26
ATOM     26  C   UNL     1      35.879 -17.674 -21.541  0.00  0.00    -0.049 C 
BRANCH  26  29
ATOM     27 CL   UNL     1      35.376 -14.736 -22.173  0.00  0.00    -0.082 Cl
ATOM     28 CL   UNL     1      33.752 -14.191 -24.891  0.00  0.00    -0.081 Cl
ATOM     29  C   UNL     1      35.122 -17.353 -22.803  0.00  0.00    -0.032 C 
ATOM     30  C   UNL     1      34.840 -16.041 -23.182  0.00  0.00    +0.062 C 
ATOM     31  C   UNL     1      34.699 -18.416 -23.601  0.00  0.00    -0.005 C 
ATOM     32  C   UNL     1      34.135 -15.792 -24.361  0.00  0.00    +0.068 C 
ATOM     33  C   UNL     1      33.995 -18.167 -24.779  0.00  0.00    +0.001 C 
ATOM     34  C   UNL     1      33.713 -16.855 -25.158  0.00  0.00    +0.012 C 
ENDBRANCH  26  29
ENDBRANCH  19  26
ENDBRANCH  18  20
ENDBRANCH   1  18
TORSDOF 5
ENDMDL
MODEL 4
REMARK VINA RESULT:     -11.8      2.240      3.221
REMARK  Name = 24978486
REMARK  5 active torsions:
REMARK  status: ('A' for Active; 'I' for Inactive)
REMARK    1  A    between atoms: O_1  and  C_6
REMARK    2  A    between atoms: O_1  and  C_18
REMARK    3  A    between atoms: C_18  and  C_20
REMARK    4  A    between atoms: N_19  and  C_26
REMARK    5  A    between atoms: C_26  and  C_29
REMARK                            x       y       z     vdW  Elec       q    Type
REMARK                         _______ _______ _______ _____ _____    ______ ____
ROOT
ATOM      1  O   UNL     1      35.315 -21.477 -17.897  0.00  0.00    -0.479 OA
ENDROOT
BRANCH   1   6
ATOM      2  N   UNL     1      32.864 -23.239 -14.107  0.00  0.00    -0.332 NA
ATOM      3  N   UNL     1      31.638 -22.692 -16.108  0.00  0.00    -0.317 NA
ATOM      4  N   UNL     1      32.709 -21.837 -17.994  0.00  0.00    -0.335 N 
ATOM      5  N   UNL     1      30.541 -23.550 -14.223  0.00  0.00    -0.283 N 
ATOM      6  C   UNL     1      35.234 -21.961 -16.615  0.00  0.00    +0.130 C 
ATOM      7  C   UNL     1      34.030 -22.364 -16.011  0.00  0.00    +0.177 C 
ATOM      8  C   UNL     1      36.428 -22.040 -15.906  0.00  0.00    +0.033 C 
ATOM      9  C   UNL     1      34.010 -22.850 -14.694  0.00  0.00    +0.137 C 
ATOM     10  C   UNL     1      32.802 -22.311 -16.665  0.00  0.00    +0.181 C 
ATOM     11  C   UNL     1      36.421 -22.519 -14.601  0.00  0.00    +0.005 C 
ATOM     12  C   UNL     1      35.219 -22.919 -14.008  0.00  0.00    +0.030 C 
ATOM     13  C   UNL     1      31.740 -23.139 -14.845  0.00  0.00    +0.197 C 
ATOM     14  H   UNL     1      31.835 -21.805 -18.445  0.00  0.00    +0.144 HD
ATOM     15  H   UNL     1      33.519 -21.541 -18.468  0.00  0.00    +0.144 HD
ATOM     16  H   UNL     1      30.558 -23.886 -13.298  0.00  0.00    +0.156 HD
ATOM     17  H   UNL     1      29.689 -23.500 -14.714  0.00  0.00    +0.156 HD
ENDBRANCH   1   6
BRANCH   1  18
ATOM     18  C   UNL     1      36.548 -20.905 -18.292  0.00  0.00    +0.205 C 
BRANCH  18  20
ATOM     19  N   UNL     1      35.643 -17.852 -21.210  0.00  0.00    +0.390 N 
ATOM     20  C   UNL     1      36.358 -20.226 -19.646  0.00  0.00    +0.040 C 
ATOM     21  C   UNL     1      37.300 -19.027 -19.797  0.00  0.00    -0.019 C 
ATOM     22  C   UNL     1      34.907 -19.772 -19.834  0.00  0.00    -0.019 C 
ATOM     23  C   UNL     1      37.044 -18.281 -21.109  0.00  0.00    -0.077 C 
ATOM     24  C   UNL     1      34.731 -19.002 -21.144  0.00  0.00    -0.077 C 
ATOM     25  H   UNL     1      35.442 -17.244 -20.415  0.00  0.00    -0.079 HD
BRANCH  19  26
ATOM     26  C   UNL     1      35.427 -17.097 -22.444  0.00  0.00    -0.049 C 
BRANCH  26  29
ATOM     27 CL   UNL     1      34.741 -15.336 -24.833  0.00  0.00    -0.082 Cl
ATOM     28 CL   UNL     1      33.939 -12.311 -24.105  0.00  0.00    -0.081 Cl
ATOM     29  C   UNL     1      35.044 -15.668 -22.167  0.00  0.00    -0.032 C 
ATOM     30  C   UNL     1      34.712 -14.780 -23.191  0.00  0.00    +0.062 C 
ATOM     31  C   UNL     1      35.026 -15.239 -20.840  0.00  0.00    -0.005 C 
ATOM     32  C   UNL     1      34.362 -13.464 -22.886  0.00  0.00    +0.068 C 
ATOM     33  C   UNL     1      34.676 -13.924 -20.535  0.00  0.00    +0.001 C 
ATOM     34  C   UNL     1      34.344 -13.036 -21.559  0.00  0.00    +0.012 C 
ENDBRANCH  26  29
ENDBRANCH  19  26
ENDBRANCH  18  20
ENDBRANCH   1  18
TORSDOF 5
ENDMDL
MODEL 5
REMARK VINA RESULT:     -11.6      3.601      5.850
REMARK  Name = 24978486
REMARK  5 active torsions:
REMARK  status: ('A' for Active; 'I' for Inactive)
REMARK    1  A    between atoms: O_1  and  C_6
REMARK    2  A    between atoms: O_1  and  C_18
REMARK    3  A    between atoms: C_18  and  C_20
REMARK    4  A    between atoms: N_19  and  C_26
REMARK    5  A    between atoms: C_26  and  C_29
REMARK                            x       y       z     vdW  Elec       q    Type
REMARK                         _______ _______ _______ _____ _____    ______ ____
ROOT
ATOM      1  O   UNL     1      34.690 -18.712 -21.224  0.00  0.00    -0.479 OA
ENDROOT
BRANCH   1   6
ATOM      2  N   UNL     1      34.918 -21.836 -17.527  0.00  0.00    -0.332 NA
ATOM      3  N   UNL     1      32.761 -21.360 -18.491  0.00  0.00    -0.317 NA
ATOM      4  N   UNL     1      32.528 -19.874 -20.273  0.00  0.00    -0.335 N 
ATOM      5  N   UNL     1      32.973 -22.856 -16.701  0.00  0.00    -0.283 N 
ATOM      6  C   UNL     1      35.372 -19.422 -20.268  0.00  0.00    +0.130 C 
ATOM      7  C   UNL     1      34.751 -20.297 -19.359  0.00  0.00    +0.177 C 
ATOM      8  C   UNL     1      36.749 -19.238 -20.224  0.00  0.00    +0.033 C 
ATOM      9  C   UNL     1      35.502 -20.996 -18.400  0.00  0.00    +0.137 C 
ATOM     10  C   UNL     1      33.378 -20.527 -19.350  0.00  0.00    +0.181 C 
ATOM     11  C   UNL     1      37.504 -19.923 -19.278  0.00  0.00    +0.005 C 
ATOM     12  C   UNL     1      36.879 -20.793 -18.379  0.00  0.00    +0.030 C 
ATOM     13  C   UNL     1      33.579 -21.972 -17.620  0.00  0.00    +0.197 C 
ATOM     14  H   UNL     1      31.559 -20.045 -20.257  0.00  0.00    +0.144 HD
ATOM     15  H   UNL     1      32.906 -19.250 -20.934  0.00  0.00    +0.144 HD
ATOM     16  H   UNL     1      33.525 -23.333 -16.040  0.00  0.00    +0.156 HD
ATOM     17  H   UNL     1      31.999 -22.997 -16.722  0.00  0.00    +0.156 HD
ENDBRANCH   1   6
BRANCH   1  18
ATOM     18  C   UNL     1      35.295 -18.607 -22.500  0.00  0.00    +0.205 C 
BRANCH  18  20
ATOM     19  N   UNL     1      34.207 -14.451 -22.948  0.00  0.00    +0.390 N 
ATOM     20  C   UNL     1      35.395 -17.130 -22.871  0.00  0.00    +0.040 C 
ATOM     21  C   UNL     1      35.290 -16.242 -21.627  0.00  0.00    -0.019 C 
ATOM     22  C   UNL     1      34.308 -16.741 -23.879  0.00  0.00    -0.019 C 
ATOM     23  C   UNL     1      35.289 -14.758 -22.003  0.00  0.00    -0.077 C 
ATOM     24  C   UNL     1      34.340 -15.241 -24.179  0.00  0.00    -0.077 C 
ATOM     25  H   UNL     1      33.322 -14.702 -22.506  0.00  0.00    -0.079 HD
BRANCH  19  26
ATOM     26  C   UNL     1      34.187 -13.022 -23.256  0.00  0.00    -0.049 C 
BRANCH  26  29
ATOM     27 CL   UNL     1      33.773 -10.053 -23.798  0.00  0.00    -0.082 Cl
ATOM     28 CL   UNL     1      31.922  -8.527 -21.660  0.00  0.00    -0.081 Cl
ATOM     29  C   UNL     1      33.329 -12.251 -22.288  0.00  0.00    -0.032 C 
ATOM     30  C   UNL     1      33.078 -10.888 -22.447  0.00  0.00    +0.062 C 
ATOM     31  C   UNL     1      32.779 -12.940 -21.208  0.00  0.00    -0.005 C 
ATOM     32  C   UNL     1      32.276 -10.215 -21.525  0.00  0.00    +0.068 C 
ATOM     33  C   UNL     1      31.977 -12.268 -20.286  0.00  0.00    +0.001 C 
ATOM     34  C   UNL     1      31.726 -10.905 -20.445  0.00  0.00    +0.012 C 
ENDBRANCH  26  29
ENDBRANCH  19  26
ENDBRANCH  18  20
ENDBRANCH   1  18
TORSDOF 5
ENDMDL
MODEL 6
REMARK VINA RESULT:     -11.4      4.323     10.360
REMARK  Name = 24978486
REMARK  5 active torsions:
REMARK  status: ('A' for Active; 'I' for Inactive)
REMARK    1  A    between atoms: O_1  and  C_6
REMARK    2  A    between atoms: O_1  and  C_18
REMARK    3  A    between atoms: C_18  and  C_20
REMARK    4  A    between atoms: N_19  and  C_26
REMARK    5  A    between atoms: C_26  and  C_29
REMARK                            x       y       z     vdW  Elec       q    Type
REMARK                         _______ _______ _______ _____ _____    ______ ____
ROOT
ATOM      1  O   UNL     1      35.423 -17.396 -22.003  0.00  0.00    -0.479 OA
ENDROOT
BRANCH   1   6
ATOM      2  N   UNL     1      33.983 -13.083 -23.679  0.00  0.00    -0.332 NA
ATOM      3  N   UNL     1      34.175 -14.911 -25.238  0.00  0.00    -0.317 NA
ATOM      4  N   UNL     1      34.858 -17.031 -24.548  0.00  0.00    -0.335 N 
ATOM      5  N   UNL     1      33.487 -12.788 -25.952  0.00  0.00    -0.283 N 
ATOM      6  C   UNL     1      35.103 -16.071 -21.844  0.00  0.00    +0.130 C 
ATOM      7  C   UNL     1      34.691 -15.238 -22.900  0.00  0.00    +0.177 C 
ATOM      8  C   UNL     1      35.205 -15.559 -20.555  0.00  0.00    +0.033 C 
ATOM      9  C   UNL     1      34.379 -13.888 -22.676  0.00  0.00    +0.137 C 
ATOM     10  C   UNL     1      34.567 -15.688 -24.211  0.00  0.00    +0.181 C 
ATOM     11  C   UNL     1      34.899 -14.223 -20.320  0.00  0.00    +0.005 C 
ATOM     12  C   UNL     1      34.490 -13.402 -21.376  0.00  0.00    +0.030 C 
ATOM     13  C   UNL     1      33.903 -13.638 -24.905  0.00  0.00    +0.197 C 
ATOM     14  H   UNL     1      34.766 -17.336 -25.479  0.00  0.00    +0.144 HD
ATOM     15  H   UNL     1      35.150 -17.660 -23.850  0.00  0.00    +0.144 HD
ATOM     16  H   UNL     1      33.274 -11.845 -25.765  0.00  0.00    +0.156 HD
ATOM     17  H   UNL     1      33.409 -13.137 -26.870  0.00  0.00    +0.156 HD
ENDBRANCH   1   6
BRANCH   1  18
ATOM     18  C   UNL     1      36.190 -18.000 -20.978  0.00  0.00    +0.205 C 
BRANCH  18  20
ATOM     19  N   UNL     1      34.273 -21.008 -18.542  0.00  0.00    +0.390 N 
ATOM     20  C   UNL     1      35.524 -19.315 -20.582  0.00  0.00    +0.040 C 
ATOM     21  C   UNL     1      34.095 -19.081 -20.084  0.00  0.00    -0.019 C 
ATOM     22  C   UNL     1      36.336 -20.040 -19.504  0.00  0.00    -0.019 C 
ATOM     23  C   UNL     1      33.457 -20.382 -19.592  0.00  0.00    -0.077 C 
ATOM     24  C   UNL     1      35.625 -21.309 -19.031  0.00  0.00    -0.077 C 
ATOM     25  H   UNL     1      34.357 -20.344 -17.771  0.00  0.00    -0.079 HD
BRANCH  19  26
ATOM     26  C   UNL     1      33.625 -22.221 -18.047  0.00  0.00    -0.049 C 
BRANCH  26  29
ATOM     27 CL   UNL     1      31.189 -22.386 -16.225  0.00  0.00    -0.082 Cl
ATOM     28 CL   UNL     1      31.849 -22.828 -13.111  0.00  0.00    -0.081 Cl
ATOM     29  C   UNL     1      33.869 -22.427 -16.575  0.00  0.00    -0.032 C 
ATOM     30  C   UNL     1      32.822 -22.516 -15.657  0.00  0.00    +0.062 C 
ATOM     31  C   UNL     1      35.190 -22.529 -16.138  0.00  0.00    -0.005 C 
ATOM     32  C   UNL     1      33.097 -22.708 -14.303  0.00  0.00    +0.068 C 
ATOM     33  C   UNL     1      35.464 -22.721 -14.785  0.00  0.00    +0.001 C 
ATOM     34  C   UNL     1      34.417 -22.810 -13.867  0.00  0.00    +0.012 C 
ENDBRANCH  26  29
ENDBRANCH  19  26
ENDBRANCH  18  20
ENDBRANCH   1  18
TORSDOF 5
ENDMDL
MODEL 7
REMARK VINA RESULT:     -11.3      5.390     11.311
REMARK  Name = 24978486
REMARK  5 active torsions:
REMARK  status: ('A' for Active; 'I' for Inactive)
REMARK    1  A    between atoms: O_1  and  C_6
REMARK    2  A    between atoms: O_1  and  C_18
REMARK    3  A    between atoms: C_18  and  C_20
REMARK    4  A    between atoms: N_19  and  C_26
REMARK    5  A    between atoms: C_26  and  C_29
REMARK                            x       y       z     vdW  Elec       q    Type
REMARK                         _______ _______ _______ _____ _____    ______ ____
ROOT
ATOM      1  O   UNL     1      34.690 -12.850 -22.311  0.00  0.00    -0.479 OA
ENDROOT
BRANCH   1   6
ATOM      2  N   UNL     1      31.606  -9.140 -21.864  0.00  0.00    -0.332 NA
ATOM      3  N   UNL     1      33.310  -9.013 -23.564  0.00  0.00    -0.317 NA
ATOM      4  N   UNL     1      34.849 -10.737 -23.873  0.00  0.00    -0.335 N 
ATOM      5  N   UNL     1      31.773  -7.270 -23.271  0.00  0.00    -0.283 N 
ATOM      6  C   UNL     1      33.624 -12.215 -21.727  0.00  0.00    +0.130 C 
ATOM      7  C   UNL     1      33.157 -10.950 -22.127  0.00  0.00    +0.177 C 
ATOM      8  C   UNL     1      32.997 -12.888 -20.683  0.00  0.00    +0.033 C 
ATOM      9  C   UNL     1      32.061 -10.349 -21.489  0.00  0.00    +0.137 C 
ATOM     10  C   UNL     1      33.739 -10.225 -23.163  0.00  0.00    +0.181 C 
ATOM     11  C   UNL     1      31.911 -12.303 -20.043  0.00  0.00    +0.005 C 
ATOM     12  C   UNL     1      31.453 -11.045 -20.448  0.00  0.00    +0.030 C 
ATOM     13  C   UNL     1      32.255  -8.538 -22.882  0.00  0.00    +0.197 C 
ATOM     14  H   UNL     1      35.250 -10.215 -24.604  0.00  0.00    +0.144 HD
ATOM     15  H   UNL     1      35.219 -11.619 -23.637  0.00  0.00    +0.144 HD
ATOM     16  H   UNL     1      31.002  -6.873 -22.805  0.00  0.00    +0.156 HD
ATOM     17  H   UNL     1      32.206  -6.782 -24.009  0.00  0.00    +0.156 HD
ENDBRANCH   1   6
BRANCH   1  18
ATOM     18  C   UNL     1      34.409 -14.009 -23.075  0.00  0.00    +0.205 C 
BRANCH  18  20
ATOM     19  N   UNL     1      35.271 -17.819 -21.233  0.00  0.00    +0.390 N 
ATOM     20  C   UNL     1      35.206 -15.176 -22.499  0.00  0.00    +0.040 C 
ATOM     21  C   UNL     1      34.932 -16.467 -23.278  0.00  0.00    -0.019 C 
ATOM     22  C   UNL     1      34.881 -15.386 -21.017  0.00  0.00    -0.019 C 
ATOM     23  C   UNL     1      35.650 -17.661 -22.644  0.00  0.00    -0.077 C 
ATOM     24  C   UNL     1      35.600 -16.616 -20.459  0.00  0.00    -0.077 C 
ATOM     25  H   UNL     1      34.261 -17.955 -21.191  0.00  0.00    -0.079 HD
BRANCH  19  26
ATOM     26  C   UNL     1      35.925 -18.994 -20.657  0.00  0.00    -0.049 C 
BRANCH  26  29
ATOM     27 CL   UNL     1      37.127 -20.745 -18.473  0.00  0.00    -0.082 Cl
ATOM     28 CL   UNL     1      34.996 -22.431 -16.758  0.00  0.00    -0.081 Cl
ATOM     29  C   UNL     1      34.977 -19.809 -19.819  0.00  0.00    -0.032 C 
ATOM     30  C   UNL     1      35.425 -20.643 -18.794  0.00  0.00    +0.062 C 
ATOM     31  C   UNL     1      33.612 -19.713 -20.092  0.00  0.00    -0.005 C 
ATOM     32  C   UNL     1      34.509 -21.379 -18.042  0.00  0.00    +0.068 C 
ATOM     33  C   UNL     1      32.696 -20.449 -19.341  0.00  0.00    +0.001 C 
ATOM     34  C   UNL     1      33.145 -21.282 -18.316  0.00  0.00    +0.012 C 
ENDBRANCH  26  29
ENDBRANCH  19  26
ENDBRANCH  18  20
ENDBRANCH   1  18
TORSDOF 5
ENDMDL
MODEL 8
REMARK VINA RESULT:     -11.1      5.333     10.857
REMARK  Name = 24978486
REMARK  5 active torsions:
REMARK  status: ('A' for Active; 'I' for Inactive)
REMARK    1  A    between atoms: O_1  and  C_6
REMARK    2  A    between atoms: O_1  and  C_18
REMARK    3  A    between atoms: C_18  and  C_20
REMARK    4  A    between atoms: N_19  and  C_26
REMARK    5  A    between atoms: C_26  and  C_29
REMARK                            x       y       z     vdW  Elec       q    Type
REMARK                         _______ _______ _______ _____ _____    ______ ____
ROOT
ATOM      1  O   UNL     1      33.605 -13.732 -22.593  0.00  0.00    -0.479 OA
ENDROOT
BRANCH   1   6
ATOM      2  N   UNL     1      32.160  -9.475 -20.786  0.00  0.00    -0.332 NA
ATOM      3  N   UNL     1      31.716 -11.470 -19.509  0.00  0.00    -0.317 NA
ATOM      4  N   UNL     1      32.365 -13.574 -20.277  0.00  0.00    -0.335 N 
ATOM      5  N   UNL     1      31.056  -9.366 -18.719  0.00  0.00    -0.283 N 
ATOM      6  C   UNL     1      33.476 -12.367 -22.643  0.00  0.00    +0.130 C 
ATOM      7  C   UNL     1      32.855 -11.607 -21.636  0.00  0.00    +0.177 C 
ATOM      8  C   UNL     1      33.997 -11.736 -23.768  0.00  0.00    +0.033 C 
ATOM      9  C   UNL     1      32.751 -10.211 -21.744  0.00  0.00    +0.137 C 
ATOM     10  C   UNL     1      32.314 -12.176 -20.486  0.00  0.00    +0.181 C 
ATOM     11  C   UNL     1      33.900 -10.354 -23.887  0.00  0.00    +0.005 C 
ATOM     12  C   UNL     1      33.281  -9.605 -22.880  0.00  0.00    +0.030 C 
ATOM     13  C   UNL     1      31.674 -10.144 -19.721  0.00  0.00    +0.197 C 
ATOM     14  H   UNL     1      31.979 -13.964 -19.460  0.00  0.00    +0.144 HD
ATOM     15  H   UNL     1      32.787 -14.157 -20.949  0.00  0.00    +0.144 HD
ATOM     16  H   UNL     1      30.997  -8.388 -18.822  0.00  0.00    +0.156 HD
ATOM     17  H   UNL     1      30.684  -9.799 -17.917  0.00  0.00    +0.156 HD
ENDBRANCH   1   6
BRANCH   1  18
ATOM     18  C   UNL     1      34.462 -14.332 -23.547  0.00  0.00    +0.205 C 
BRANCH  18  20
ATOM     19  N   UNL     1      35.303 -17.919 -21.292  0.00  0.00    +0.390 N 
ATOM     20  C   UNL     1      35.252 -15.443 -22.861  0.00  0.00    +0.040 C 
ATOM     21  C   UNL     1      34.927 -16.809 -23.472  0.00  0.00    -0.019 C 
ATOM     22  C   UNL     1      34.971 -15.468 -21.355  0.00  0.00    -0.019 C 
ATOM     23  C   UNL     1      35.640 -17.938 -22.722  0.00  0.00    -0.077 C 
ATOM     24  C   UNL     1      35.681 -16.641 -20.676  0.00  0.00    -0.077 C 
ATOM     25  H   UNL     1      34.292 -18.023 -21.205  0.00  0.00    -0.079 HD
BRANCH  19  26
ATOM     26  C   UNL     1      35.950 -19.033 -20.600  0.00  0.00    -0.049 C 
BRANCH  26  29
ATOM     27 CL   UNL     1      37.077 -20.804 -18.392  0.00  0.00    -0.082 Cl
ATOM     28 CL   UNL     1      34.882 -22.443 -16.713  0.00  0.00    -0.081 Cl
ATOM     29  C   UNL     1      34.970 -19.827 -19.778  0.00  0.00    -0.032 C 
ATOM     30  C   UNL     1      35.384 -20.668 -18.744  0.00  0.00    +0.062 C 
ATOM     31  C   UNL     1      33.613 -19.704 -20.076  0.00  0.00    -0.005 C 
ATOM     32  C   UNL     1      34.439 -21.384 -18.008  0.00  0.00    +0.068 C 
ATOM     33  C   UNL     1      32.669 -20.420 -19.340  0.00  0.00    +0.001 C 
ATOM     34  C   UNL     1      33.083 -21.260 -18.306  0.00  0.00    +0.012 C 
ENDBRANCH  26  29
ENDBRANCH  19  26
ENDBRANCH  18  20
ENDBRANCH   1  18
TORSDOF 5
ENDMDL
MODEL 9
REMARK VINA RESULT:     -11.1      4.276     10.197
REMARK  Name = 24978486
REMARK  5 active torsions:
REMARK  status: ('A' for Active; 'I' for Inactive)
REMARK    1  A    between atoms: O_1  and  C_6
REMARK    2  A    between atoms: O_1  and  C_18
REMARK    3  A    between atoms: C_18  and  C_20
REMARK    4  A    between atoms: N_19  and  C_26
REMARK    5  A    between atoms: C_26  and  C_29
REMARK                            x       y       z     vdW  Elec       q    Type
REMARK                         _______ _______ _______ _____ _____    ______ ____
ROOT
ATOM      1  O   UNL     1      35.342 -17.031 -21.008  0.00  0.00    -0.479 OA
ENDROOT
BRANCH   1   6
ATOM      2  N   UNL     1      34.103 -13.299 -23.839  0.00  0.00    -0.332 NA
ATOM      3  N   UNL     1      34.448 -12.888 -21.490  0.00  0.00    -0.317 NA
ATOM      4  N   UNL     1      35.047 -14.604 -20.031  0.00  0.00    -0.335 N 
ATOM      5  N   UNL     1      33.847 -11.147 -22.940  0.00  0.00    -0.283 N 
ATOM      6  C   UNL     1      35.016 -16.475 -22.220  0.00  0.00    +0.130 C 
ATOM      7  C   UNL     1      34.718 -15.112 -22.395  0.00  0.00    +0.177 C 
ATOM      8  C   UNL     1      34.987 -17.338 -23.310  0.00  0.00    +0.033 C 
ATOM      9  C   UNL     1      34.389 -14.601 -23.661  0.00  0.00    +0.137 C 
ATOM     10  C   UNL     1      34.730 -14.196 -21.347  0.00  0.00    +0.181 C 
ATOM     11  C   UNL     1      34.662 -16.845 -24.568  0.00  0.00    +0.005 C 
ATOM     12  C   UNL     1      34.367 -15.487 -24.734  0.00  0.00    +0.030 C 
ATOM     13  C   UNL     1      34.148 -12.513 -22.745  0.00  0.00    +0.197 C 
ATOM     14  H   UNL     1      35.052 -13.947 -19.299  0.00  0.00    +0.144 HD
ATOM     15  H   UNL     1      35.265 -15.547 -19.848  0.00  0.00    +0.144 HD
ATOM     16  H   UNL     1      33.620 -10.817 -23.839  0.00  0.00    +0.156 HD
ATOM     17  H   UNL     1      33.865 -10.525 -22.177  0.00  0.00    +0.156 HD
ENDBRANCH   1   6
BRANCH   1  18
ATOM     18  C   UNL     1      36.292 -18.081 -21.017  0.00  0.00    +0.205 C 
BRANCH  18  20
ATOM     19  N   UNL     1      34.320 -21.019 -18.541  0.00  0.00    +0.390 N 
ATOM     20  C   UNL     1      35.592 -19.373 -20.606  0.00  0.00    +0.040 C 
ATOM     21  C   UNL     1      34.178 -19.093 -20.088  0.00  0.00    -0.019 C 
ATOM     22  C   UNL     1      36.397 -20.120 -19.538  0.00  0.00    -0.019 C 
ATOM     23  C   UNL     1      33.508 -20.373 -19.581  0.00  0.00    -0.077 C 
ATOM     24  C   UNL     1      35.654 -21.364 -19.049  0.00  0.00    -0.077 C 
ATOM     25  H   UNL     1      34.436 -20.357 -17.774  0.00  0.00    -0.079 HD
BRANCH  19  26
ATOM     26  C   UNL     1      33.642 -22.211 -18.031  0.00  0.00    -0.049 C 
BRANCH  26  29
ATOM     27 CL   UNL     1      31.210 -22.397 -16.205  0.00  0.00    -0.082 Cl
ATOM     28 CL   UNL     1      31.879 -22.825 -13.092  0.00  0.00    -0.081 Cl
ATOM     29  C   UNL     1      33.890 -22.411 -16.560  0.00  0.00    -0.032 C 
ATOM     30  C   UNL     1      32.846 -22.509 -15.640  0.00  0.00    +0.062 C 
ATOM     31  C   UNL     1      35.212 -22.499 -16.124  0.00  0.00    -0.005 C 
ATOM     32  C   UNL     1      33.124 -22.695 -14.285  0.00  0.00    +0.068 C 
ATOM     33  C   UNL     1      35.491 -22.685 -14.771  0.00  0.00    +0.001 C 
ATOM     34  C   UNL     1      34.446 -22.783 -13.851  0.00  0.00    +0.012 C 
ENDBRANCH  26  29
ENDBRANCH  19  26
ENDBRANCH  18  20
ENDBRANCH   1  18
TORSDOF 5
ENDMDL
