MODEL 1
REMARK VINA RESULT:     -13.3      0.000      0.000
REMARK  Name = 24821094
REMARK  5 active torsions:
REMARK  status: ('A' for Active; 'I' for Inactive)
REMARK    1  A    between atoms: N_1  and  C_12
REMARK    2  A    between atoms: C_7  and  C_20
REMARK    3  A    between atoms: C_17  and  C_18
REMARK    4  A    between atoms: C_25  and  O_26
REMARK    5  A    between atoms: O_26  and  C_27
REMARK                            x       y       z     vdW  Elec       q    Type
REMARK                         _______ _______ _______ _____ _____    ______ ____
ROOT
ATOM      1  N   UNL     1      33.682 -10.997 -22.655  0.00  0.00    -0.198 N 
ATOM      2  N   UNL     1      34.420 -12.109 -22.826  0.00  0.00    -0.181 NA
ATOM      3  N   UNL     1      31.921 -10.143 -21.232  0.00  0.00    -0.231 NA
ATOM      4  N   UNL     1      31.234 -11.784 -19.563  0.00  0.00    -0.234 NA
ATOM      5  C   UNL     1      32.784 -11.088 -21.634  0.00  0.00    +0.137 C 
ATOM      6  C   UNL     1      32.947 -12.352 -21.095  0.00  0.00    +0.150 C 
ATOM      7  C   UNL     1      33.967 -12.931 -21.872  0.00  0.00    +0.090 C 
ATOM      8  C   UNL     1      32.130 -12.691 -20.021  0.00  0.00    +0.112 C 
ATOM      9  C   UNL     1      31.185 -10.584 -20.188  0.00  0.00    +0.252 C 
ATOM     10  N   UNL     1      32.221 -13.952 -19.404  0.00  0.00    -0.346 N 
ATOM     11  H   UNL     1      31.633 -14.171 -18.645  0.00  0.00    +0.143 HD
ATOM     12  H   UNL     1      32.871 -14.615 -19.731  0.00  0.00    +0.143 HD
ENDROOT
BRANCH   1  15
ATOM     13  O   UNL     1      33.482  -5.343 -24.698  0.00  0.00    -0.270 OA
ATOM     14  N   UNL     1      34.123  -7.355 -23.723  0.00  0.00    -0.274 N 
ATOM     15  C   UNL     1      33.904  -9.806 -23.569  0.00  0.00    +0.117 C 
ATOM     16  C   UNL     1      35.194  -9.954 -24.400  0.00  0.00    +0.025 C 
ATOM     17  C   UNL     1      33.916  -8.476 -22.795  0.00  0.00    +0.115 C 
ATOM     18  C   UNL     1      35.417  -8.731 -25.293  0.00  0.00    +0.023 C 
ATOM     19  C   UNL     1      35.370  -7.435 -24.486  0.00  0.00    +0.094 C 
ATOM     20  C   UNL     1      33.271  -6.271 -23.916  0.00  0.00    +0.249 C 
BRANCH  20  21
ATOM     21  C   UNL     1      32.020  -6.231 -23.132  0.00  0.00    +0.058 C 
ATOM     22  C   UNL     1      31.914  -5.355 -22.132  0.00  0.00    +0.005 C 
ENDBRANCH  20  21
ENDBRANCH   1  15
BRANCH   7  23
ATOM     23  C   UNL     1      34.530 -14.251 -21.737  0.00  0.00    +0.016 C 
ATOM     24  C   UNL     1      34.862 -14.740 -20.473  0.00  0.00    +0.004 C 
ATOM     25  C   UNL     1      34.742 -15.039 -22.867  0.00  0.00    +0.004 C 
ATOM     26  C   UNL     1      35.407 -16.018 -20.342  0.00  0.00    +0.038 C 
ATOM     27  C   UNL     1      35.286 -16.317 -22.736  0.00  0.00    +0.038 C 
ATOM     28  C   UNL     1      35.618 -16.806 -21.473  0.00  0.00    +0.145 C 
BRANCH  28  29
ATOM     29  O   UNL     1      36.153 -18.051 -21.345  0.00  0.00    -0.453 OA
BRANCH  29  30
ATOM     30  C   UNL     1      35.470 -18.968 -20.563  0.00  0.00    +0.145 C 
ATOM     31  C   UNL     1      36.172 -19.794 -19.685  0.00  0.00    +0.037 C 
ATOM     32  C   UNL     1      34.081 -19.065 -20.652  0.00  0.00    +0.037 C 
ATOM     33  C   UNL     1      35.484 -20.719 -18.897  0.00  0.00    +0.003 C 
ATOM     34  C   UNL     1      33.394 -19.988 -19.865  0.00  0.00    +0.003 C 
ATOM     35  C   UNL     1      34.096 -20.815 -18.988  0.00  0.00    +0.000 C 
ENDBRANCH  29  30
ENDBRANCH  28  29
ENDBRANCH   7  23
TORSDOF 5
ENDMDL
MODEL 2
REMARK VINA RESULT:     -11.7      6.477     13.345
REMARK  Name = 24821094
REMARK  5 active torsions:
REMARK  status: ('A' for Active; 'I' for Inactive)
REMARK    1  A    between atoms: N_1  and  C_12
REMARK    2  A    between atoms: C_7  and  C_20
REMARK    3  A    between atoms: C_17  and  C_18
REMARK    4  A    between atoms: C_25  and  O_26
REMARK    5  A    between atoms: O_26  and  C_27
REMARK                            x       y       z     vdW  Elec       q    Type
REMARK                         _______ _______ _______ _____ _____    ______ ____
ROOT
ATOM      1  N   UNL     1      36.105 -22.368 -15.779  0.00  0.00    -0.198 N 
ATOM      2  N   UNL     1      36.583 -21.610 -16.783  0.00  0.00    -0.181 NA
ATOM      3  N   UNL     1      34.006 -23.265 -14.973  0.00  0.00    -0.231 NA
ATOM      4  N   UNL     1      32.139 -22.616 -16.403  0.00  0.00    -0.234 NA
ATOM      5  C   UNL     1      34.756 -22.559 -15.833  0.00  0.00    +0.137 C 
ATOM      6  C   UNL     1      34.319 -21.876 -16.954  0.00  0.00    +0.150 C 
ATOM      7  C   UNL     1      35.490 -21.314 -17.495  0.00  0.00    +0.090 C 
ATOM      8  C   UNL     1      32.956 -21.921 -17.229  0.00  0.00    +0.112 C 
ATOM      9  C   UNL     1      32.706 -23.236 -15.341  0.00  0.00    +0.252 C 
ATOM     10  N   UNL     1      32.415 -21.260 -18.348  0.00  0.00    -0.346 N 
ATOM     11  H   UNL     1      31.448 -21.305 -18.524  0.00  0.00    +0.143 HD
ATOM     12  H   UNL     1      33.004 -20.754 -18.953  0.00  0.00    +0.143 HD
ENDROOT
BRANCH   1  15
ATOM     13  O   UNL     1      38.033 -25.142 -10.802  0.00  0.00    -0.270 OA
ATOM     14  N   UNL     1      37.434 -24.611 -12.985  0.00  0.00    -0.274 N 
ATOM     15  C   UNL     1      37.060 -22.912 -14.733  0.00  0.00    +0.117 C 
ATOM     16  C   UNL     1      38.435 -23.258 -15.338  0.00  0.00    +0.025 C 
ATOM     17  C   UNL     1      36.478 -24.129 -13.994  0.00  0.00    +0.115 C 
ATOM     18  C   UNL     1      39.375 -23.832 -14.275  0.00  0.00    +0.023 C 
ATOM     19  C   UNL     1      38.733 -25.005 -13.536  0.00  0.00    +0.094 C 
ATOM     20  C   UNL     1      37.209 -24.724 -11.616  0.00  0.00    +0.249 C 
BRANCH  20  21
ATOM     21  C   UNL     1      35.889 -24.310 -11.100  0.00  0.00    +0.058 C 
ATOM     22  C   UNL     1      35.833 -23.577  -9.986  0.00  0.00    +0.005 C 
ENDBRANCH  20  21
ENDBRANCH   1  15
BRANCH   7  23
ATOM     23  C   UNL     1      35.605 -20.497 -18.678  0.00  0.00    +0.016 C 
ATOM     24  C   UNL     1      36.848 -19.989 -19.055  0.00  0.00    +0.004 C 
ATOM     25  C   UNL     1      34.475 -20.218 -19.445  0.00  0.00    +0.004 C 
ATOM     26  C   UNL     1      36.959 -19.199 -20.199  0.00  0.00    +0.038 C 
ATOM     27  C   UNL     1      34.586 -19.429 -20.591  0.00  0.00    +0.038 C 
ATOM     28  C   UNL     1      35.829 -18.919 -20.967  0.00  0.00    +0.145 C 
BRANCH  28  29
ATOM     29  O   UNL     1      35.937 -18.146 -22.082  0.00  0.00    -0.453 OA
BRANCH  29  30
ATOM     30  C   UNL     1      35.530 -16.826 -21.993  0.00  0.00    +0.145 C 
ATOM     31  C   UNL     1      35.271 -16.096 -23.153  0.00  0.00    +0.037 C 
ATOM     32  C   UNL     1      35.379 -16.225 -20.743  0.00  0.00    +0.037 C 
ATOM     33  C   UNL     1      34.861 -14.765 -23.063  0.00  0.00    +0.003 C 
ATOM     34  C   UNL     1      34.969 -14.895 -20.652  0.00  0.00    +0.003 C 
ATOM     35  C   UNL     1      34.711 -14.166 -21.813  0.00  0.00    +0.000 C 
ENDBRANCH  29  30
ENDBRANCH  28  29
ENDBRANCH   7  23
TORSDOF 5
ENDMDL
MODEL 3
REMARK VINA RESULT:     -11.5      2.294      4.502
REMARK  Name = 24821094
REMARK  5 active torsions:
REMARK  status: ('A' for Active; 'I' for Inactive)
REMARK    1  A    between atoms: N_1  and  C_12
REMARK    2  A    between atoms: C_7  and  C_20
REMARK    3  A    between atoms: C_17  and  C_18
REMARK    4  A    between atoms: C_25  and  O_26
REMARK    5  A    between atoms: O_26  and  C_27
REMARK                            x       y       z     vdW  Elec       q    Type
REMARK                         _______ _______ _______ _____ _____    ______ ____
ROOT
ATOM      1  N   UNL     1      34.242 -14.124 -21.964  0.00  0.00    -0.198 N 
ATOM      2  N   UNL     1      34.707 -15.012 -21.067  0.00  0.00    -0.181 NA
ATOM      3  N   UNL     1      33.742 -13.966 -24.327  0.00  0.00    -0.231 NA
ATOM      4  N   UNL     1      34.215 -16.057 -25.491  0.00  0.00    -0.234 NA
ATOM      5  C   UNL     1      34.166 -14.616 -23.233  0.00  0.00    +0.137 C 
ATOM      6  C   UNL     1      34.613 -15.924 -23.161  0.00  0.00    +0.150 C 
ATOM      7  C   UNL     1      34.931 -16.107 -21.803  0.00  0.00    +0.090 C 
ATOM      8  C   UNL     1      34.629 -16.651 -24.347  0.00  0.00    +0.112 C 
ATOM      9  C   UNL     1      33.803 -14.769 -25.412  0.00  0.00    +0.252 C 
ATOM     10  N   UNL     1      35.065 -17.989 -24.377  0.00  0.00    -0.346 N 
ATOM     11  H   UNL     1      35.068 -18.486 -25.227  0.00  0.00    +0.143 HD
ATOM     12  H   UNL     1      35.366 -18.428 -23.548  0.00  0.00    +0.143 HD
ENDROOT
BRANCH   1  15
ATOM     13  O   UNL     1      33.324  -8.182 -22.157  0.00  0.00    -0.270 OA
ATOM     14  N   UNL     1      33.069 -10.494 -22.182  0.00  0.00    -0.274 N 
ATOM     15  C   UNL     1      33.867 -12.727 -21.506  0.00  0.00    +0.117 C 
ATOM     16  C   UNL     1      32.791 -12.756 -20.402  0.00  0.00    +0.025 C 
ATOM     17  C   UNL     1      33.411 -11.837 -22.675  0.00  0.00    +0.115 C 
ATOM     18  C   UNL     1      32.404 -11.338 -19.974  0.00  0.00    +0.023 C 
ATOM     19  C   UNL     1      32.007 -10.481 -21.174  0.00  0.00    +0.094 C 
ATOM     20  C   UNL     1      33.643  -9.291 -22.587  0.00  0.00    +0.249 C 
BRANCH  20  21
ATOM     21  C   UNL     1      34.715  -9.348 -23.601  0.00  0.00    +0.058 C 
ATOM     22  C   UNL     1      35.662  -8.408 -23.591  0.00  0.00    +0.005 C 
ENDBRANCH  20  21
ENDBRANCH   1  15
BRANCH   7  23
ATOM     23  C   UNL     1      35.445 -17.299 -21.176  0.00  0.00    +0.016 C 
ATOM     24  C   UNL     1      36.822 -17.510 -21.104  0.00  0.00    +0.004 C 
ATOM     25  C   UNL     1      34.566 -18.240 -20.640  0.00  0.00    +0.004 C 
ATOM     26  C   UNL     1      37.319 -18.664 -20.497  0.00  0.00    +0.038 C 
ATOM     27  C   UNL     1      35.064 -19.394 -20.032  0.00  0.00    +0.038 C 
ATOM     28  C   UNL     1      36.440 -19.604 -19.961  0.00  0.00    +0.145 C 
BRANCH  28  29
ATOM     29  O   UNL     1      36.926 -20.731 -19.371  0.00  0.00    -0.453 OA
BRANCH  29  30
ATOM     30  C   UNL     1      36.286 -21.188 -18.231  0.00  0.00    +0.145 C 
ATOM     31  C   UNL     1      36.961 -21.199 -17.011  0.00  0.00    +0.037 C 
ATOM     32  C   UNL     1      34.968 -21.639 -18.303  0.00  0.00    +0.037 C 
ATOM     33  C   UNL     1      36.317 -21.660 -15.862  0.00  0.00    +0.003 C 
ATOM     34  C   UNL     1      34.324 -22.099 -17.155  0.00  0.00    +0.003 C 
ATOM     35  C   UNL     1      34.999 -22.110 -15.935  0.00  0.00    +0.000 C 
ENDBRANCH  29  30
ENDBRANCH  28  29
ENDBRANCH   7  23
TORSDOF 5
ENDMDL
MODEL 4
REMARK VINA RESULT:     -11.5      1.750      2.622
REMARK  Name = 24821094
REMARK  5 active torsions:
REMARK  status: ('A' for Active; 'I' for Inactive)
REMARK    1  A    between atoms: N_1  and  C_12
REMARK    2  A    between atoms: C_7  and  C_20
REMARK    3  A    between atoms: C_17  and  C_18
REMARK    4  A    between atoms: C_25  and  O_26
REMARK    5  A    between atoms: O_26  and  C_27
REMARK                            x       y       z     vdW  Elec       q    Type
REMARK                         _______ _______ _______ _____ _____    ______ ____
ROOT
ATOM      1  N   UNL     1      32.374  -9.673 -21.760  0.00  0.00    -0.198 N 
ATOM      2  N   UNL     1      33.038 -10.605 -22.469  0.00  0.00    -0.181 NA
ATOM      3  N   UNL     1      31.248  -9.418 -19.633  0.00  0.00    -0.231 NA
ATOM      4  N   UNL     1      31.313 -11.476 -18.325  0.00  0.00    -0.234 NA
ATOM      5  C   UNL     1      31.934 -10.118 -20.549  0.00  0.00    +0.137 C 
ATOM      6  C   UNL     1      32.341 -11.438 -20.457  0.00  0.00    +0.150 C 
ATOM      7  C   UNL     1      33.015 -11.678 -21.669  0.00  0.00    +0.090 C 
ATOM      8  C   UNL     1      32.006 -12.122 -19.293  0.00  0.00    +0.112 C 
ATOM      9  C   UNL     1      30.981 -10.183 -18.551  0.00  0.00    +0.252 C 
ATOM     10  N   UNL     1      32.376 -13.466 -19.105  0.00  0.00    -0.346 N 
ATOM     11  H   UNL     1      32.130 -13.932 -18.273  0.00  0.00    +0.143 HD
ATOM     12  H   UNL     1      32.882 -13.941 -19.803  0.00  0.00    +0.143 HD
ENDROOT
BRANCH   1  15
ATOM     13  O   UNL     1      31.911  -3.682 -22.026  0.00  0.00    -0.270 OA
ATOM     14  N   UNL     1      32.668  -5.880 -22.108  0.00  0.00    -0.274 N 
ATOM     15  C   UNL     1      32.184  -8.286 -22.344  0.00  0.00    +0.117 C 
ATOM     16  C   UNL     1      32.645  -8.215 -23.814  0.00  0.00    +0.025 C 
ATOM     17  C   UNL     1      32.890  -7.204 -21.509  0.00  0.00    +0.115 C 
ATOM     18  C   UNL     1      32.474  -6.802 -24.376  0.00  0.00    +0.023 C 
ATOM     19  C   UNL     1      33.149  -5.761 -23.486  0.00  0.00    +0.094 C 
ATOM     20  C   UNL     1      32.073  -4.781 -21.494  0.00  0.00    +0.249 C 
BRANCH  20  21
ATOM     21  C   UNL     1      31.595  -4.944 -20.106  0.00  0.00    +0.058 C 
ATOM     22  C   UNL     1      32.440  -4.706 -19.101  0.00  0.00    +0.005 C 
ENDBRANCH  20  21
ENDBRANCH   1  15
BRANCH   7  23
ATOM     23  C   UNL     1      33.642 -12.903 -22.095  0.00  0.00    +0.016 C 
ATOM     24  C   UNL     1      33.374 -13.419 -23.363  0.00  0.00    +0.004 C 
ATOM     25  C   UNL     1      34.519 -13.572 -21.241  0.00  0.00    +0.004 C 
ATOM     26  C   UNL     1      33.982 -14.605 -23.776  0.00  0.00    +0.038 C 
ATOM     27  C   UNL     1      35.127 -14.758 -21.655  0.00  0.00    +0.038 C 
ATOM     28  C   UNL     1      34.858 -15.274 -22.922  0.00  0.00    +0.145 C 
BRANCH  28  29
ATOM     29  O   UNL     1      35.449 -16.433 -23.324  0.00  0.00    -0.453 OA
BRANCH  29  30
ATOM     30  C   UNL     1      35.613 -17.432 -22.380  0.00  0.00    +0.145 C 
ATOM     31  C   UNL     1      34.576 -18.330 -22.127  0.00  0.00    +0.037 C 
ATOM     32  C   UNL     1      36.816 -17.543 -21.682  0.00  0.00    +0.037 C 
ATOM     33  C   UNL     1      34.741 -19.337 -21.176  0.00  0.00    +0.003 C 
ATOM     34  C   UNL     1      36.982 -18.549 -20.732  0.00  0.00    +0.003 C 
ATOM     35  C   UNL     1      35.944 -19.446 -20.478  0.00  0.00    +0.000 C 
ENDBRANCH  29  30
ENDBRANCH  28  29
ENDBRANCH   7  23
TORSDOF 5
ENDMDL
MODEL 5
REMARK VINA RESULT:     -11.1      6.913     13.613
REMARK  Name = 24821094
REMARK  5 active torsions:
REMARK  status: ('A' for Active; 'I' for Inactive)
REMARK    1  A    between atoms: N_1  and  C_12
REMARK    2  A    between atoms: C_7  and  C_20
REMARK    3  A    between atoms: C_17  and  C_18
REMARK    4  A    between atoms: C_25  and  O_26
REMARK    5  A    between atoms: O_26  and  C_27
REMARK                            x       y       z     vdW  Elec       q    Type
REMARK                         _______ _______ _______ _____ _____    ______ ____
ROOT
ATOM      1  N   UNL     1      34.853 -23.102 -15.116  0.00  0.00    -0.198 N 
ATOM      2  N   UNL     1      35.523 -22.470 -16.097  0.00  0.00    -0.181 NA
ATOM      3  N   UNL     1      32.580 -23.550 -14.416  0.00  0.00    -0.231 NA
ATOM      4  N   UNL     1      30.955 -22.561 -15.942  0.00  0.00    -0.234 NA
ATOM      5  C   UNL     1      33.498 -23.020 -15.238  0.00  0.00    +0.137 C 
ATOM      6  C   UNL     1      33.263 -22.280 -16.384  0.00  0.00    +0.150 C 
ATOM      7  C   UNL     1      34.549 -21.971 -16.866  0.00  0.00    +0.090 C 
ATOM      8  C   UNL     1      31.935 -22.055 -16.729  0.00  0.00    +0.112 C 
ATOM      9  C   UNL     1      31.332 -23.267 -14.850  0.00  0.00    +0.252 C 
ATOM     10  N   UNL     1      31.594 -21.315 -17.876  0.00  0.00    -0.346 N 
ATOM     11  H   UNL     1      30.647 -21.168 -18.102  0.00  0.00    +0.143 HD
ATOM     12  H   UNL     1      32.301 -20.946 -18.453  0.00  0.00    +0.143 HD
ENDROOT
BRANCH   1  15
ATOM     13  O   UNL     1      39.470 -25.630 -12.204  0.00  0.00    -0.270 OA
ATOM     14  N   UNL     1      37.830 -24.170 -12.972  0.00  0.00    -0.274 N 
ATOM     15  C   UNL     1      35.627 -23.811 -14.020  0.00  0.00    +0.117 C 
ATOM     16  C   UNL     1      35.030 -23.534 -12.626  0.00  0.00    +0.025 C 
ATOM     17  C   UNL     1      37.123 -23.452 -14.043  0.00  0.00    +0.115 C 
ATOM     18  C   UNL     1      35.841 -24.232 -11.531  0.00  0.00    +0.023 C 
ATOM     19  C   UNL     1      37.325 -23.883 -11.628  0.00  0.00    +0.094 C 
ATOM     20  C   UNL     1      38.896 -25.052 -13.128  0.00  0.00    +0.249 C 
BRANCH  20  21
ATOM     21  C   UNL     1      39.371 -25.320 -14.500  0.00  0.00    +0.058 C 
ATOM     22  C   UNL     1      40.600 -24.932 -14.844  0.00  0.00    +0.005 C 
ENDBRANCH  20  21
ENDBRANCH   1  15
BRANCH   7  23
ATOM     23  C   UNL     1      34.884 -21.211 -18.044  0.00  0.00    +0.016 C 
ATOM     24  C   UNL     1      36.214 -20.888 -18.310  0.00  0.00    +0.004 C 
ATOM     25  C   UNL     1      33.878 -20.801 -18.919  0.00  0.00    +0.004 C 
ATOM     26  C   UNL     1      36.538 -20.153 -19.450  0.00  0.00    +0.038 C 
ATOM     27  C   UNL     1      34.203 -20.066 -20.061  0.00  0.00    +0.038 C 
ATOM     28  C   UNL     1      35.533 -19.743 -20.325  0.00  0.00    +0.145 C 
BRANCH  28  29
ATOM     29  O   UNL     1      35.849 -19.023 -21.436  0.00  0.00    -0.453 OA
BRANCH  29  30
ATOM     30  C   UNL     1      35.578 -17.665 -21.423  0.00  0.00    +0.145 C 
ATOM     31  C   UNL     1      35.412 -16.999 -20.209  0.00  0.00    +0.037 C 
ATOM     32  C   UNL     1      35.468 -16.963 -22.624  0.00  0.00    +0.037 C 
ATOM     33  C   UNL     1      35.138 -15.631 -20.196  0.00  0.00    +0.003 C 
ATOM     34  C   UNL     1      35.195 -15.596 -22.611  0.00  0.00    +0.003 C 
ATOM     35  C   UNL     1      35.028 -14.931 -21.397  0.00  0.00    +0.000 C 
ENDBRANCH  29  30
ENDBRANCH  28  29
ENDBRANCH   7  23
TORSDOF 5
ENDMDL
MODEL 6
REMARK VINA RESULT:     -11.0      1.809      3.531
REMARK  Name = 24821094
REMARK  5 active torsions:
REMARK  status: ('A' for Active; 'I' for Inactive)
REMARK    1  A    between atoms: N_1  and  C_12
REMARK    2  A    between atoms: C_7  and  C_20
REMARK    3  A    between atoms: C_17  and  C_18
REMARK    4  A    between atoms: C_25  and  O_26
REMARK    5  A    between atoms: O_26  and  C_27
REMARK                            x       y       z     vdW  Elec       q    Type
REMARK                         _______ _______ _______ _____ _____    ______ ____
ROOT
ATOM      1  N   UNL     1      33.865 -12.438 -22.409  0.00  0.00    -0.198 N 
ATOM      2  N   UNL     1      34.292 -13.396 -21.566  0.00  0.00    -0.181 NA
ATOM      3  N   UNL     1      33.491 -12.084 -24.774  0.00  0.00    -0.231 NA
ATOM      4  N   UNL     1      34.050 -14.065 -26.082  0.00  0.00    -0.234 NA
ATOM      5  C   UNL     1      33.863 -12.822 -23.716  0.00  0.00    +0.137 C 
ATOM      6  C   UNL     1      34.320 -14.128 -23.731  0.00  0.00    +0.150 C 
ATOM      7  C   UNL     1      34.567 -14.423 -22.378  0.00  0.00    +0.090 C 
ATOM      8  C   UNL     1      34.409 -14.752 -24.971  0.00  0.00    +0.112 C 
ATOM      9  C   UNL     1      33.619 -12.792 -25.917  0.00  0.00    +0.252 C 
ATOM     10  N   UNL     1      34.861 -16.079 -25.090  0.00  0.00    -0.346 N 
ATOM     11  H   UNL     1      34.916 -16.502 -25.977  0.00  0.00    +0.143 HD
ATOM     12  H   UNL     1      35.122 -16.584 -24.286  0.00  0.00    +0.143 HD
ENDROOT
BRANCH   1  15
ATOM     13  O   UNL     1      33.432  -6.465 -21.848  0.00  0.00    -0.270 OA
ATOM     14  N   UNL     1      33.055  -8.704 -22.349  0.00  0.00    -0.274 N 
ATOM     15  C   UNL     1      33.449 -11.088 -21.855  0.00  0.00    +0.117 C 
ATOM     16  C   UNL     1      32.075 -11.151 -21.161  0.00  0.00    +0.025 C 
ATOM     17  C   UNL     1      33.453  -9.993 -22.936  0.00  0.00    +0.115 C 
ATOM     18  C   UNL     1      31.659  -9.775 -20.636  0.00  0.00    +0.023 C 
ATOM     19  C   UNL     1      31.727  -8.715 -21.733  0.00  0.00    +0.094 C 
ATOM     20  C   UNL     1      33.803  -7.530 -22.343  0.00  0.00    +0.249 C 
BRANCH  20  21
ATOM     21  C   UNL     1      35.140  -7.563 -22.969  0.00  0.00    +0.058 C 
ATOM     22  C   UNL     1      35.265  -7.183 -24.242  0.00  0.00    +0.005 C 
ENDBRANCH  20  21
ENDBRANCH   1  15
BRANCH   7  23
ATOM     23  C   UNL     1      35.060 -15.661 -21.827  0.00  0.00    +0.016 C 
ATOM     24  C   UNL     1      35.408 -16.711 -22.675  0.00  0.00    +0.004 C 
ATOM     25  C   UNL     1      35.191 -15.806 -20.446  0.00  0.00    +0.004 C 
ATOM     26  C   UNL     1      35.886 -17.909 -22.142  0.00  0.00    +0.038 C 
ATOM     27  C   UNL     1      35.670 -17.003 -19.912  0.00  0.00    +0.038 C 
ATOM     28  C   UNL     1      36.017 -18.054 -20.761  0.00  0.00    +0.145 C 
BRANCH  28  29
ATOM     29  O   UNL     1      36.480 -19.224 -20.241  0.00  0.00    -0.453 OA
BRANCH  29  30
ATOM     30  C   UNL     1      35.587 -20.014 -19.538  0.00  0.00    +0.145 C 
ATOM     31  C   UNL     1      36.046 -20.841 -18.512  0.00  0.00    +0.037 C 
ATOM     32  C   UNL     1      34.229 -19.985 -19.855  0.00  0.00    +0.037 C 
ATOM     33  C   UNL     1      35.146 -21.639 -17.804  0.00  0.00    +0.003 C 
ATOM     34  C   UNL     1      33.330 -20.781 -19.147  0.00  0.00    +0.003 C 
ATOM     35  C   UNL     1      33.789 -21.609 -18.122  0.00  0.00    +0.000 C 
ENDBRANCH  29  30
ENDBRANCH  28  29
ENDBRANCH   7  23
TORSDOF 5
ENDMDL
MODEL 7
REMARK VINA RESULT:     -10.7      7.170     12.928
REMARK  Name = 24821094
REMARK  5 active torsions:
REMARK  status: ('A' for Active; 'I' for Inactive)
REMARK    1  A    between atoms: N_1  and  C_12
REMARK    2  A    between atoms: C_7  and  C_20
REMARK    3  A    between atoms: C_17  and  C_18
REMARK    4  A    between atoms: C_25  and  O_26
REMARK    5  A    between atoms: O_26  and  C_27
REMARK                            x       y       z     vdW  Elec       q    Type
REMARK                         _______ _______ _______ _____ _____    ______ ____
ROOT
ATOM      1  N   UNL     1      33.576 -22.570 -15.452  0.00  0.00    -0.198 N 
ATOM      2  N   UNL     1      33.524 -21.914 -16.626  0.00  0.00    -0.181 NA
ATOM      3  N   UNL     1      35.202 -23.365 -13.845  0.00  0.00    -0.231 NA
ATOM      4  N   UNL     1      37.481 -22.830 -14.527  0.00  0.00    -0.234 NA
ATOM      5  C   UNL     1      34.842 -22.750 -14.982  0.00  0.00    +0.137 C 
ATOM      6  C   UNL     1      35.682 -22.169 -15.916  0.00  0.00    +0.150 C 
ATOM      7  C   UNL     1      34.810 -21.672 -16.903  0.00  0.00    +0.090 C 
ATOM      8  C   UNL     1      37.048 -22.223 -15.658  0.00  0.00    +0.112 C 
ATOM      9  C   UNL     1      36.545 -23.356 -13.702  0.00  0.00    +0.252 C 
ATOM     10  N   UNL     1      37.981 -21.659 -16.546  0.00  0.00    -0.346 N 
ATOM     11  H   UNL     1      38.944 -21.708 -16.344  0.00  0.00    +0.143 HD
ATOM     12  H   UNL     1      37.673 -21.215 -17.369  0.00  0.00    +0.143 HD
ENDROOT
BRANCH   1  15
ATOM     13  O   UNL     1      27.701 -23.599 -14.670  0.00  0.00    -0.270 OA
ATOM     14  N   UNL     1      29.970 -23.795 -15.142  0.00  0.00    -0.274 N 
ATOM     15  C   UNL     1      32.287 -23.027 -14.794  0.00  0.00    +0.117 C 
ATOM     16  C   UNL     1      32.519 -24.218 -13.844  0.00  0.00    +0.025 C 
ATOM     17  C   UNL     1      31.200 -23.370 -15.827  0.00  0.00    +0.115 C 
ATOM     18  C   UNL     1      31.204 -24.683 -13.213  0.00  0.00    +0.023 C 
ATOM     19  C   UNL     1      30.144 -24.963 -14.275  0.00  0.00    +0.094 C 
ATOM     20  C   UNL     1      28.713 -23.208 -15.254  0.00  0.00    +0.249 C 
BRANCH  20  21
ATOM     21  C   UNL     1      28.581 -22.028 -16.132  0.00  0.00    +0.058 C 
ATOM     22  C   UNL     1      27.364 -21.657 -16.535  0.00  0.00    +0.005 C 
ENDBRANCH  20  21
ENDBRANCH   1  15
BRANCH   7  23
ATOM     23  C   UNL     1      35.163 -20.969 -18.111  0.00  0.00    +0.016 C 
ATOM     24  C   UNL     1      34.163 -20.515 -18.970  0.00  0.00    +0.004 C 
ATOM     25  C   UNL     1      36.504 -20.741 -18.419  0.00  0.00    +0.004 C 
ATOM     26  C   UNL     1      34.505 -19.834 -20.138  0.00  0.00    +0.038 C 
ATOM     27  C   UNL     1      36.846 -20.059 -19.587  0.00  0.00    +0.038 C 
ATOM     28  C   UNL     1      35.845 -19.606 -20.447  0.00  0.00    +0.145 C 
BRANCH  28  29
ATOM     29  O   UNL     1      36.179 -18.945 -21.589  0.00  0.00    -0.453 OA
BRANCH  29  30
ATOM     30  C   UNL     1      35.766 -17.629 -21.715  0.00  0.00    +0.145 C 
ATOM     31  C   UNL     1      35.612 -16.835 -20.578  0.00  0.00    +0.037 C 
ATOM     32  C   UNL     1      35.502 -17.098 -22.977  0.00  0.00    +0.037 C 
ATOM     33  C   UNL     1      35.195 -15.509 -20.705  0.00  0.00    +0.003 C 
ATOM     34  C   UNL     1      35.085 -15.773 -23.104  0.00  0.00    +0.003 C 
ATOM     35  C   UNL     1      34.932 -14.979 -21.968  0.00  0.00    +0.000 C 
ENDBRANCH  29  30
ENDBRANCH  28  29
ENDBRANCH   7  23
TORSDOF 5
ENDMDL
MODEL 8
REMARK VINA RESULT:     -10.4      2.367      9.918
REMARK  Name = 24821094
REMARK  5 active torsions:
REMARK  status: ('A' for Active; 'I' for Inactive)
REMARK    1  A    between atoms: N_1  and  C_12
REMARK    2  A    between atoms: C_7  and  C_20
REMARK    3  A    between atoms: C_17  and  C_18
REMARK    4  A    between atoms: C_25  and  O_26
REMARK    5  A    between atoms: O_26  and  C_27
REMARK                            x       y       z     vdW  Elec       q    Type
REMARK                         _______ _______ _______ _____ _____    ______ ____
ROOT
ATOM      1  N   UNL     1      33.820 -12.665 -22.032  0.00  0.00    -0.198 N 
ATOM      2  N   UNL     1      34.598 -12.008 -22.912  0.00  0.00    -0.181 NA
ATOM      3  N   UNL     1      31.911 -12.275 -20.596  0.00  0.00    -0.231 NA
ATOM      4  N   UNL     1      31.108  -9.978 -20.767  0.00  0.00    -0.234 NA
ATOM      5  C   UNL     1      32.832 -11.895 -21.495  0.00  0.00    +0.137 C 
ATOM      6  C   UNL     1      32.972 -10.642 -22.066  0.00  0.00    +0.150 C 
ATOM      7  C   UNL     1      34.076 -10.776 -22.928  0.00  0.00    +0.090 C 
ATOM      8  C   UNL     1      32.065  -9.664 -21.672  0.00  0.00    +0.112 C 
ATOM      9  C   UNL     1      31.090 -11.246 -20.292  0.00  0.00    +0.252 C 
ATOM     10  N   UNL     1      32.125  -8.360 -22.197  0.00  0.00    -0.346 N 
ATOM     11  H   UNL     1      31.473  -7.682 -21.905  0.00  0.00    +0.143 HD
ATOM     12  H   UNL     1      32.817  -8.125 -22.856  0.00  0.00    +0.143 HD
ENDROOT
BRANCH   1  15
ATOM     13  O   UNL     1      35.085 -18.471 -22.967  0.00  0.00    -0.270 OA
ATOM     14  N   UNL     1      35.202 -16.198 -22.490  0.00  0.00    -0.274 N 
ATOM     15  C   UNL     1      34.100 -14.126 -21.732  0.00  0.00    +0.117 C 
ATOM     16  C   UNL     1      34.745 -14.313 -20.345  0.00  0.00    +0.025 C 
ATOM     17  C   UNL     1      34.968 -14.784 -22.819  0.00  0.00    +0.115 C 
ATOM     18  C   UNL     1      35.048 -15.789 -20.073  0.00  0.00    +0.023 C 
ATOM     19  C   UNL     1      35.868 -16.407 -21.203  0.00  0.00    +0.094 C 
ATOM     20  C   UNL     1      34.865 -17.298 -23.273  0.00  0.00    +0.249 C 
BRANCH  20  21
ATOM     21  C   UNL     1      34.188 -17.044 -24.561  0.00  0.00    +0.058 C 
ATOM     22  C   UNL     1      33.304 -17.936 -25.011  0.00  0.00    +0.005 C 
ENDBRANCH  20  21
ENDBRANCH   1  15
BRANCH   7  23
ATOM     23  C   UNL     1      34.655  -9.764 -23.775  0.00  0.00    +0.016 C 
ATOM     24  C   UNL     1      35.013  -8.528 -23.237  0.00  0.00    +0.004 C 
ATOM     25  C   UNL     1      34.859 -10.020 -25.130  0.00  0.00    +0.004 C 
ATOM     26  C   UNL     1      35.574  -7.548 -24.056  0.00  0.00    +0.038 C 
ATOM     27  C   UNL     1      35.421  -9.040 -25.949  0.00  0.00    +0.038 C 
ATOM     28  C   UNL     1      35.778  -7.804 -25.411  0.00  0.00    +0.145 C 
BRANCH  28  29
ATOM     29  O   UNL     1      36.323  -6.847 -26.211  0.00  0.00    -0.453 OA
BRANCH  29  30
ATOM     30  C   UNL     1      35.654  -5.640 -26.318  0.00  0.00    +0.145 C 
ATOM     31  C   UNL     1      34.373  -5.503 -25.783  0.00  0.00    +0.037 C 
ATOM     32  C   UNL     1      36.259  -4.560 -26.962  0.00  0.00    +0.037 C 
ATOM     33  C   UNL     1      33.697  -4.287 -25.892  0.00  0.00    +0.003 C 
ATOM     34  C   UNL     1      35.585  -3.344 -27.071  0.00  0.00    +0.003 C 
ATOM     35  C   UNL     1      34.304  -3.208 -26.536  0.00  0.00    +0.000 C 
ENDBRANCH  29  30
ENDBRANCH  28  29
ENDBRANCH   7  23
TORSDOF 5
ENDMDL
