MODEL 1
REMARK VINA RESULT:     -12.6      0.000      0.000
REMARK  Name = 25058128
REMARK  13 active torsions:
REMARK  status: ('A' for Active; 'I' for Inactive)
REMARK    1  A    between atoms: C_1  and  S_11
REMARK    2  A    between atoms: C_9  and  O_27
REMARK    3  A    between atoms: S_11  and  N_14
REMARK    4  A    between atoms: N_14  and  C_16
REMARK    5  A    between atoms: C_16  and  C_18
REMARK    6  A    between atoms: C_16  and  C_21
REMARK    7  A    between atoms: C_18  and  O_19
REMARK    8  A    between atoms: C_21  and  C_22
REMARK    9  A    between atoms: C_22  and  C_24
REMARK   10  A    between atoms: C_24  and  O_25
REMARK   11  A    between atoms: O_27  and  C_28
REMARK   12  A    between atoms: C_28  and  C_30
REMARK   13  A    between atoms: C_35  and  C_37
REMARK                            x       y       z     vdW  Elec       q    Type
REMARK                         _______ _______ _______ _____ _____    ______ ____
ROOT
ATOM      1  C   UNL     1      35.730 -22.613 -15.834  0.00  0.00    +0.122 C 
ATOM      2  C   UNL     1      34.649 -21.544 -17.732  0.00  0.00    +0.002 C 
ATOM      3  C   UNL     1      34.601 -22.408 -16.625  0.00  0.00    +0.020 C 
ATOM      4  C   UNL     1      35.861 -20.880 -18.039  0.00  0.00    +0.003 C 
ATOM      5  C   UNL     1      36.921 -21.961 -16.135  0.00  0.00    +0.020 C 
ATOM      6  C   UNL     1      36.988 -21.099 -17.231  0.00  0.00    +0.001 C 
ATOM      7  C   UNL     1      35.909 -20.016 -19.145  0.00  0.00    +0.037 C 
ATOM      8  C   UNL     1      33.522 -21.325 -18.541  0.00  0.00    +0.003 C 
ATOM      9  C   UNL     1      34.779 -19.810 -19.938  0.00  0.00    +0.139 C 
ATOM     10  C   UNL     1      33.588 -20.463 -19.637  0.00  0.00    +0.037 C 
ENDROOT
BRANCH   1  11
ATOM     11  S   UNL     1      35.648 -23.705 -14.445  0.00  0.00    +0.061 S 
ATOM     12  O   UNL     1      34.502 -23.324 -13.644  0.00  0.00    -0.153 OA
ATOM     13  O   UNL     1      35.762 -25.055 -14.962  0.00  0.00    -0.153 OA
BRANCH  11  14
ATOM     14  N   UNL     1      37.075 -23.314 -13.609  0.00  0.00    -0.170 NA
ATOM     15  H   UNL     1      36.814 -22.667 -12.865  0.00  0.00    +0.149 HD
BRANCH  14  16
ATOM     16  C   UNL     1      37.881 -24.384 -12.981  0.00  0.00    +0.174 C 
BRANCH  16  18
ATOM     17  O   UNL     1      40.255 -24.126 -13.443  0.00  0.00    -0.249 OA
ATOM     18  C   UNL     1      39.153 -24.542 -13.779  0.00  0.00    +0.330 C 
BRANCH  18  19
ATOM     19  O   UNL     1      38.952 -25.231 -14.933  0.00  0.00    -0.479 OA
ATOM     20  H   UNL     1      39.684 -25.511 -15.445  0.00  0.00    +0.295 HD
ENDBRANCH  18  19
ENDBRANCH  16  18
BRANCH  16  21
ATOM     21  C   UNL     1      38.094 -24.091 -11.491  0.00  0.00    +0.040 C 
BRANCH  21  22
ATOM     22  C   UNL     1      37.101 -23.126 -10.837  0.00  0.00    +0.111 C 
BRANCH  22  24
ATOM     23  O   UNL     1      35.708 -23.850  -9.001  0.00  0.00    -0.250 OA
ATOM     24  C   UNL     1      35.912 -23.808 -10.208  0.00  0.00    +0.314 C 
BRANCH  24  25
ATOM     25  O   UNL     1      35.095 -24.390 -11.120  0.00  0.00    -0.480 OA
ATOM     26  H   UNL     1      35.202 -24.200 -12.032  0.00  0.00    +0.295 HD
ENDBRANCH  24  25
ENDBRANCH  22  24
ENDBRANCH  21  22
ENDBRANCH  16  21
ENDBRANCH  14  16
ENDBRANCH  11  14
ENDBRANCH   1  11
BRANCH   9  27
ATOM     27  O   UNL     1      34.842 -18.969 -21.006  0.00  0.00    -0.471 OA
BRANCH  27  28
ATOM     28  C   UNL     1      35.958 -18.083 -21.071  0.00  0.00    +0.234 C 
BRANCH  28  30
ATOM     29  F   UNL     1      35.383 -15.825 -19.463  0.00  0.00    -0.204 F 
ATOM     30  C   UNL     1      35.509 -16.769 -21.638  0.00  0.00    +0.049 C 
ATOM     31  C   UNL     1      35.241 -15.695 -20.790  0.00  0.00    +0.140 C 
ATOM     32  C   UNL     1      35.359 -16.623 -23.017  0.00  0.00    +0.002 C 
ATOM     33  C   UNL     1      34.822 -14.475 -21.321  0.00  0.00    +0.040 C 
ATOM     34  C   UNL     1      34.941 -15.403 -23.548  0.00  0.00    +0.010 C 
ATOM     35  C   UNL     1      34.672 -14.328 -22.700  0.00  0.00    +0.071 C 
BRANCH  35  37
ATOM     36  N   UNL     1      33.899 -12.062 -23.686  0.00  0.00    -0.191 NA
ATOM     37  C   UNL     1      34.245 -13.078 -23.244  0.00  0.00    +0.100 C 
ENDBRANCH  35  37
ENDBRANCH  28  30
ENDBRANCH  27  28
ENDBRANCH   9  27
TORSDOF 13
ENDMDL
MODEL 2
REMARK VINA RESULT:     -12.0      1.478      2.117
REMARK  Name = 25058128
REMARK  13 active torsions:
REMARK  status: ('A' for Active; 'I' for Inactive)
REMARK    1  A    between atoms: C_1  and  S_11
REMARK    2  A    between atoms: C_9  and  O_27
REMARK    3  A    between atoms: S_11  and  N_14
REMARK    4  A    between atoms: N_14  and  C_16
REMARK    5  A    between atoms: C_16  and  C_18
REMARK    6  A    between atoms: C_16  and  C_21
REMARK    7  A    between atoms: C_18  and  O_19
REMARK    8  A    between atoms: C_21  and  C_22
REMARK    9  A    between atoms: C_22  and  C_24
REMARK   10  A    between atoms: C_24  and  O_25
REMARK   11  A    between atoms: O_27  and  C_28
REMARK   12  A    between atoms: C_28  and  C_30
REMARK   13  A    between atoms: C_35  and  C_37
REMARK                            x       y       z     vdW  Elec       q    Type
REMARK                         _______ _______ _______ _____ _____    ______ ____
ROOT
ATOM      1  C   UNL     1      34.723 -22.604 -16.182  0.00  0.00    +0.122 C 
ATOM      2  C   UNL     1      35.429 -21.172 -18.018  0.00  0.00    +0.002 C 
ATOM      3  C   UNL     1      35.732 -21.945 -16.885  0.00  0.00    +0.020 C 
ATOM      4  C   UNL     1      34.082 -21.067 -18.443  0.00  0.00    +0.003 C 
ATOM      5  C   UNL     1      33.400 -22.500 -16.600  0.00  0.00    +0.020 C 
ATOM      6  C   UNL     1      33.080 -21.737 -17.724  0.00  0.00    +0.001 C 
ATOM      7  C   UNL     1      33.779 -20.294 -19.576  0.00  0.00    +0.037 C 
ATOM      8  C   UNL     1      36.431 -20.501 -18.738  0.00  0.00    +0.003 C 
ATOM      9  C   UNL     1      34.788 -19.635 -20.279  0.00  0.00    +0.139 C 
ATOM     10  C   UNL     1      36.111 -19.738 -19.861  0.00  0.00    +0.037 C 
ENDROOT
BRANCH   1  11
ATOM     11  S   UNL     1      35.126 -23.572 -14.758  0.00  0.00    +0.061 S 
ATOM     12  O   UNL     1      34.008 -23.502 -13.839  0.00  0.00    -0.153 OA
ATOM     13  O   UNL     1      35.595 -24.857 -15.241  0.00  0.00    -0.153 OA
BRANCH  11  14
ATOM     14  N   UNL     1      36.443 -22.713 -14.114  0.00  0.00    -0.170 NA
ATOM     15  H   UNL     1      36.056 -22.004 -13.489  0.00  0.00    +0.149 HD
BRANCH  14  16
ATOM     16  C   UNL     1      37.490 -23.428 -13.351  0.00  0.00    +0.174 C 
BRANCH  16  18
ATOM     17  O   UNL     1      39.707 -24.205 -13.982  0.00  0.00    -0.249 OA
ATOM     18  C   UNL     1      38.725 -23.511 -14.215  0.00  0.00    +0.330 C 
BRANCH  18  19
ATOM     19  O   UNL     1      38.628 -22.731 -15.323  0.00  0.00    -0.479 OA
ATOM     20  H   UNL     1      39.304 -22.750 -15.971  0.00  0.00    +0.295 HD
ENDBRANCH  18  19
ENDBRANCH  16  18
BRANCH  16  21
ATOM     21  C   UNL     1      37.709 -22.762 -11.987  0.00  0.00    +0.040 C 
BRANCH  21  22
ATOM     22  C   UNL     1      37.433 -23.627 -10.754  0.00  0.00    +0.111 C 
BRANCH  22  24
ATOM     23  O   UNL     1      35.612 -24.047  -9.223  0.00  0.00    -0.250 OA
ATOM     24  C   UNL     1      35.998 -23.591 -10.293  0.00  0.00    +0.314 C 
BRANCH  24  25
ATOM     25  O   UNL     1      35.168 -23.015 -11.198  0.00  0.00    -0.480 OA
ATOM     26  H   UNL     1      35.260 -23.213 -12.109  0.00  0.00    +0.295 HD
ENDBRANCH  24  25
ENDBRANCH  22  24
ENDBRANCH  21  22
ENDBRANCH  16  21
ENDBRANCH  14  16
ENDBRANCH  11  14
ENDBRANCH   1  11
BRANCH   9  27
ATOM     27  O   UNL     1      34.478 -18.891 -21.376  0.00  0.00    -0.471 OA
BRANCH  27  28
ATOM     28  C   UNL     1      35.567 -18.384 -22.146  0.00  0.00    +0.234 C 
BRANCH  28  30
ATOM     29  F   UNL     1      34.248 -18.462 -24.650  0.00  0.00    -0.204 F 
ATOM     30  C   UNL     1      35.120 -17.151 -22.874  0.00  0.00    +0.049 C 
ATOM     31  C   UNL     1      34.476 -17.258 -24.106  0.00  0.00    +0.140 C 
ATOM     32  C   UNL     1      35.351 -15.893 -22.315  0.00  0.00    +0.002 C 
ATOM     33  C   UNL     1      34.063 -16.109 -24.780  0.00  0.00    +0.040 C 
ATOM     34  C   UNL     1      34.938 -14.744 -22.990  0.00  0.00    +0.010 C 
ATOM     35  C   UNL     1      34.294 -14.851 -24.222  0.00  0.00    +0.071 C 
BRANCH  35  37
ATOM     36  N   UNL     1      33.525 -12.719 -25.472  0.00  0.00    -0.191 NA
ATOM     37  C   UNL     1      33.869 -13.675 -24.912  0.00  0.00    +0.100 C 
ENDBRANCH  35  37
ENDBRANCH  28  30
ENDBRANCH  27  28
ENDBRANCH   9  27
TORSDOF 13
ENDMDL
MODEL 3
REMARK VINA RESULT:     -12.0      0.825      2.645
REMARK  Name = 25058128
REMARK  13 active torsions:
REMARK  status: ('A' for Active; 'I' for Inactive)
REMARK    1  A    between atoms: C_1  and  S_11
REMARK    2  A    between atoms: C_9  and  O_27
REMARK    3  A    between atoms: S_11  and  N_14
REMARK    4  A    between atoms: N_14  and  C_16
REMARK    5  A    between atoms: C_16  and  C_18
REMARK    6  A    between atoms: C_16  and  C_21
REMARK    7  A    between atoms: C_18  and  O_19
REMARK    8  A    between atoms: C_21  and  C_22
REMARK    9  A    between atoms: C_22  and  C_24
REMARK   10  A    between atoms: C_24  and  O_25
REMARK   11  A    between atoms: O_27  and  C_28
REMARK   12  A    between atoms: C_28  and  C_30
REMARK   13  A    between atoms: C_35  and  C_37
REMARK                            x       y       z     vdW  Elec       q    Type
REMARK                         _______ _______ _______ _____ _____    ______ ____
ROOT
ATOM      1  C   UNL     1      35.683 -22.636 -15.262  0.00  0.00    +0.122 C 
ATOM      2  C   UNL     1      34.848 -21.667 -17.331  0.00  0.00    +0.002 C 
ATOM      3  C   UNL     1      34.643 -22.426 -16.167  0.00  0.00    +0.020 C 
ATOM      4  C   UNL     1      36.127 -21.113 -17.579  0.00  0.00    +0.003 C 
ATOM      5  C   UNL     1      36.940 -22.091 -15.506  0.00  0.00    +0.020 C 
ATOM      6  C   UNL     1      37.162 -21.334 -16.657  0.00  0.00    +0.001 C 
ATOM      7  C   UNL     1      36.332 -20.354 -18.743  0.00  0.00    +0.037 C 
ATOM      8  C   UNL     1      33.813 -21.446 -18.254  0.00  0.00    +0.003 C 
ATOM      9  C   UNL     1      35.291 -20.144 -19.649  0.00  0.00    +0.139 C 
ATOM     10  C   UNL     1      34.035 -20.689 -19.405  0.00  0.00    +0.037 C 
ENDROOT
BRANCH   1  11
ATOM     11  S   UNL     1      35.404 -23.595 -13.803  0.00  0.00    +0.061 S 
ATOM     12  O   UNL     1      33.992 -23.522 -13.483  0.00  0.00    -0.153 OA
ATOM     13  O   UNL     1      36.040 -24.881 -14.015  0.00  0.00    -0.153 OA
BRANCH  11  14
ATOM     14  N   UNL     1      36.291 -22.728 -12.641  0.00  0.00    -0.170 NA
ATOM     15  H   UNL     1      35.617 -22.191 -12.095  0.00  0.00    +0.149 HD
BRANCH  14  16
ATOM     16  C   UNL     1      37.146 -23.450 -11.673  0.00  0.00    +0.174 C 
BRANCH  16  18
ATOM     17  O   UNL     1      35.293 -24.577 -10.573  0.00  0.00    -0.249 OA
ATOM     18  C   UNL     1      36.285 -23.861 -10.504  0.00  0.00    +0.330 C 
BRANCH  18  19
ATOM     19  O   UNL     1      36.744 -23.360  -9.328  0.00  0.00    -0.479 OA
ATOM     20  H   UNL     1      36.574 -23.815  -8.526  0.00  0.00    +0.295 HD
ENDBRANCH  18  19
ENDBRANCH  16  18
BRANCH  16  21
ATOM     21  C   UNL     1      37.879 -24.607 -12.364  0.00  0.00    +0.040 C 
BRANCH  21  22
ATOM     22  C   UNL     1      39.343 -24.358 -12.739  0.00  0.00    +0.111 C 
BRANCH  22  24
ATOM     23  O   UNL     1      40.974 -25.593 -14.023  0.00  0.00    -0.250 OA
ATOM     24  C   UNL     1      39.824 -25.190 -13.901  0.00  0.00    +0.314 C 
BRANCH  24  25
ATOM     25  O   UNL     1      38.851 -25.433 -14.814  0.00  0.00    -0.480 OA
ATOM     26  H   UNL     1      38.716 -24.835 -15.524  0.00  0.00    +0.295 HD
ENDBRANCH  24  25
ENDBRANCH  22  24
ENDBRANCH  21  22
ENDBRANCH  16  21
ENDBRANCH  14  16
ENDBRANCH  11  14
ENDBRANCH   1  11
BRANCH   9  27
ATOM     27  O   UNL     1      35.506 -19.405 -20.771  0.00  0.00    -0.471 OA
BRANCH  27  28
ATOM     28  C   UNL     1      36.276 -18.213 -20.627  0.00  0.00    +0.234 C 
BRANCH  28  30
ATOM     29  F   UNL     1      35.485 -15.680 -19.641  0.00  0.00    -0.204 F 
ATOM     30  C   UNL     1      35.691 -17.142 -21.500  0.00  0.00    +0.049 C 
ATOM     31  C   UNL     1      35.320 -15.915 -20.950  0.00  0.00    +0.140 C 
ATOM     32  C   UNL     1      35.518 -17.377 -22.864  0.00  0.00    +0.002 C 
ATOM     33  C   UNL     1      34.776 -14.922 -21.765  0.00  0.00    +0.040 C 
ATOM     34  C   UNL     1      34.973 -16.383 -23.679  0.00  0.00    +0.010 C 
ATOM     35  C   UNL     1      34.602 -15.156 -23.129  0.00  0.00    +0.071 C 
BRANCH  35  37
ATOM     36  N   UNL     1      33.595 -13.311 -24.641  0.00  0.00    -0.191 NA
ATOM     37  C   UNL     1      34.046 -14.138 -23.964  0.00  0.00    +0.100 C 
ENDBRANCH  35  37
ENDBRANCH  28  30
ENDBRANCH  27  28
ENDBRANCH   9  27
TORSDOF 13
ENDMDL
MODEL 4
REMARK VINA RESULT:     -11.6      1.653      3.221
REMARK  Name = 25058128
REMARK  13 active torsions:
REMARK  status: ('A' for Active; 'I' for Inactive)
REMARK    1  A    between atoms: C_1  and  S_11
REMARK    2  A    between atoms: C_9  and  O_27
REMARK    3  A    between atoms: S_11  and  N_14
REMARK    4  A    between atoms: N_14  and  C_16
REMARK    5  A    between atoms: C_16  and  C_18
REMARK    6  A    between atoms: C_16  and  C_21
REMARK    7  A    between atoms: C_18  and  O_19
REMARK    8  A    between atoms: C_21  and  C_22
REMARK    9  A    between atoms: C_22  and  C_24
REMARK   10  A    between atoms: C_24  and  O_25
REMARK   11  A    between atoms: O_27  and  C_28
REMARK   12  A    between atoms: C_28  and  C_30
REMARK   13  A    between atoms: C_35  and  C_37
REMARK                            x       y       z     vdW  Elec       q    Type
REMARK                         _______ _______ _______ _____ _____    ______ ____
ROOT
ATOM      1  C   UNL     1      33.453 -22.991 -14.965  0.00  0.00    +0.122 C 
ATOM      2  C   UNL     1      34.650 -21.902 -16.782  0.00  0.00    +0.002 C 
ATOM      3  C   UNL     1      34.649 -22.570 -15.546  0.00  0.00    +0.020 C 
ATOM      4  C   UNL     1      33.418 -21.659 -17.437  0.00  0.00    +0.003 C 
ATOM      5  C   UNL     1      32.243 -22.753 -15.610  0.00  0.00    +0.020 C 
ATOM      6  C   UNL     1      32.225 -22.091 -16.838  0.00  0.00    +0.001 C 
ATOM      7  C   UNL     1      33.418 -20.992 -18.673  0.00  0.00    +0.037 C 
ATOM      8  C   UNL     1      35.844 -21.470 -17.382  0.00  0.00    +0.003 C 
ATOM      9  C   UNL     1      34.615 -20.570 -19.254  0.00  0.00    +0.139 C 
ATOM     10  C   UNL     1      35.825 -20.808 -18.610  0.00  0.00    +0.037 C 
ENDROOT
BRANCH   1  11
ATOM     11  S   UNL     1      33.475 -23.831 -13.409  0.00  0.00    +0.061 S 
ATOM     12  O   UNL     1      33.170 -22.863 -12.375  0.00  0.00    -0.153 OA
ATOM     13  O   UNL     1      32.659 -25.020 -13.560  0.00  0.00    -0.153 OA
BRANCH  11  14
ATOM     14  N   UNL     1      35.105 -24.295 -13.286  0.00  0.00    -0.170 NA
ATOM     15  H   UNL     1      35.523 -24.152 -14.205  0.00  0.00    +0.149 HD
BRANCH  14  16
ATOM     16  C   UNL     1      35.991 -23.628 -12.306  0.00  0.00    +0.174 C 
BRANCH  16  18
ATOM     17  O   UNL     1      37.125 -25.512 -11.266  0.00  0.00    -0.249 OA
ATOM     18  C   UNL     1      36.294 -24.614 -11.203  0.00  0.00    +0.330 C 
BRANCH  18  19
ATOM     19  O   UNL     1      35.546 -24.386 -10.093  0.00  0.00    -0.479 OA
ATOM     20  H   UNL     1      34.635 -24.181 -10.175  0.00  0.00    +0.295 HD
ENDBRANCH  18  19
ENDBRANCH  16  18
BRANCH  16  21
ATOM     21  C   UNL     1      37.228 -23.053 -13.006  0.00  0.00    +0.040 C 
BRANCH  21  22
ATOM     22  C   UNL     1      37.750 -23.832 -14.216  0.00  0.00    +0.111 C 
BRANCH  22  24
ATOM     23  O   UNL     1      39.827 -24.212 -13.042  0.00  0.00    -0.250 OA
ATOM     24  C   UNL     1      39.107 -24.453 -14.004  0.00  0.00    +0.314 C 
BRANCH  24  25
ATOM     25  O   UNL     1      39.461 -25.301 -15.002  0.00  0.00    -0.480 OA
ATOM     26  H   UNL     1      38.821 -25.578 -15.629  0.00  0.00    +0.295 HD
ENDBRANCH  24  25
ENDBRANCH  22  24
ENDBRANCH  21  22
ENDBRANCH  16  21
ENDBRANCH  14  16
ENDBRANCH  11  14
ENDBRANCH   1  11
BRANCH   9  27
ATOM     27  O   UNL     1      34.599 -19.925 -20.453  0.00  0.00    -0.471 OA
BRANCH  27  28
ATOM     28  C   UNL     1      35.816 -19.316 -20.880  0.00  0.00    +0.234 C 
BRANCH  28  30
ATOM     29  F   UNL     1      35.296 -18.641 -23.579  0.00  0.00    -0.204 F 
ATOM     30  C   UNL     1      35.530 -17.915 -21.332  0.00  0.00    +0.049 C 
ATOM     31  C   UNL     1      35.283 -17.649 -22.678  0.00  0.00    +0.140 C 
ATOM     32  C   UNL     1      35.513 -16.875 -20.401  0.00  0.00    +0.002 C 
ATOM     33  C   UNL     1      35.018 -16.344 -23.094  0.00  0.00    +0.040 C 
ATOM     34  C   UNL     1      35.249 -15.570 -20.818  0.00  0.00    +0.010 C 
ATOM     35  C   UNL     1      35.002 -15.304 -22.165  0.00  0.00    +0.071 C 
BRANCH  35  37
ATOM     36  N   UNL     1      34.508 -12.883 -22.937  0.00  0.00    -0.191 NA
ATOM     37  C   UNL     1      34.729 -13.968 -22.592  0.00  0.00    +0.100 C 
ENDBRANCH  35  37
ENDBRANCH  28  30
ENDBRANCH  27  28
ENDBRANCH   9  27
TORSDOF 13
ENDMDL
MODEL 5
REMARK VINA RESULT:     -11.3      2.895      4.773
REMARK  Name = 25058128
REMARK  13 active torsions:
REMARK  status: ('A' for Active; 'I' for Inactive)
REMARK    1  A    between atoms: C_1  and  S_11
REMARK    2  A    between atoms: C_9  and  O_27
REMARK    3  A    between atoms: S_11  and  N_14
REMARK    4  A    between atoms: N_14  and  C_16
REMARK    5  A    between atoms: C_16  and  C_18
REMARK    6  A    between atoms: C_16  and  C_21
REMARK    7  A    between atoms: C_18  and  O_19
REMARK    8  A    between atoms: C_21  and  C_22
REMARK    9  A    between atoms: C_22  and  C_24
REMARK   10  A    between atoms: C_24  and  O_25
REMARK   11  A    between atoms: O_27  and  C_28
REMARK   12  A    between atoms: C_28  and  C_30
REMARK   13  A    between atoms: C_35  and  C_37
REMARK                            x       y       z     vdW  Elec       q    Type
REMARK                         _______ _______ _______ _____ _____    ______ ____
ROOT
ATOM      1  C   UNL     1      34.556 -21.915 -17.020  0.00  0.00    +0.122 C 
ATOM      2  C   UNL     1      35.565 -20.541 -18.755  0.00  0.00    +0.002 C 
ATOM      3  C   UNL     1      35.680 -21.323 -17.594  0.00  0.00    +0.020 C 
ATOM      4  C   UNL     1      34.290 -20.359 -19.342  0.00  0.00    +0.003 C 
ATOM      5  C   UNL     1      33.302 -21.736 -17.597  0.00  0.00    +0.020 C 
ATOM      6  C   UNL     1      33.169 -20.963 -18.751  0.00  0.00    +0.001 C 
ATOM      7  C   UNL     1      34.174 -19.577 -20.503  0.00  0.00    +0.037 C 
ATOM      8  C   UNL     1      36.686 -19.936 -19.346  0.00  0.00    +0.003 C 
ATOM      9  C   UNL     1      35.299 -18.984 -21.078  0.00  0.00    +0.139 C 
ATOM     10  C   UNL     1      36.552 -19.163 -20.500  0.00  0.00    +0.037 C 
ENDROOT
BRANCH   1  11
ATOM     11  S   UNL     1      34.723 -22.896 -15.558  0.00  0.00    +0.061 S 
ATOM     12  O   UNL     1      34.531 -24.284 -15.926  0.00  0.00    -0.153 OA
ATOM     13  O   UNL     1      35.949 -22.475 -14.906  0.00  0.00    -0.153 OA
BRANCH  11  14
ATOM     14  N   UNL     1      33.399 -22.369 -14.631  0.00  0.00    -0.170 NA
ATOM     15  H   UNL     1      33.089 -21.485 -15.035  0.00  0.00    +0.149 HD
BRANCH  14  16
ATOM     16  C   UNL     1      32.199 -23.224 -14.505  0.00  0.00    +0.174 C 
BRANCH  16  18
ATOM     17  O   UNL     1      31.201 -23.158 -12.288  0.00  0.00    -0.249 OA
ATOM     18  C   UNL     1      32.047 -23.606 -13.052  0.00  0.00    +0.330 C 
BRANCH  18  19
ATOM     19  O   UNL     1      32.958 -24.538 -12.669  0.00  0.00    -0.479 OA
ATOM     20  H   UNL     1      32.729 -25.446 -12.673  0.00  0.00    +0.295 HD
ENDBRANCH  18  19
ENDBRANCH  16  18
BRANCH  16  21
ATOM     21  C   UNL     1      30.976 -22.527 -15.112  0.00  0.00    +0.040 C 
BRANCH  21  22
ATOM     22  C   UNL     1      29.799 -23.427 -15.496  0.00  0.00    +0.111 C 
BRANCH  22  24
ATOM     23  O   UNL     1      28.673 -21.520 -16.464  0.00  0.00    -0.250 OA
ATOM     24  C   UNL     1      28.748 -22.736 -16.328  0.00  0.00    +0.314 C 
BRANCH  24  25
ATOM     25  O   UNL     1      27.876 -23.602 -16.901  0.00  0.00    -0.480 OA
ATOM     26  H   UNL     1      27.728 -24.442 -16.512  0.00  0.00    +0.295 HD
ENDBRANCH  24  25
ENDBRANCH  22  24
ENDBRANCH  21  22
ENDBRANCH  16  21
ENDBRANCH  14  16
ENDBRANCH  11  14
ENDBRANCH   1  11
BRANCH   9  27
ATOM     27  O   UNL     1      35.170 -18.231 -22.204  0.00  0.00    -0.471 OA
BRANCH  27  28
ATOM     28  C   UNL     1      36.078 -17.142 -22.364  0.00  0.00    +0.234 C 
BRANCH  28  30
ATOM     29  F   UNL     1      35.502 -16.013 -19.833  0.00  0.00    -0.204 F 
ATOM     30  C   UNL     1      35.332 -15.852 -22.196  0.00  0.00    +0.049 C 
ATOM     31  C   UNL     1      35.079 -15.350 -20.919  0.00  0.00    +0.140 C 
ATOM     32  C   UNL     1      34.889 -15.154 -23.319  0.00  0.00    +0.002 C 
ATOM     33  C   UNL     1      34.384 -14.150 -20.766  0.00  0.00    +0.040 C 
ATOM     34  C   UNL     1      34.193 -13.955 -23.166  0.00  0.00    +0.010 C 
ATOM     35  C   UNL     1      33.941 -13.453 -21.889  0.00  0.00    +0.071 C 
BRANCH  35  37
ATOM     36  N   UNL     1      32.653 -11.225 -21.604  0.00  0.00    -0.191 NA
ATOM     37  C   UNL     1      33.230 -12.223 -21.732  0.00  0.00    +0.100 C 
ENDBRANCH  35  37
ENDBRANCH  28  30
ENDBRANCH  27  28
ENDBRANCH   9  27
TORSDOF 13
ENDMDL
MODEL 6
REMARK VINA RESULT:     -11.1      3.584     11.187
REMARK  Name = 25058128
REMARK  13 active torsions:
REMARK  status: ('A' for Active; 'I' for Inactive)
REMARK    1  A    between atoms: C_1  and  S_11
REMARK    2  A    between atoms: C_9  and  O_27
REMARK    3  A    between atoms: S_11  and  N_14
REMARK    4  A    between atoms: N_14  and  C_16
REMARK    5  A    between atoms: C_16  and  C_18
REMARK    6  A    between atoms: C_16  and  C_21
REMARK    7  A    between atoms: C_18  and  O_19
REMARK    8  A    between atoms: C_21  and  C_22
REMARK    9  A    between atoms: C_22  and  C_24
REMARK   10  A    between atoms: C_24  and  O_25
REMARK   11  A    between atoms: O_27  and  C_28
REMARK   12  A    between atoms: C_28  and  C_30
REMARK   13  A    between atoms: C_35  and  C_37
REMARK                            x       y       z     vdW  Elec       q    Type
REMARK                         _______ _______ _______ _____ _____    ______ ____
ROOT
ATOM      1  C   UNL     1      35.559 -18.923 -20.831  0.00  0.00    +0.122 C 
ATOM      2  C   UNL     1      34.351 -20.348 -19.273  0.00  0.00    +0.002 C 
ATOM      3  C   UNL     1      34.359 -19.438 -20.344  0.00  0.00    +0.020 C 
ATOM      4  C   UNL     1      35.581 -20.740 -18.691  0.00  0.00    +0.003 C 
ATOM      5  C   UNL     1      36.767 -19.309 -20.259  0.00  0.00    +0.020 C 
ATOM      6  C   UNL     1      36.780 -20.212 -19.195  0.00  0.00    +0.001 C 
ATOM      7  C   UNL     1      35.574 -21.650 -17.621  0.00  0.00    +0.037 C 
ATOM      8  C   UNL     1      33.152 -20.876 -18.768  0.00  0.00    +0.003 C 
ATOM      9  C   UNL     1      34.373 -22.165 -17.132  0.00  0.00    +0.139 C 
ATOM     10  C   UNL     1      33.165 -21.779 -17.704  0.00  0.00    +0.037 C 
ENDROOT
BRANCH   1  11
ATOM     11  S   UNL     1      35.546 -17.779 -22.180  0.00  0.00    +0.061 S 
ATOM     12  O   UNL     1      36.742 -18.002 -22.967  0.00  0.00    -0.153 OA
ATOM     13  O   UNL     1      34.237 -17.870 -22.798  0.00  0.00    -0.153 OA
BRANCH  11  14
ATOM     14  N   UNL     1      35.670 -16.288 -21.373  0.00  0.00    -0.170 NA
ATOM     15  H   UNL     1      36.577 -15.892 -21.622  0.00  0.00    +0.149 HD
BRANCH  14  16
ATOM     16  C   UNL     1      34.663 -15.231 -21.615  0.00  0.00    +0.174 C 
BRANCH  16  18
ATOM     17  O   UNL     1      33.871 -13.386 -20.243  0.00  0.00    -0.249 OA
ATOM     18  C   UNL     1      34.540 -14.405 -20.357  0.00  0.00    +0.330 C 
BRANCH  18  19
ATOM     19  O   UNL     1      35.252 -14.932 -19.327  0.00  0.00    -0.479 OA
ATOM     20  H   UNL     1      35.862 -15.626 -19.484  0.00  0.00    +0.295 HD
ENDBRANCH  18  19
ENDBRANCH  16  18
BRANCH  16  21
ATOM     21  C   UNL     1      35.019 -14.429 -22.873  0.00  0.00    +0.040 C 
BRANCH  21  22
ATOM     22  C   UNL     1      33.907 -14.261 -23.911  0.00  0.00    +0.111 C 
BRANCH  22  24
ATOM     23  O   UNL     1      35.032 -15.692 -25.499  0.00  0.00    -0.250 OA
ATOM     24  C   UNL     1      33.983 -15.244 -25.052  0.00  0.00    +0.314 C 
BRANCH  24  25
ATOM     25  O   UNL     1      32.764 -15.569 -25.550  0.00  0.00    -0.480 OA
ATOM     26  H   UNL     1      32.680 -16.287 -26.148  0.00  0.00    +0.295 HD
ENDBRANCH  24  25
ENDBRANCH  22  24
ENDBRANCH  21  22
ENDBRANCH  16  21
ENDBRANCH  14  16
ENDBRANCH  11  14
ENDBRANCH   1  11
BRANCH   9  27
ATOM     27  O   UNL     1      34.383 -23.047 -16.095  0.00  0.00    -0.471 OA
BRANCH  27  28
ATOM     28  C   UNL     1      34.998 -22.617 -14.882  0.00  0.00    +0.234 C 
BRANCH  28  30
ATOM     29  F   UNL     1      37.507 -21.319 -15.068  0.00  0.00    -0.204 F 
ATOM     30  C   UNL     1      36.304 -23.335 -14.713  0.00  0.00    +0.049 C 
ATOM     31  C   UNL     1      37.506 -22.636 -14.817  0.00  0.00    +0.140 C 
ATOM     32  C   UNL     1      36.313 -24.705 -14.450  0.00  0.00    +0.002 C 
ATOM     33  C   UNL     1      38.719 -23.308 -14.660  0.00  0.00    +0.040 C 
ATOM     34  C   UNL     1      37.527 -25.376 -14.294  0.00  0.00    +0.010 C 
ATOM     35  C   UNL     1      38.729 -24.678 -14.398  0.00  0.00    +0.071 C 
BRANCH  35  37
ATOM     36  N   UNL     1      40.980 -25.923 -14.102  0.00  0.00    -0.191 NA
ATOM     37  C   UNL     1      39.971 -25.365 -14.235  0.00  0.00    +0.100 C 
ENDBRANCH  35  37
ENDBRANCH  28  30
ENDBRANCH  27  28
ENDBRANCH   9  27
TORSDOF 13
ENDMDL
MODEL 7
REMARK VINA RESULT:     -11.0      1.834      3.078
REMARK  Name = 25058128
REMARK  13 active torsions:
REMARK  status: ('A' for Active; 'I' for Inactive)
REMARK    1  A    between atoms: C_1  and  S_11
REMARK    2  A    between atoms: C_9  and  O_27
REMARK    3  A    between atoms: S_11  and  N_14
REMARK    4  A    between atoms: N_14  and  C_16
REMARK    5  A    between atoms: C_16  and  C_18
REMARK    6  A    between atoms: C_16  and  C_21
REMARK    7  A    between atoms: C_18  and  O_19
REMARK    8  A    between atoms: C_21  and  C_22
REMARK    9  A    between atoms: C_22  and  C_24
REMARK   10  A    between atoms: C_24  and  O_25
REMARK   11  A    between atoms: O_27  and  C_28
REMARK   12  A    between atoms: C_28  and  C_30
REMARK   13  A    between atoms: C_35  and  C_37
REMARK                            x       y       z     vdW  Elec       q    Type
REMARK                         _______ _______ _______ _____ _____    ______ ____
ROOT
ATOM      1  C   UNL     1      36.336 -22.055 -16.160  0.00  0.00    +0.122 C 
ATOM      2  C   UNL     1      34.859 -21.285 -17.932  0.00  0.00    +0.002 C 
ATOM      3  C   UNL     1      35.078 -22.027 -16.760  0.00  0.00    +0.020 C 
ATOM      4  C   UNL     1      35.933 -20.561 -18.503  0.00  0.00    +0.003 C 
ATOM      5  C   UNL     1      37.392 -21.343 -16.721  0.00  0.00    +0.020 C 
ATOM      6  C   UNL     1      37.193 -20.600 -17.885  0.00  0.00    +0.001 C 
ATOM      7  C   UNL     1      35.714 -19.818 -19.675  0.00  0.00    +0.037 C 
ATOM      8  C   UNL     1      33.598 -21.245 -18.550  0.00  0.00    +0.003 C 
ATOM      9  C   UNL     1      34.455 -19.790 -20.275  0.00  0.00    +0.139 C 
ATOM     10  C   UNL     1      33.399 -20.502 -19.714  0.00  0.00    +0.037 C 
ENDROOT
BRANCH   1  11
ATOM     11  S   UNL     1      36.591 -22.996 -14.685  0.00  0.00    +0.061 S 
ATOM     12  O   UNL     1      36.500 -24.401 -15.029  0.00  0.00    -0.153 OA
ATOM     13  O   UNL     1      37.787 -22.474 -14.053  0.00  0.00    -0.153 OA
BRANCH  11  14
ATOM     14  N   UNL     1      35.240 -22.555 -13.753  0.00  0.00    -0.170 NA
ATOM     15  H   UNL     1      34.516 -22.254 -14.406  0.00  0.00    +0.149 HD
BRANCH  14  16
ATOM     16  C   UNL     1      34.614 -23.542 -12.845  0.00  0.00    +0.174 C 
BRANCH  16  18
ATOM     17  O   UNL     1      35.291 -24.377 -10.664  0.00  0.00    -0.249 OA
ATOM     18  C   UNL     1      35.372 -23.525 -11.540  0.00  0.00    +0.330 C 
BRANCH  18  19
ATOM     19  O   UNL     1      36.194 -22.448 -11.439  0.00  0.00    -0.479 OA
ATOM     20  H   UNL     1      36.437 -21.970 -12.207  0.00  0.00    +0.295 HD
ENDBRANCH  18  19
ENDBRANCH  16  18
BRANCH  16  21
ATOM     21  C   UNL     1      33.110 -23.270 -12.713  0.00  0.00    +0.040 C 
BRANCH  21  22
ATOM     22  C   UNL     1      32.200 -23.969 -13.727  0.00  0.00    +0.111 C 
BRANCH  22  24
ATOM     23  O   UNL     1      31.818 -22.869 -15.844  0.00  0.00    -0.250 OA
ATOM     24  C   UNL     1      31.500 -23.024 -14.671  0.00  0.00    +0.314 C 
BRANCH  24  25
ATOM     25  O   UNL     1      30.485 -22.345 -14.081  0.00  0.00    -0.480 OA
ATOM     26  H   UNL     1      30.088 -21.620 -14.522  0.00  0.00    +0.295 HD
ENDBRANCH  24  25
ENDBRANCH  22  24
ENDBRANCH  21  22
ENDBRANCH  16  21
ENDBRANCH  14  16
ENDBRANCH  11  14
ENDBRANCH   1  11
BRANCH   9  27
ATOM     27  O   UNL     1      34.259 -19.064 -21.410  0.00  0.00    -0.471 OA
BRANCH  27  28
ATOM     28  C   UNL     1      35.413 -18.494 -22.025  0.00  0.00    +0.234 C 
BRANCH  28  30
ATOM     29  F   UNL     1      35.527 -16.551 -19.970  0.00  0.00    -0.204 F 
ATOM     30  C   UNL     1      35.169 -17.034 -22.266  0.00  0.00    +0.049 C 
ATOM     31  C   UNL     1      35.240 -16.127 -21.209  0.00  0.00    +0.140 C 
ATOM     32  C   UNL     1      34.872 -16.584 -23.552  0.00  0.00    +0.002 C 
ATOM     33  C   UNL     1      35.012 -14.770 -21.438  0.00  0.00    +0.040 C 
ATOM     34  C   UNL     1      34.643 -15.226 -23.781  0.00  0.00    +0.010 C 
ATOM     35  C   UNL     1      34.713 -14.319 -22.723  0.00  0.00    +0.071 C 
BRANCH  35  37
ATOM     36  N   UNL     1      34.294 -11.800 -23.146  0.00  0.00    -0.191 NA
ATOM     37  C   UNL     1      34.482 -12.929 -22.957  0.00  0.00    +0.100 C 
ENDBRANCH  35  37
ENDBRANCH  28  30
ENDBRANCH  27  28
ENDBRANCH   9  27
TORSDOF 13
ENDMDL
MODEL 8
REMARK VINA RESULT:     -10.9      2.946      4.691
REMARK  Name = 25058128
REMARK  13 active torsions:
REMARK  status: ('A' for Active; 'I' for Inactive)
REMARK    1  A    between atoms: C_1  and  S_11
REMARK    2  A    between atoms: C_9  and  O_27
REMARK    3  A    between atoms: S_11  and  N_14
REMARK    4  A    between atoms: N_14  and  C_16
REMARK    5  A    between atoms: C_16  and  C_18
REMARK    6  A    between atoms: C_16  and  C_21
REMARK    7  A    between atoms: C_18  and  O_19
REMARK    8  A    between atoms: C_21  and  C_22
REMARK    9  A    between atoms: C_22  and  C_24
REMARK   10  A    between atoms: C_24  and  O_25
REMARK   11  A    between atoms: O_27  and  C_28
REMARK   12  A    between atoms: C_28  and  C_30
REMARK   13  A    between atoms: C_35  and  C_37
REMARK                            x       y       z     vdW  Elec       q    Type
REMARK                         _______ _______ _______ _____ _____    ______ ____
ROOT
ATOM      1  C   UNL     1      35.601 -21.993 -16.287  0.00  0.00    +0.122 C 
ATOM      2  C   UNL     1      34.906 -20.912 -18.352  0.00  0.00    +0.002 C 
ATOM      3  C   UNL     1      34.609 -21.684 -17.218  0.00  0.00    +0.020 C 
ATOM      4  C   UNL     1      36.230 -20.446 -18.544  0.00  0.00    +0.003 C 
ATOM      5  C   UNL     1      36.901 -21.535 -16.475  0.00  0.00    +0.020 C 
ATOM      6  C   UNL     1      37.215 -20.766 -17.597  0.00  0.00    +0.001 C 
ATOM      7  C   UNL     1      36.528 -19.674 -19.679  0.00  0.00    +0.037 C 
ATOM      8  C   UNL     1      33.921 -20.592 -19.301  0.00  0.00    +0.003 C 
ATOM      9  C   UNL     1      35.536 -19.365 -20.611  0.00  0.00    +0.139 C 
ATOM     10  C   UNL     1      34.235 -19.823 -20.422  0.00  0.00    +0.037 C 
ENDROOT
BRANCH   1  11
ATOM     11  S   UNL     1      35.205 -22.967 -14.865  0.00  0.00    +0.061 S 
ATOM     12  O   UNL     1      35.074 -24.346 -15.290  0.00  0.00    -0.153 OA
ATOM     13  O   UNL     1      36.155 -22.608 -13.830  0.00  0.00    -0.153 OA
BRANCH  11  14
ATOM     14  N   UNL     1      33.675 -22.359 -14.441  0.00  0.00    -0.170 NA
ATOM     15  H   UNL     1      33.526 -21.519 -15.000  0.00  0.00    +0.149 HD
BRANCH  14  16
ATOM     16  C   UNL     1      32.472 -23.203 -14.610  0.00  0.00    +0.174 C 
BRANCH  16  18
ATOM     17  O   UNL     1      31.709 -22.904 -12.321  0.00  0.00    -0.249 OA
ATOM     18  C   UNL     1      32.017 -23.650 -13.242  0.00  0.00    +0.330 C 
BRANCH  18  19
ATOM     19  O   UNL     1      31.962 -25.003 -13.136  0.00  0.00    -0.479 OA
ATOM     20  H   UNL     1      32.750 -25.508 -13.172  0.00  0.00    +0.295 HD
ENDBRANCH  18  19
ENDBRANCH  16  18
BRANCH  16  21
ATOM     21  C   UNL     1      31.407 -22.461 -15.427  0.00  0.00    +0.040 C 
BRANCH  21  22
ATOM     22  C   UNL     1      30.007 -23.082 -15.445  0.00  0.00    +0.111 C 
BRANCH  22  24
ATOM     23  O   UNL     1      28.429 -21.915 -16.853  0.00  0.00    -0.250 OA
ATOM     24  C   UNL     1      28.906 -22.095 -15.739  0.00  0.00    +0.314 C 
BRANCH  24  25
ATOM     25  O   UNL     1      28.505 -21.409 -14.640  0.00  0.00    -0.480 OA
ATOM     26  H   UNL     1      29.083 -21.323 -13.906  0.00  0.00    +0.295 HD
ENDBRANCH  24  25
ENDBRANCH  22  24
ENDBRANCH  21  22
ENDBRANCH  16  21
ENDBRANCH  14  16
ENDBRANCH  11  14
ENDBRANCH   1  11
BRANCH   9  27
ATOM     27  O   UNL     1      35.840 -18.614 -21.704  0.00  0.00    -0.471 OA
BRANCH  27  28
ATOM     28  C   UNL     1      35.004 -18.767 -22.851  0.00  0.00    +0.234 C 
BRANCH  28  30
ATOM     29  F   UNL     1      33.394 -18.386 -25.147  0.00  0.00    -0.204 F 
ATOM     30  C   UNL     1      34.700 -17.413 -23.420  0.00  0.00    +0.049 C 
ATOM     31  C   UNL     1      33.899 -17.294 -24.556  0.00  0.00    +0.140 C 
ATOM     32  C   UNL     1      35.220 -16.271 -22.810  0.00  0.00    +0.002 C 
ATOM     33  C   UNL     1      33.619 -16.033 -25.082  0.00  0.00    +0.040 C 
ATOM     34  C   UNL     1      34.939 -15.010 -23.337  0.00  0.00    +0.010 C 
ATOM     35  C   UNL     1      34.139 -14.891 -24.473  0.00  0.00    +0.071 C 
BRANCH  35  37
ATOM     36  N   UNL     1      33.616 -12.550 -25.449  0.00  0.00    -0.191 NA
ATOM     37  C   UNL     1      33.850 -13.600 -25.012  0.00  0.00    +0.100 C 
ENDBRANCH  35  37
ENDBRANCH  28  30
ENDBRANCH  27  28
ENDBRANCH   9  27
TORSDOF 13
ENDMDL
MODEL 9
REMARK VINA RESULT:     -10.6      6.823     13.506
REMARK  Name = 25058128
REMARK  13 active torsions:
REMARK  status: ('A' for Active; 'I' for Inactive)
REMARK    1  A    between atoms: C_1  and  S_11
REMARK    2  A    between atoms: C_9  and  O_27
REMARK    3  A    between atoms: S_11  and  N_14
REMARK    4  A    between atoms: N_14  and  C_16
REMARK    5  A    between atoms: C_16  and  C_18
REMARK    6  A    between atoms: C_16  and  C_21
REMARK    7  A    between atoms: C_18  and  O_19
REMARK    8  A    between atoms: C_21  and  C_22
REMARK    9  A    between atoms: C_22  and  C_24
REMARK   10  A    between atoms: C_24  and  O_25
REMARK   11  A    between atoms: O_27  and  C_28
REMARK   12  A    between atoms: C_28  and  C_30
REMARK   13  A    between atoms: C_35  and  C_37
REMARK                            x       y       z     vdW  Elec       q    Type
REMARK                         _______ _______ _______ _____ _____    ______ ____
ROOT
ATOM      1  C   UNL     1      32.618 -11.587 -21.241  0.00  0.00    +0.122 C 
ATOM      2  C   UNL     1      33.800 -13.619 -20.618  0.00  0.00    +0.002 C 
ATOM      3  C   UNL     1      32.987 -12.525 -20.278  0.00  0.00    +0.020 C 
ATOM      4  C   UNL     1      34.242 -13.762 -21.956  0.00  0.00    +0.003 C 
ATOM      5  C   UNL     1      33.052 -11.728 -22.556  0.00  0.00    +0.020 C 
ATOM      6  C   UNL     1      33.860 -12.809 -22.912  0.00  0.00    +0.001 C 
ATOM      7  C   UNL     1      35.054 -14.857 -22.296  0.00  0.00    +0.037 C 
ATOM      8  C   UNL     1      34.183 -14.574 -19.662  0.00  0.00    +0.003 C 
ATOM      9  C   UNL     1      35.425 -15.796 -21.333  0.00  0.00    +0.139 C 
ATOM     10  C   UNL     1      34.990 -15.654 -20.019  0.00  0.00    +0.037 C 
ENDROOT
BRANCH   1  11
ATOM     11  S   UNL     1      31.594 -10.216 -20.792  0.00  0.00    +0.061 S 
ATOM     12  O   UNL     1      30.570 -10.071 -21.808  0.00  0.00    -0.153 OA
ATOM     13  O   UNL     1      31.224 -10.404 -19.403  0.00  0.00    -0.153 OA
BRANCH  11  14
ATOM     14  N   UNL     1      32.684  -8.917 -20.899  0.00  0.00    -0.170 NA
ATOM     15  H   UNL     1      32.905  -8.797 -21.888  0.00  0.00    +0.149 HD
BRANCH  14  16
ATOM     16  C   UNL     1      32.299  -7.584 -20.384  0.00  0.00    +0.174 C 
BRANCH  16  18
ATOM     17  O   UNL     1      33.391  -6.296 -18.634  0.00  0.00    -0.249 OA
ATOM     18  C   UNL     1      32.996  -7.374 -19.062  0.00  0.00    +0.330 C 
BRANCH  18  19
ATOM     19  O   UNL     1      33.130  -8.531 -18.363  0.00  0.00    -0.479 OA
ATOM     20  H   UNL     1      33.793  -9.149 -18.601  0.00  0.00    +0.295 HD
ENDBRANCH  18  19
ENDBRANCH  16  18
BRANCH  16  21
ATOM     21  C   UNL     1      32.579  -6.502 -21.433  0.00  0.00    +0.040 C 
BRANCH  21  22
ATOM     22  C   UNL     1      31.417  -5.566 -21.775  0.00  0.00    +0.111 C 
BRANCH  22  24
ATOM     23  O   UNL     1      30.027  -4.121 -20.427  0.00  0.00    -0.250 OA
ATOM     24  C   UNL     1      31.147  -4.518 -20.725  0.00  0.00    +0.314 C 
BRANCH  24  25
ATOM     25  O   UNL     1      32.281  -4.043 -20.152  0.00  0.00    -0.480 OA
ATOM     26  H   UNL     1      32.268  -3.221 -19.701  0.00  0.00    +0.295 HD
ENDBRANCH  24  25
ENDBRANCH  22  24
ENDBRANCH  21  22
ENDBRANCH  16  21
ENDBRANCH  14  16
ENDBRANCH  11  14
ENDBRANCH   1  11
BRANCH   9  27
ATOM     27  O   UNL     1      36.211 -16.851 -21.679  0.00  0.00    -0.471 OA
BRANCH  27  28
ATOM     28  C   UNL     1      35.553 -18.021 -22.161  0.00  0.00    +0.234 C 
BRANCH  28  30
ATOM     29  F   UNL     1      37.661 -18.967 -20.526  0.00  0.00    -0.204 F 
ATOM     30  C   UNL     1      35.339 -18.970 -21.019  0.00  0.00    +0.049 C 
ATOM     31  C   UNL     1      36.422 -19.399 -20.252  0.00  0.00    +0.140 C 
ATOM     32  C   UNL     1      34.053 -19.424 -20.725  0.00  0.00    +0.002 C 
ATOM     33  C   UNL     1      36.219 -20.282 -19.191  0.00  0.00    +0.040 C 
ATOM     34  C   UNL     1      33.851 -20.307 -19.664  0.00  0.00    +0.010 C 
ATOM     35  C   UNL     1      34.934 -20.736 -18.897  0.00  0.00    +0.071 C 
BRANCH  35  37
ATOM     36  N   UNL     1      34.559 -22.372 -16.926  0.00  0.00    -0.191 NA
ATOM     37  C   UNL     1      34.726 -21.639 -17.810  0.00  0.00    +0.100 C 
ENDBRANCH  35  37
ENDBRANCH  28  30
ENDBRANCH  27  28
ENDBRANCH   9  27
TORSDOF 13
ENDMDL
