MODEL 1
REMARK VINA RESULT:     -12.2      0.000      0.000
REMARK  Name = 5243
REMARK  7 active torsions:
REMARK  status: ('A' for Active; 'I' for Inactive)
REMARK    1  A    between atoms: C_1  and  C_3
REMARK    2  A    between atoms: C_1  and  C_8
REMARK    3  A    between atoms: C_1  and  C_19
REMARK    4  A    between atoms: C_13  and  O_14
REMARK    5  A    between atoms: O_14  and  S_15
REMARK    6  A    between atoms: C_24  and  O_25
REMARK    7  A    between atoms: O_25  and  S_26
REMARK                            x       y       z     vdW  Elec       q    Type
REMARK                         _______ _______ _______ _____ _____    ______ ____
ROOT
ATOM      1  C   UNL     1      33.954 -22.717 -16.548  0.00  0.00    +0.085 C 
ENDROOT
BRANCH   1   3
ATOM      2  N   UNL     1      31.543 -22.556 -16.695  0.00  0.00    -0.248 NA
ATOM      3  C   UNL     1      32.582 -22.518 -15.866  0.00  0.00    +0.067 C 
ATOM      4  C   UNL     1      32.573 -22.327 -14.520  0.00  0.00    +0.015 C 
ATOM      5  C   UNL     1      31.323 -22.151 -13.937  0.00  0.00    +0.003 C 
ATOM      6  C   UNL     1      30.345 -22.379 -16.093  0.00  0.00    +0.098 C 
ATOM      7  C   UNL     1      30.182 -22.176 -14.732  0.00  0.00    +0.021 C 
ENDBRANCH   1   3
BRANCH   1   8
ATOM      8  C   UNL     1      35.113 -22.891 -15.626  0.00  0.00    -0.013 C 
ATOM      9  C   UNL     1      35.289 -24.096 -14.946  0.00  0.00    -0.000 C 
ATOM     10  C   UNL     1      36.020 -21.847 -15.443  0.00  0.00    -0.000 C 
ATOM     11  C   UNL     1      36.372 -24.257 -14.082  0.00  0.00    +0.040 C 
ATOM     12  C   UNL     1      37.104 -22.009 -14.579  0.00  0.00    +0.040 C 
ATOM     13  C   UNL     1      37.280 -23.215 -13.899  0.00  0.00    +0.176 C 
BRANCH  13  14
ATOM     14  O   UNL     1      38.336 -23.373 -13.056  0.00  0.00    -0.322 OA
BRANCH  14  15
ATOM     15  S   UNL     1      38.121 -23.103 -11.448  0.00  0.00    +0.282 S 
ATOM     16  O   UNL     1      39.537 -22.448 -10.969  0.00  0.00    -0.105 OA
ATOM     17  O   UNL     1      37.084 -22.103 -11.273  0.00  0.00    -0.012 OA
ATOM     18  O   UNL     1      37.999 -24.395 -10.798  0.00  0.00    -0.105 OA
ENDBRANCH  14  15
ENDBRANCH  13  14
ENDBRANCH   1   8
BRANCH   1  19
ATOM     19  C   UNL     1      34.178 -21.735 -17.721  0.00  0.00    -0.013 C 
ATOM     20  C   UNL     1      33.079 -21.139 -18.278  0.00  0.00    -0.000 C 
ATOM     21  C   UNL     1      35.462 -21.516 -18.140  0.00  0.00    -0.000 C 
ATOM     22  C   UNL     1      33.281 -20.253 -19.337  0.00  0.00    +0.040 C 
ATOM     23  C   UNL     1      35.664 -20.631 -19.199  0.00  0.00    +0.040 C 
ATOM     24  C   UNL     1      34.573 -19.999 -19.798  0.00  0.00    +0.176 C 
BRANCH  24  25
ATOM     25  O   UNL     1      34.769 -19.135 -20.831  0.00  0.00    -0.322 OA
BRANCH  25  26
ATOM     26  S   UNL     1      35.968 -18.015 -20.716  0.00  0.00    +0.282 S 
ATOM     27  O   UNL     1      36.158 -17.489 -22.250  0.00  0.00    -0.105 OA
ATOM     28  O   UNL     1      35.497 -16.900 -19.917  0.00  0.00    -0.012 OA
ATOM     29  O   UNL     1      37.186 -18.711 -20.342  0.00  0.00    -0.105 OA
ENDBRANCH  25  26
ENDBRANCH  24  25
ENDBRANCH   1  19
TORSDOF 7
ENDMDL
MODEL 2
REMARK VINA RESULT:     -11.8      4.122      5.923
REMARK  Name = 5243
REMARK  7 active torsions:
REMARK  status: ('A' for Active; 'I' for Inactive)
REMARK    1  A    between atoms: C_1  and  C_3
REMARK    2  A    between atoms: C_1  and  C_8
REMARK    3  A    between atoms: C_1  and  C_19
REMARK    4  A    between atoms: C_13  and  O_14
REMARK    5  A    between atoms: O_14  and  S_15
REMARK    6  A    between atoms: C_24  and  O_25
REMARK    7  A    between atoms: O_25  and  S_26
REMARK                            x       y       z     vdW  Elec       q    Type
REMARK                         _______ _______ _______ _____ _____    ______ ____
ROOT
ATOM      1  C   UNL     1      34.715 -22.311 -15.166  0.00  0.00    +0.085 C 
ENDROOT
BRANCH   1   3
ATOM      2  N   UNL     1      35.592 -24.565 -15.270  0.00  0.00    -0.248 NA
ATOM      3  C   UNL     1      35.623 -23.421 -14.593  0.00  0.00    +0.067 C 
ATOM      4  C   UNL     1      36.345 -23.126 -13.479  0.00  0.00    +0.015 C 
ATOM      5  C   UNL     1      37.152 -24.148 -12.988  0.00  0.00    +0.003 C 
ATOM      6  C   UNL     1      36.387 -25.533 -14.763  0.00  0.00    +0.098 C 
ATOM      7  C   UNL     1      37.179 -25.377 -13.636  0.00  0.00    +0.021 C 
ENDBRANCH   1   3
BRANCH   1   8
ATOM      8  C   UNL     1      33.248 -22.558 -15.060  0.00  0.00    -0.013 C 
ATOM      9  C   UNL     1      32.607 -22.434 -13.827  0.00  0.00    -0.000 C 
ATOM     10  C   UNL     1      32.518 -22.914 -16.194  0.00  0.00    -0.000 C 
ATOM     11  C   UNL     1      31.236 -22.667 -13.729  0.00  0.00    +0.040 C 
ATOM     12  C   UNL     1      31.145 -23.146 -16.095  0.00  0.00    +0.040 C 
ATOM     13  C   UNL     1      30.504 -23.023 -14.862  0.00  0.00    +0.176 C 
BRANCH  13  14
ATOM     14  O   UNL     1      29.166 -23.249 -14.764  0.00  0.00    -0.322 OA
BRANCH  14  15
ATOM     15  S   UNL     1      28.164 -22.604 -15.897  0.00  0.00    +0.282 S 
ATOM     16  O   UNL     1      26.829 -22.196 -15.051  0.00  0.00    -0.105 OA
ATOM     17  O   UNL     1      28.757 -21.383 -16.411  0.00  0.00    -0.012 OA
ATOM     18  O   UNL     1      27.790 -23.668 -16.811  0.00  0.00    -0.105 OA
ENDBRANCH  14  15
ENDBRANCH  13  14
ENDBRANCH   1   8
BRANCH   1  19
ATOM     19  C   UNL     1      35.206 -21.798 -16.540  0.00  0.00    -0.013 C 
ATOM     20  C   UNL     1      36.488 -21.328 -16.629  0.00  0.00    -0.000 C 
ATOM     21  C   UNL     1      34.332 -21.842 -17.592  0.00  0.00    -0.000 C 
ATOM     22  C   UNL     1      36.931 -20.865 -17.868  0.00  0.00    +0.040 C 
ATOM     23  C   UNL     1      34.775 -21.379 -18.831  0.00  0.00    +0.040 C 
ATOM     24  C   UNL     1      36.075 -20.890 -18.970  0.00  0.00    +0.176 C 
BRANCH  24  25
ATOM     25  O   UNL     1      36.508 -20.438 -20.178  0.00  0.00    -0.322 OA
BRANCH  25  26
ATOM     26  S   UNL     1      36.181 -18.885 -20.611  0.00  0.00    +0.282 S 
ATOM     27  O   UNL     1      35.356 -19.036 -22.011  0.00  0.00    -0.105 OA
ATOM     28  O   UNL     1      35.289 -18.299 -19.628  0.00  0.00    -0.012 OA
ATOM     29  O   UNL     1      37.444 -18.239 -20.918  0.00  0.00    -0.105 OA
ENDBRANCH  25  26
ENDBRANCH  24  25
ENDBRANCH   1  19
TORSDOF 7
ENDMDL
MODEL 3
REMARK VINA RESULT:     -11.7      4.110      5.891
REMARK  Name = 5243
REMARK  7 active torsions:
REMARK  status: ('A' for Active; 'I' for Inactive)
REMARK    1  A    between atoms: C_1  and  C_3
REMARK    2  A    between atoms: C_1  and  C_8
REMARK    3  A    between atoms: C_1  and  C_19
REMARK    4  A    between atoms: C_13  and  O_14
REMARK    5  A    between atoms: O_14  and  S_15
REMARK    6  A    between atoms: C_24  and  O_25
REMARK    7  A    between atoms: O_25  and  S_26
REMARK                            x       y       z     vdW  Elec       q    Type
REMARK                         _______ _______ _______ _____ _____    ______ ____
ROOT
ATOM      1  C   UNL     1      34.616 -22.454 -14.999  0.00  0.00    +0.085 C 
ENDROOT
BRANCH   1   3
ATOM      2  N   UNL     1      35.624 -24.637 -15.278  0.00  0.00    -0.248 NA
ATOM      3  C   UNL     1      35.517 -23.590 -14.466  0.00  0.00    +0.067 C 
ATOM      4  C   UNL     1      36.096 -23.411 -13.249  0.00  0.00    +0.015 C 
ATOM      5  C   UNL     1      36.901 -24.452 -12.798  0.00  0.00    +0.003 C 
ATOM      6  C   UNL     1      36.412 -25.629 -14.806  0.00  0.00    +0.098 C 
ATOM      7  C   UNL     1      37.067 -25.586 -13.586  0.00  0.00    +0.021 C 
ENDBRANCH   1   3
BRANCH   1   8
ATOM      8  C   UNL     1      33.147 -22.695 -14.898  0.00  0.00    -0.013 C 
ATOM      9  C   UNL     1      32.454 -23.245 -15.975  0.00  0.00    -0.000 C 
ATOM     10  C   UNL     1      32.467 -22.368 -13.724  0.00  0.00    -0.000 C 
ATOM     11  C   UNL     1      31.081 -23.469 -15.880  0.00  0.00    +0.040 C 
ATOM     12  C   UNL     1      31.093 -22.592 -13.629  0.00  0.00    +0.040 C 
ATOM     13  C   UNL     1      30.400 -23.143 -14.707  0.00  0.00    +0.176 C 
BRANCH  13  14
ATOM     14  O   UNL     1      29.060 -23.361 -14.615  0.00  0.00    -0.322 OA
BRANCH  14  15
ATOM     15  S   UNL     1      28.067 -22.706 -15.750  0.00  0.00    +0.282 S 
ATOM     16  O   UNL     1      28.921 -21.444 -16.337  0.00  0.00    -0.105 OA
ATOM     17  O   UNL     1      27.886 -23.661 -16.827  0.00  0.00    -0.012 OA
ATOM     18  O   UNL     1      26.910 -22.163 -15.061  0.00  0.00    -0.105 OA
ENDBRANCH  14  15
ENDBRANCH  13  14
ENDBRANCH   1   8
BRANCH   1  19
ATOM     19  C   UNL     1      35.108 -21.898 -16.355  0.00  0.00    -0.013 C 
ATOM     20  C   UNL     1      34.252 -21.955 -17.421  0.00  0.00    -0.000 C 
ATOM     21  C   UNL     1      36.372 -21.379 -16.417  0.00  0.00    -0.000 C 
ATOM     22  C   UNL     1      34.696 -21.454 -18.645  0.00  0.00    +0.040 C 
ATOM     23  C   UNL     1      36.816 -20.878 -17.640  0.00  0.00    +0.040 C 
ATOM     24  C   UNL     1      35.978 -20.915 -18.755  0.00  0.00    +0.176 C 
BRANCH  24  25
ATOM     25  O   UNL     1      36.410 -20.427 -19.949  0.00  0.00    -0.322 OA
BRANCH  25  26
ATOM     26  S   UNL     1      35.764 -19.026 -20.518  0.00  0.00    +0.282 S 
ATOM     27  O   UNL     1      34.182 -19.141 -20.132  0.00  0.00    -0.105 OA
ATOM     28  O   UNL     1      36.325 -17.912 -19.777  0.00  0.00    -0.012 OA
ATOM     29  O   UNL     1      35.860 -19.053 -21.966  0.00  0.00    -0.105 OA
ENDBRANCH  25  26
ENDBRANCH  24  25
ENDBRANCH   1  19
TORSDOF 7
ENDMDL
MODEL 4
REMARK VINA RESULT:     -11.7      1.049      1.672
REMARK  Name = 5243
REMARK  7 active torsions:
REMARK  status: ('A' for Active; 'I' for Inactive)
REMARK    1  A    between atoms: C_1  and  C_3
REMARK    2  A    between atoms: C_1  and  C_8
REMARK    3  A    between atoms: C_1  and  C_19
REMARK    4  A    between atoms: C_13  and  O_14
REMARK    5  A    between atoms: O_14  and  S_15
REMARK    6  A    between atoms: C_24  and  O_25
REMARK    7  A    between atoms: O_25  and  S_26
REMARK                            x       y       z     vdW  Elec       q    Type
REMARK                         _______ _______ _______ _____ _____    ______ ____
ROOT
ATOM      1  C   UNL     1      33.954 -22.652 -16.722  0.00  0.00    +0.085 C 
ENDROOT
BRANCH   1   3
ATOM      2  N   UNL     1      31.538 -22.509 -16.785  0.00  0.00    -0.248 NA
ATOM      3  C   UNL     1      32.604 -22.470 -15.992  0.00  0.00    +0.067 C 
ATOM      4  C   UNL     1      32.641 -22.291 -14.644  0.00  0.00    +0.015 C 
ATOM      5  C   UNL     1      31.409 -22.130 -14.018  0.00  0.00    +0.003 C 
ATOM      6  C   UNL     1      30.360 -22.348 -16.141  0.00  0.00    +0.098 C 
ATOM      7  C   UNL     1      30.243 -22.158 -14.773  0.00  0.00    +0.021 C 
ENDBRANCH   1   3
BRANCH   1   8
ATOM      8  C   UNL     1      35.142 -22.848 -15.841  0.00  0.00    -0.013 C 
ATOM      9  C   UNL     1      36.165 -21.901 -15.830  0.00  0.00    -0.000 C 
ATOM     10  C   UNL     1      35.228 -23.979 -15.030  0.00  0.00    -0.000 C 
ATOM     11  C   UNL     1      37.276 -22.085 -15.007  0.00  0.00    +0.040 C 
ATOM     12  C   UNL     1      36.339 -24.163 -14.206  0.00  0.00    +0.040 C 
ATOM     13  C   UNL     1      37.364 -23.216 -14.195  0.00  0.00    +0.176 C 
BRANCH  13  14
ATOM     14  O   UNL     1      38.448 -23.395 -13.393  0.00  0.00    -0.322 OA
BRANCH  14  15
ATOM     15  S   UNL     1      39.340 -24.767 -13.554  0.00  0.00    +0.282 S 
ATOM     16  O   UNL     1      40.862 -24.285 -13.214  0.00  0.00    -0.105 OA
ATOM     17  O   UNL     1      38.934 -25.716 -12.534  0.00  0.00    -0.012 OA
ATOM     18  O   UNL     1      39.309 -25.150 -14.954  0.00  0.00    -0.105 OA
ENDBRANCH  14  15
ENDBRANCH  13  14
ENDBRANCH   1   8
BRANCH   1  19
ATOM     19  C   UNL     1      34.140 -21.642 -17.878  0.00  0.00    -0.013 C 
ATOM     20  C   UNL     1      33.027 -21.014 -18.368  0.00  0.00    -0.000 C 
ATOM     21  C   UNL     1      35.408 -21.431 -18.348  0.00  0.00    -0.000 C 
ATOM     22  C   UNL     1      33.195 -20.104 -19.411  0.00  0.00    +0.040 C 
ATOM     23  C   UNL     1      35.576 -20.520 -19.391  0.00  0.00    +0.040 C 
ATOM     24  C   UNL     1      34.469 -19.856 -19.923  0.00  0.00    +0.176 C 
BRANCH  24  25
ATOM     25  O   UNL     1      34.632 -18.967 -20.941  0.00  0.00    -0.322 OA
BRANCH  25  26
ATOM     26  S   UNL     1      35.806 -17.822 -20.818  0.00  0.00    +0.282 S 
ATOM     27  O   UNL     1      35.840 -17.138 -22.299  0.00  0.00    -0.105 OA
ATOM     28  O   UNL     1      35.380 -16.810 -19.868  0.00  0.00    -0.012 OA
ATOM     29  O   UNL     1      37.071 -18.506 -20.626  0.00  0.00    -0.105 OA
ENDBRANCH  25  26
ENDBRANCH  24  25
ENDBRANCH   1  19
TORSDOF 7
ENDMDL
MODEL 5
REMARK VINA RESULT:     -11.6      4.142      7.867
REMARK  Name = 5243
REMARK  7 active torsions:
REMARK  status: ('A' for Active; 'I' for Inactive)
REMARK    1  A    between atoms: C_1  and  C_3
REMARK    2  A    between atoms: C_1  and  C_8
REMARK    3  A    between atoms: C_1  and  C_19
REMARK    4  A    between atoms: C_13  and  O_14
REMARK    5  A    between atoms: O_14  and  S_15
REMARK    6  A    between atoms: C_24  and  O_25
REMARK    7  A    between atoms: O_25  and  S_26
REMARK                            x       y       z     vdW  Elec       q    Type
REMARK                         _______ _______ _______ _____ _____    ______ ____
ROOT
ATOM      1  C   UNL     1      34.194 -22.693 -16.694  0.00  0.00    +0.085 C 
ENDROOT
BRANCH   1   3
ATOM      2  N   UNL     1      35.932 -21.619 -17.993  0.00  0.00    -0.248 NA
ATOM      3  C   UNL     1      34.619 -21.714 -17.812  0.00  0.00    +0.067 C 
ATOM      4  C   UNL     1      33.631 -21.062 -18.482  0.00  0.00    +0.015 C 
ATOM      5  C   UNL     1      34.047 -20.188 -19.481  0.00  0.00    +0.003 C 
ATOM      6  C   UNL     1      36.299 -20.760 -18.970  0.00  0.00    +0.098 C 
ATOM      7  C   UNL     1      35.404 -20.029 -19.736  0.00  0.00    +0.021 C 
ENDBRANCH   1   3
BRANCH   1   8
ATOM      8  C   UNL     1      32.833 -22.472 -16.126  0.00  0.00    -0.013 C 
ATOM      9  C   UNL     1      32.615 -22.622 -14.757  0.00  0.00    -0.000 C 
ATOM     10  C   UNL     1      31.777 -22.115 -16.966  0.00  0.00    -0.000 C 
ATOM     11  C   UNL     1      31.342 -22.416 -14.227  0.00  0.00    +0.040 C 
ATOM     12  C   UNL     1      30.503 -21.908 -16.436  0.00  0.00    +0.040 C 
ATOM     13  C   UNL     1      30.286 -22.059 -15.066  0.00  0.00    +0.176 C 
BRANCH  13  14
ATOM     14  O   UNL     1      29.044 -21.858 -14.548  0.00  0.00    -0.322 OA
BRANCH  14  15
ATOM     15  S   UNL     1      27.733 -22.051 -15.522  0.00  0.00    +0.282 S 
ATOM     16  O   UNL     1      26.466 -21.942 -14.499  0.00  0.00    -0.105 OA
ATOM     17  O   UNL     1      27.661 -20.933 -16.443  0.00  0.00    -0.012 OA
ATOM     18  O   UNL     1      27.762 -23.410 -16.033  0.00  0.00    -0.105 OA
ENDBRANCH  14  15
ENDBRANCH  13  14
ENDBRANCH   1   8
BRANCH   1  19
ATOM     19  C   UNL     1      35.318 -22.930 -15.659  0.00  0.00    -0.013 C 
ATOM     20  C   UNL     1      36.214 -21.919 -15.441  0.00  0.00    -0.000 C 
ATOM     21  C   UNL     1      35.356 -24.138 -15.017  0.00  0.00    -0.000 C 
ATOM     22  C   UNL     1      37.228 -22.133 -14.507  0.00  0.00    +0.040 C 
ATOM     23  C   UNL     1      36.370 -24.352 -14.084  0.00  0.00    +0.040 C 
ATOM     24  C   UNL     1      37.306 -23.349 -13.828  0.00  0.00    +0.176 C 
BRANCH  24  25
ATOM     25  O   UNL     1      38.296 -23.557 -12.918  0.00  0.00    -0.322 OA
BRANCH  25  26
ATOM     26  S   UNL     1      38.038 -23.134 -11.350  0.00  0.00    +0.282 S 
ATOM     27  O   UNL     1      39.444 -22.441 -10.896  0.00  0.00    -0.105 OA
ATOM     28  O   UNL     1      37.003 -22.118 -11.299  0.00  0.00    -0.012 OA
ATOM     29  O   UNL     1      37.890 -24.357 -10.583  0.00  0.00    -0.105 OA
ENDBRANCH  25  26
ENDBRANCH  24  25
ENDBRANCH   1  19
TORSDOF 7
ENDMDL
MODEL 6
REMARK VINA RESULT:     -11.2      1.988      7.380
REMARK  Name = 5243
REMARK  7 active torsions:
REMARK  status: ('A' for Active; 'I' for Inactive)
REMARK    1  A    between atoms: C_1  and  C_3
REMARK    2  A    between atoms: C_1  and  C_8
REMARK    3  A    between atoms: C_1  and  C_19
REMARK    4  A    between atoms: C_13  and  O_14
REMARK    5  A    between atoms: O_14  and  S_15
REMARK    6  A    between atoms: C_24  and  O_25
REMARK    7  A    between atoms: O_25  and  S_26
REMARK                            x       y       z     vdW  Elec       q    Type
REMARK                         _______ _______ _______ _____ _____    ______ ____
ROOT
ATOM      1  C   UNL     1      34.741 -22.511 -15.194  0.00  0.00    +0.085 C 
ENDROOT
BRANCH   1   3
ATOM      2  N   UNL     1      33.366 -23.856 -13.723  0.00  0.00    -0.248 NA
ATOM      3  C   UNL     1      33.367 -23.115 -14.827  0.00  0.00    +0.067 C 
ATOM      4  C   UNL     1      32.321 -22.837 -15.651  0.00  0.00    +0.015 C 
ATOM      5  C   UNL     1      31.099 -23.396 -15.293  0.00  0.00    +0.003 C 
ATOM      6  C   UNL     1      32.162 -24.383 -13.408  0.00  0.00    +0.098 C 
ATOM      7  C   UNL     1      31.009 -24.185 -14.151  0.00  0.00    +0.021 C 
ENDBRANCH   1   3
BRANCH   1   8
ATOM      8  C   UNL     1      34.858 -21.970 -16.579  0.00  0.00    -0.013 C 
ATOM      9  C   UNL     1      36.062 -21.415 -17.012  0.00  0.00    -0.000 C 
ATOM     10  C   UNL     1      33.762 -22.019 -17.441  0.00  0.00    -0.000 C 
ATOM     11  C   UNL     1      36.170 -20.908 -18.306  0.00  0.00    +0.040 C 
ATOM     12  C   UNL     1      33.871 -21.513 -18.737  0.00  0.00    +0.040 C 
ATOM     13  C   UNL     1      35.076 -20.957 -19.169  0.00  0.00    +0.176 C 
BRANCH  13  14
ATOM     14  O   UNL     1      35.182 -20.463 -20.432  0.00  0.00    -0.322 OA
BRANCH  14  15
ATOM     15  S   UNL     1      35.609 -18.888 -20.638  0.00  0.00    +0.282 S 
ATOM     16  O   UNL     1      35.364 -18.621 -22.230  0.00  0.00    -0.105 OA
ATOM     17  O   UNL     1      34.686 -18.048 -19.897  0.00  0.00    -0.012 OA
ATOM     18  O   UNL     1      37.037 -18.784 -20.396  0.00  0.00    -0.105 OA
ENDBRANCH  14  15
ENDBRANCH  13  14
ENDBRANCH   1   8
BRANCH   1  19
ATOM     19  C   UNL     1      35.919 -23.395 -14.722  0.00  0.00    -0.013 C 
ATOM     20  C   UNL     1      36.875 -22.820 -13.929  0.00  0.00    -0.000 C 
ATOM     21  C   UNL     1      35.942 -24.703 -15.122  0.00  0.00    -0.000 C 
ATOM     22  C   UNL     1      37.938 -23.616 -13.504  0.00  0.00    +0.040 C 
ATOM     23  C   UNL     1      37.005 -25.499 -14.697  0.00  0.00    +0.040 C 
ATOM     24  C   UNL     1      38.004 -24.956 -13.887  0.00  0.00    +0.176 C 
BRANCH  24  25
ATOM     25  O   UNL     1      39.042 -25.733 -13.472  0.00  0.00    -0.322 OA
BRANCH  25  26
ATOM     26  S   UNL     1      40.557 -25.394 -14.015  0.00  0.00    +0.282 S 
ATOM     27  O   UNL     1      40.340 -25.072 -15.600  0.00  0.00    -0.105 OA
ATOM     28  O   UNL     1      41.028 -24.180 -13.372  0.00  0.00    -0.012 OA
ATOM     29  O   UNL     1      41.340 -26.612 -13.922  0.00  0.00    -0.105 OA
ENDBRANCH  25  26
ENDBRANCH  24  25
ENDBRANCH   1  19
TORSDOF 7
ENDMDL
MODEL 7
REMARK VINA RESULT:     -10.5      4.208      7.764
REMARK  Name = 5243
REMARK  7 active torsions:
REMARK  status: ('A' for Active; 'I' for Inactive)
REMARK    1  A    between atoms: C_1  and  C_3
REMARK    2  A    between atoms: C_1  and  C_8
REMARK    3  A    between atoms: C_1  and  C_19
REMARK    4  A    between atoms: C_13  and  O_14
REMARK    5  A    between atoms: O_14  and  S_15
REMARK    6  A    between atoms: C_24  and  O_25
REMARK    7  A    between atoms: O_25  and  S_26
REMARK                            x       y       z     vdW  Elec       q    Type
REMARK                         _______ _______ _______ _____ _____    ______ ____
ROOT
ATOM      1  C   UNL     1      33.946 -22.592 -16.788  0.00  0.00    +0.085 C 
ENDROOT
BRANCH   1   3
ATOM      2  N   UNL     1      33.283 -21.058 -18.539  0.00  0.00    -0.248 NA
ATOM      3  C   UNL     1      34.321 -21.604 -17.915  0.00  0.00    +0.067 C 
ATOM      4  C   UNL     1      35.645 -21.397 -18.152  0.00  0.00    +0.015 C 
ATOM      5  C   UNL     1      35.948 -20.503 -19.173  0.00  0.00    +0.003 C 
ATOM      6  C   UNL     1      33.616 -20.195 -19.525  0.00  0.00    +0.098 C 
ATOM      7  C   UNL     1      34.921 -19.886 -19.877  0.00  0.00    +0.021 C 
ENDBRANCH   1   3
BRANCH   1   8
ATOM      8  C   UNL     1      32.598 -22.396 -16.182  0.00  0.00    -0.013 C 
ATOM      9  C   UNL     1      32.416 -22.577 -14.811  0.00  0.00    -0.000 C 
ATOM     10  C   UNL     1      31.518 -22.032 -16.987  0.00  0.00    -0.000 C 
ATOM     11  C   UNL     1      31.154 -22.395 -14.245  0.00  0.00    +0.040 C 
ATOM     12  C   UNL     1      30.256 -21.850 -16.421  0.00  0.00    +0.040 C 
ATOM     13  C   UNL     1      30.074 -22.031 -15.049  0.00  0.00    +0.176 C 
BRANCH  13  14
ATOM     14  O   UNL     1      28.844 -21.854 -14.497  0.00  0.00    -0.322 OA
BRANCH  14  15
ATOM     15  S   UNL     1      27.509 -22.103 -15.426  0.00  0.00    +0.282 S 
ATOM     16  O   UNL     1      27.535 -20.863 -16.486  0.00  0.00    -0.105 OA
ATOM     17  O   UNL     1      27.679 -23.334 -16.174  0.00  0.00    -0.012 OA
ATOM     18  O   UNL     1      26.344 -21.925 -14.578  0.00  0.00    -0.105 OA
ENDBRANCH  14  15
ENDBRANCH  13  14
ENDBRANCH   1   8
BRANCH   1  19
ATOM     19  C   UNL     1      35.102 -22.809 -15.785  0.00  0.00    -0.013 C 
ATOM     20  C   UNL     1      35.122 -23.976 -15.070  0.00  0.00    -0.000 C 
ATOM     21  C   UNL     1      36.043 -21.822 -15.665  0.00  0.00    -0.000 C 
ATOM     22  C   UNL     1      36.165 -24.171 -14.164  0.00  0.00    +0.040 C 
ATOM     23  C   UNL     1      37.086 -22.018 -14.759  0.00  0.00    +0.040 C 
ATOM     24  C   UNL     1      37.147 -23.193 -14.009  0.00  0.00    +0.176 C 
BRANCH  24  25
ATOM     25  O   UNL     1      38.164 -23.384 -13.125  0.00  0.00    -0.322 OA
BRANCH  25  26
ATOM     26  S   UNL     1      39.265 -24.570 -13.421  0.00  0.00    +0.282 S 
ATOM     27  O   UNL     1      38.824 -25.773 -12.410  0.00  0.00    -0.105 OA
ATOM     28  O   UNL     1      39.092 -25.044 -14.782  0.00  0.00    -0.012 OA
ATOM     29  O   UNL     1      40.561 -24.086 -12.982  0.00  0.00    -0.105 OA
ENDBRANCH  25  26
ENDBRANCH  24  25
ENDBRANCH   1  19
TORSDOF 7
ENDMDL
MODEL 8
REMARK VINA RESULT:      -9.4      4.997      7.633
REMARK  Name = 5243
REMARK  7 active torsions:
REMARK  status: ('A' for Active; 'I' for Inactive)
REMARK    1  A    between atoms: C_1  and  C_3
REMARK    2  A    between atoms: C_1  and  C_8
REMARK    3  A    between atoms: C_1  and  C_19
REMARK    4  A    between atoms: C_13  and  O_14
REMARK    5  A    between atoms: O_14  and  S_15
REMARK    6  A    between atoms: C_24  and  O_25
REMARK    7  A    between atoms: O_25  and  S_26
REMARK                            x       y       z     vdW  Elec       q    Type
REMARK                         _______ _______ _______ _____ _____    ______ ____
ROOT
ATOM      1  C   UNL     1      35.686 -17.925 -21.795  0.00  0.00    +0.085 C 
ENDROOT
BRANCH   1   3
ATOM      2  N   UNL     1      34.130 -17.552 -23.611  0.00  0.00    -0.248 NA
ATOM      3  C   UNL     1      35.062 -18.371 -23.136  0.00  0.00    +0.067 C 
ATOM      4  C   UNL     1      35.516 -19.531 -23.682  0.00  0.00    +0.015 C 
ATOM      5  C   UNL     1      34.933 -19.905 -24.889  0.00  0.00    +0.003 C 
ATOM      6  C   UNL     1      33.586 -17.948 -24.784  0.00  0.00    +0.098 C 
ATOM      7  C   UNL     1      33.949 -19.104 -25.457  0.00  0.00    +0.021 C 
ENDBRANCH   1   3
BRANCH   1   8
ATOM      8  C   UNL     1      35.598 -18.914 -20.682  0.00  0.00    -0.013 C 
ATOM      9  C   UNL     1      36.753 -19.310 -20.008  0.00  0.00    -0.000 C 
ATOM     10  C   UNL     1      34.360 -19.443 -20.317  0.00  0.00    -0.000 C 
ATOM     11  C   UNL     1      36.670 -20.235 -18.968  0.00  0.00    +0.040 C 
ATOM     12  C   UNL     1      34.277 -20.369 -19.276  0.00  0.00    +0.040 C 
ATOM     13  C   UNL     1      35.433 -20.765 -18.601  0.00  0.00    +0.176 C 
BRANCH  13  14
ATOM     14  O   UNL     1      35.352 -21.668 -17.587  0.00  0.00    -0.322 OA
BRANCH  14  15
ATOM     15  S   UNL     1      33.998 -22.590 -17.446  0.00  0.00    +0.282 S 
ATOM     16  O   UNL     1      34.285 -23.507 -16.126  0.00  0.00    -0.105 OA
ATOM     17  O   UNL     1      32.869 -21.728 -17.153  0.00  0.00    -0.012 OA
ATOM     18  O   UNL     1      33.952 -23.481 -18.591  0.00  0.00    -0.105 OA
ENDBRANCH  14  15
ENDBRANCH  13  14
ENDBRANCH   1   8
BRANCH   1  19
ATOM     19  C   UNL     1      35.312 -16.471 -21.425  0.00  0.00    -0.013 C 
ATOM     20  C   UNL     1      35.102 -16.178 -20.105  0.00  0.00    -0.000 C 
ATOM     21  C   UNL     1      35.211 -15.556 -22.438  0.00  0.00    -0.000 C 
ATOM     22  C   UNL     1      34.763 -14.866 -19.771  0.00  0.00    +0.040 C 
ATOM     23  C   UNL     1      34.873 -14.244 -22.104  0.00  0.00    +0.040 C 
ATOM     24  C   UNL     1      34.649 -13.899 -20.770  0.00  0.00    +0.176 C 
BRANCH  24  25
ATOM     25  O   UNL     1      34.319 -12.620 -20.444  0.00  0.00    -0.322 OA
BRANCH  25  26
ATOM     26  S   UNL     1      32.747 -12.149 -20.559  0.00  0.00    +0.282 S 
ATOM     27  O   UNL     1      32.544 -11.155 -19.281  0.00  0.00    -0.105 OA
ATOM     28  O   UNL     1      32.576 -11.364 -21.767  0.00  0.00    -0.012 OA
ATOM     29  O   UNL     1      31.920 -13.320 -20.334  0.00  0.00    -0.105 OA
ENDBRANCH  25  26
ENDBRANCH  24  25
ENDBRANCH   1  19
TORSDOF 7
ENDMDL
MODEL 9
REMARK VINA RESULT:      -9.4      1.099      1.988
REMARK  Name = 5243
REMARK  7 active torsions:
REMARK  status: ('A' for Active; 'I' for Inactive)
REMARK    1  A    between atoms: C_1  and  C_3
REMARK    2  A    between atoms: C_1  and  C_8
REMARK    3  A    between atoms: C_1  and  C_19
REMARK    4  A    between atoms: C_13  and  O_14
REMARK    5  A    between atoms: O_14  and  S_15
REMARK    6  A    between atoms: C_24  and  O_25
REMARK    7  A    between atoms: O_25  and  S_26
REMARK                            x       y       z     vdW  Elec       q    Type
REMARK                         _______ _______ _______ _____ _____    ______ ____
ROOT
ATOM      1  C   UNL     1      33.936 -22.816 -16.599  0.00  0.00    +0.085 C 
ENDROOT
BRANCH   1   3
ATOM      2  N   UNL     1      31.616 -22.292 -17.050  0.00  0.00    -0.248 NA
ATOM      3  C   UNL     1      32.513 -22.492 -16.090  0.00  0.00    +0.067 C 
ATOM      4  C   UNL     1      32.325 -22.443 -14.744  0.00  0.00    +0.015 C 
ATOM      5  C   UNL     1      31.034 -22.148 -14.320  0.00  0.00    +0.003 C 
ATOM      6  C   UNL     1      30.373 -22.007 -16.600  0.00  0.00    +0.098 C 
ATOM      7  C   UNL     1      30.034 -21.925 -15.259  0.00  0.00    +0.021 C 
ENDBRANCH   1   3
BRANCH   1   8
ATOM      8  C   UNL     1      34.928 -23.180 -15.547  0.00  0.00    -0.013 C 
ATOM      9  C   UNL     1      35.602 -22.180 -14.847  0.00  0.00    -0.000 C 
ATOM     10  C   UNL     1      35.183 -24.523 -15.265  0.00  0.00    -0.000 C 
ATOM     11  C   UNL     1      36.531 -22.522 -13.865  0.00  0.00    +0.040 C 
ATOM     12  C   UNL     1      36.112 -24.865 -14.281  0.00  0.00    +0.040 C 
ATOM     13  C   UNL     1      36.786 -23.864 -13.581  0.00  0.00    +0.176 C 
BRANCH  13  14
ATOM     14  O   UNL     1      37.693 -24.197 -12.623  0.00  0.00    -0.322 OA
BRANCH  14  15
ATOM     15  S   UNL     1      37.154 -24.601 -11.122  0.00  0.00    +0.282 S 
ATOM     16  O   UNL     1      37.392 -26.214 -11.043  0.00  0.00    -0.105 OA
ATOM     17  O   UNL     1      38.008 -23.975 -10.130  0.00  0.00    -0.012 OA
ATOM     18  O   UNL     1      35.721 -24.372 -11.094  0.00  0.00    -0.105 OA
ENDBRANCH  14  15
ENDBRANCH  13  14
ENDBRANCH   1   8
BRANCH   1  19
ATOM     19  C   UNL     1      34.429 -21.803 -17.658  0.00  0.00    -0.013 C 
ATOM     20  C   UNL     1      35.771 -21.542 -17.721  0.00  0.00    -0.000 C 
ATOM     21  C   UNL     1      33.497 -21.222 -18.474  0.00  0.00    -0.000 C 
ATOM     22  C   UNL     1      36.216 -20.628 -18.676  0.00  0.00    +0.040 C 
ATOM     23  C   UNL     1      33.942 -20.308 -19.429  0.00  0.00    +0.040 C 
ATOM     24  C   UNL     1      35.302 -20.011 -19.531  0.00  0.00    +0.176 C 
BRANCH  24  25
ATOM     25  O   UNL     1      35.737 -19.119 -20.462  0.00  0.00    -0.322 OA
BRANCH  25  26
ATOM     26  S   UNL     1      34.670 -18.546 -21.575  0.00  0.00    +0.282 S 
ATOM     27  O   UNL     1      35.237 -19.125 -22.992  0.00  0.00    -0.105 OA
ATOM     28  O   UNL     1      33.370 -19.146 -21.336  0.00  0.00    -0.012 OA
ATOM     29  O   UNL     1      34.804 -17.102 -21.611  0.00  0.00    -0.105 OA
ENDBRANCH  25  26
ENDBRANCH  24  25
ENDBRANCH   1  19
TORSDOF 7
ENDMDL
