MODEL 1
REMARK VINA RESULT:     -12.5      0.000      0.000
REMARK  Name = 3822
REMARK  5 active torsions:
REMARK  status: ('A' for Active; 'I' for Inactive)
REMARK    1  A    between atoms: N_1  and  C_17
REMARK    2  A    between atoms: C_2  and  C_9
REMARK    3  A    between atoms: C_9  and  C_11
REMARK    4  A    between atoms: C_17  and  C_18
REMARK    5  A    between atoms: C_18  and  N_21
REMARK                            x       y       z     vdW  Elec       q    Type
REMARK                         _______ _______ _______ _____ _____    ______ ____
ROOT
ATOM      1  N   UNL     1      34.784 -22.526 -13.406  0.00  0.00    +0.388 N 
ATOM      2  C   UNL     1      36.807 -23.276 -11.413  0.00  0.00    +0.058 C 
ATOM      3  C   UNL     1      37.130 -22.396 -12.620  0.00  0.00    -0.015 C 
ATOM      4  C   UNL     1      35.309 -23.283 -11.110  0.00  0.00    -0.015 C 
ATOM      5  C   UNL     1      36.193 -22.640 -13.806  0.00  0.00    -0.077 C 
ATOM      6  C   UNL     1      34.455 -23.503 -12.362  0.00  0.00    -0.077 C 
ATOM      7  H   UNL     1      34.637 -21.592 -13.024  0.00  0.00    -0.080 HD
ENDROOT
BRANCH   2   9
ATOM      8  O   UNL     1      36.852 -25.608 -10.951  0.00  0.00    -0.291 OA
ATOM      9  C   UNL     1      37.303 -24.679 -11.615  0.00  0.00    +0.172 C 
BRANCH   9  11
ATOM     10  F   UNL     1      41.247 -25.631 -15.450  0.00  0.00    -0.204 F 
ATOM     11  C   UNL     1      38.355 -24.934 -12.639  0.00  0.00    +0.035 C 
ATOM     12  C   UNL     1      38.108 -25.861 -13.626  0.00  0.00    +0.005 C 
ATOM     13  C   UNL     1      39.537 -24.230 -12.560  0.00  0.00    +0.005 C 
ATOM     14  C   UNL     1      39.094 -26.099 -14.584  0.00  0.00    +0.030 C 
ATOM     15  C   UNL     1      40.523 -24.468 -13.518  0.00  0.00    +0.030 C 
ATOM     16  C   UNL     1      40.302 -25.402 -14.530  0.00  0.00    +0.140 C 
ENDBRANCH   9  11
ENDBRANCH   2   9
BRANCH   1  17
ATOM     17  C   UNL     1      33.908 -22.702 -14.565  0.00  0.00    -0.052 C 
BRANCH  17  18
ATOM     18  C   UNL     1      34.728 -23.046 -15.800  0.00  0.00    +0.091 C 
BRANCH  18  21
ATOM     19  O   UNL     1      36.606 -21.700 -17.332  0.00  0.00    -0.267 OA
ATOM     20  O   UNL     1      32.080 -22.646 -16.644  0.00  0.00    -0.246 OA
ATOM     21  N   UNL     1      34.364 -22.215 -16.915  0.00  0.00    -0.251 N 
ATOM     22  N   UNL     1      32.708 -21.265 -18.341  0.00  0.00    -0.306 N 
ATOM     23  C   UNL     1      35.417 -21.578 -17.618  0.00  0.00    +0.265 A 
ATOM     24  C   UNL     1      32.990 -22.081 -17.257  0.00  0.00    +0.330 A 
ATOM     25  C   UNL     1      35.030 -20.727 -18.759  0.00  0.00    +0.072 A 
ATOM     26  C   UNL     1      33.683 -20.597 -19.086  0.00  0.00    +0.065 A 
ATOM     27  C   UNL     1      36.000 -20.055 -19.509  0.00  0.00    +0.006 C 
ATOM     28  C   UNL     1      33.296 -19.794 -20.163  0.00  0.00    +0.017 C 
ATOM     29  C   UNL     1      35.613 -19.253 -20.585  0.00  0.00    +0.000 C 
ATOM     30  C   UNL     1      34.264 -19.124 -20.911  0.00  0.00    +0.001 C 
ATOM     31  H   UNL     1      31.766 -21.151 -18.602  0.00  0.00    +0.170 HD
ENDBRANCH  18  21
ENDBRANCH  17  18
ENDBRANCH   1  17
TORSDOF 5
ENDMDL
MODEL 2
REMARK VINA RESULT:     -12.1      4.899     10.377
REMARK  Name = 3822
REMARK  5 active torsions:
REMARK  status: ('A' for Active; 'I' for Inactive)
REMARK    1  A    between atoms: N_1  and  C_17
REMARK    2  A    between atoms: C_2  and  C_9
REMARK    3  A    between atoms: C_9  and  C_11
REMARK    4  A    between atoms: C_17  and  C_18
REMARK    5  A    between atoms: C_18  and  N_21
REMARK                            x       y       z     vdW  Elec       q    Type
REMARK                         _______ _______ _______ _____ _____    ______ ____
ROOT
ATOM      1  N   UNL     1      36.078 -19.556 -20.241  0.00  0.00    +0.388 N 
ATOM      2  C   UNL     1      35.934 -17.563 -22.393  0.00  0.00    +0.058 C 
ATOM      3  C   UNL     1      37.245 -17.927 -21.697  0.00  0.00    -0.015 C 
ATOM      4  C   UNL     1      34.881 -18.655 -22.209  0.00  0.00    -0.015 C 
ATOM      5  C   UNL     1      37.041 -18.447 -20.272  0.00  0.00    -0.077 C 
ATOM      6  C   UNL     1      34.772 -19.131 -20.758  0.00  0.00    -0.077 C 
ATOM      7  H   UNL     1      36.431 -20.300 -20.843  0.00  0.00    -0.080 HD
ENDROOT
BRANCH   2   9
ATOM      8  O   UNL     1      35.445 -15.954 -20.712  0.00  0.00    -0.291 OA
ATOM      9  C   UNL     1      35.407 -16.245 -21.905  0.00  0.00    +0.172 C 
BRANCH   9  11
ATOM     10  F   UNL     1      33.259 -12.651 -25.599  0.00  0.00    -0.204 F 
ATOM     11  C   UNL     1      34.833 -15.285 -22.890  0.00  0.00    +0.035 C 
ATOM     12  C   UNL     1      34.558 -14.000 -22.480  0.00  0.00    +0.005 C 
ATOM     13  C   UNL     1      34.601 -15.720 -24.177  0.00  0.00    +0.005 C 
ATOM     14  C   UNL     1      34.021 -13.102 -23.403  0.00  0.00    +0.030 C 
ATOM     15  C   UNL     1      34.064 -14.822 -25.100  0.00  0.00    +0.030 C 
ATOM     16  C   UNL     1      33.774 -13.513 -24.713  0.00  0.00    +0.140 C 
ENDBRANCH   9  11
ENDBRANCH   2   9
BRANCH   1  17
ATOM     17  C   UNL     1      35.944 -20.079 -18.880  0.00  0.00    -0.052 C 
BRANCH  17  18
ATOM     18  C   UNL     1      35.527 -21.541 -18.915  0.00  0.00    +0.091 C 
BRANCH  18  21
ATOM     19  O   UNL     1      36.083 -22.352 -16.322  0.00  0.00    -0.267 OA
ATOM     20  O   UNL     1      32.784 -21.287 -19.459  0.00  0.00    -0.246 OA
ATOM     21  N   UNL     1      34.495 -21.812 -17.952  0.00  0.00    -0.251 N 
ATOM     22  N   UNL     1      32.191 -21.930 -17.358  0.00  0.00    -0.306 N 
ATOM     23  C   UNL     1      34.908 -22.222 -16.659  0.00  0.00    +0.265 A 
ATOM     24  C   UNL     1      33.135 -21.651 -18.333  0.00  0.00    +0.330 A 
ATOM     25  C   UNL     1      33.839 -22.498 -15.680  0.00  0.00    +0.072 A 
ATOM     26  C   UNL     1      32.510 -22.343 -16.062  0.00  0.00    +0.065 A 
ATOM     27  C   UNL     1      34.151 -22.911 -14.381  0.00  0.00    +0.006 C 
ATOM     28  C   UNL     1      31.483 -22.601 -15.149  0.00  0.00    +0.017 C 
ATOM     29  C   UNL     1      33.125 -23.169 -13.470  0.00  0.00    +0.000 C 
ATOM     30  C   UNL     1      31.793 -23.013 -13.854  0.00  0.00    +0.001 C 
ATOM     31  H   UNL     1      31.240 -21.829 -17.592  0.00  0.00    +0.170 HD
ENDBRANCH  18  21
ENDBRANCH  17  18
ENDBRANCH   1  17
TORSDOF 5
ENDMDL
MODEL 3
REMARK VINA RESULT:     -11.9      4.914     10.413
REMARK  Name = 3822
REMARK  5 active torsions:
REMARK  status: ('A' for Active; 'I' for Inactive)
REMARK    1  A    between atoms: N_1  and  C_17
REMARK    2  A    between atoms: C_2  and  C_9
REMARK    3  A    between atoms: C_9  and  C_11
REMARK    4  A    between atoms: C_17  and  C_18
REMARK    5  A    between atoms: C_18  and  N_21
REMARK                            x       y       z     vdW  Elec       q    Type
REMARK                         _______ _______ _______ _____ _____    ______ ____
ROOT
ATOM      1  N   UNL     1      36.111 -19.597 -20.209  0.00  0.00    +0.388 N 
ATOM      2  C   UNL     1      35.928 -17.615 -22.367  0.00  0.00    +0.058 C 
ATOM      3  C   UNL     1      37.250 -17.966 -21.686  0.00  0.00    -0.015 C 
ATOM      4  C   UNL     1      34.884 -18.712 -22.166  0.00  0.00    -0.015 C 
ATOM      5  C   UNL     1      37.066 -18.482 -20.256  0.00  0.00    -0.077 C 
ATOM      6  C   UNL     1      34.796 -19.183 -20.712  0.00  0.00    -0.077 C 
ATOM      7  H   UNL     1      36.462 -20.342 -20.812  0.00  0.00    -0.080 HD
ENDROOT
BRANCH   2   9
ATOM      8  O   UNL     1      35.423 -16.012 -20.684  0.00  0.00    -0.291 OA
ATOM      9  C   UNL     1      35.398 -16.298 -21.878  0.00  0.00    +0.172 C 
BRANCH   9  11
ATOM     10  F   UNL     1      33.291 -12.679 -25.573  0.00  0.00    -0.204 F 
ATOM     11  C   UNL     1      34.836 -15.332 -22.865  0.00  0.00    +0.035 C 
ATOM     12  C   UNL     1      34.593 -15.764 -24.149  0.00  0.00    +0.005 C 
ATOM     13  C   UNL     1      34.579 -14.043 -22.454  0.00  0.00    +0.005 C 
ATOM     14  C   UNL     1      34.067 -14.860 -25.072  0.00  0.00    +0.030 C 
ATOM     15  C   UNL     1      34.052 -13.139 -23.377  0.00  0.00    +0.030 C 
ATOM     16  C   UNL     1      33.797 -13.547 -24.686  0.00  0.00    +0.140 C 
ENDBRANCH   9  11
ENDBRANCH   2   9
BRANCH   1  17
ATOM     17  C   UNL     1      35.997 -20.115 -18.844  0.00  0.00    -0.052 C 
BRANCH  17  18
ATOM     18  C   UNL     1      35.435 -21.529 -18.861  0.00  0.00    +0.091 C 
BRANCH  18  21
ATOM     19  O   UNL     1      32.684 -21.737 -18.590  0.00  0.00    -0.267 OA
ATOM     20  O   UNL     1      36.849 -22.027 -16.486  0.00  0.00    -0.246 OA
ATOM     21  N   UNL     1      34.804 -21.853 -17.611  0.00  0.00    -0.251 N 
ATOM     22  N   UNL     1      34.945 -22.393 -15.294  0.00  0.00    -0.306 N 
ATOM     23  C   UNL     1      33.389 -21.928 -17.601  0.00  0.00    +0.265 A 
ATOM     24  C   UNL     1      35.617 -22.086 -16.467  0.00  0.00    +0.330 A 
ATOM     25  C   UNL     1      32.753 -22.260 -16.311  0.00  0.00    +0.072 A 
ATOM     26  C   UNL     1      33.554 -22.483 -15.195  0.00  0.00    +0.065 A 
ATOM     27  C   UNL     1      31.362 -22.352 -16.205  0.00  0.00    +0.006 C 
ATOM     28  C   UNL     1      32.971 -22.798 -13.965  0.00  0.00    +0.017 C 
ATOM     29  C   UNL     1      30.780 -22.666 -14.975  0.00  0.00    +0.000 C 
ATOM     30  C   UNL     1      31.584 -22.889 -13.858  0.00  0.00    +0.001 C 
ATOM     31  H   UNL     1      35.480 -22.559 -14.484  0.00  0.00    +0.170 HD
ENDBRANCH  18  21
ENDBRANCH  17  18
ENDBRANCH   1  17
TORSDOF 5
ENDMDL
MODEL 4
REMARK VINA RESULT:     -11.7      0.902      2.100
REMARK  Name = 3822
REMARK  5 active torsions:
REMARK  status: ('A' for Active; 'I' for Inactive)
REMARK    1  A    between atoms: N_1  and  C_17
REMARK    2  A    between atoms: C_2  and  C_9
REMARK    3  A    between atoms: C_9  and  C_11
REMARK    4  A    between atoms: C_17  and  C_18
REMARK    5  A    between atoms: C_18  and  N_21
REMARK                            x       y       z     vdW  Elec       q    Type
REMARK                         _______ _______ _______ _____ _____    ______ ____
ROOT
ATOM      1  N   UNL     1      35.229 -22.473 -13.204  0.00  0.00    +0.388 N 
ATOM      2  C   UNL     1      36.982 -23.564 -11.115  0.00  0.00    +0.058 C 
ATOM      3  C   UNL     1      37.462 -22.527 -12.130  0.00  0.00    -0.015 C 
ATOM      4  C   UNL     1      35.458 -23.572 -10.999  0.00  0.00    -0.015 C 
ATOM      5  C   UNL     1      36.676 -22.568 -13.443  0.00  0.00    -0.077 C 
ATOM      6  C   UNL     1      34.763 -23.582 -12.363  0.00  0.00    -0.077 C 
ATOM      7  H   UNL     1      35.047 -21.600 -12.707  0.00  0.00    -0.080 HD
ENDROOT
BRANCH   2   9
ATOM      8  O   UNL     1      37.097 -25.924 -10.843  0.00  0.00    -0.291 OA
ATOM      9  C   UNL     1      37.484 -24.936 -11.462  0.00  0.00    +0.172 C 
BRANCH   9  11
ATOM     10  F   UNL     1      41.154 -25.510 -15.630  0.00  0.00    -0.204 F 
ATOM     11  C   UNL     1      38.464 -25.089 -12.574  0.00  0.00    +0.035 C 
ATOM     12  C   UNL     1      39.621 -24.344 -12.543  0.00  0.00    +0.005 C 
ATOM     13  C   UNL     1      38.175 -25.971 -13.592  0.00  0.00    +0.005 C 
ATOM     14  C   UNL     1      40.538 -24.488 -13.584  0.00  0.00    +0.030 C 
ATOM     15  C   UNL     1      39.092 -26.114 -14.634  0.00  0.00    +0.030 C 
ATOM     16  C   UNL     1      40.274 -25.373 -14.630  0.00  0.00    +0.140 C 
ENDBRANCH   9  11
ENDBRANCH   2   9
BRANCH   1  17
ATOM     17  C   UNL     1      34.502 -22.452 -14.473  0.00  0.00    -0.052 C 
BRANCH  17  18
ATOM     18  C   UNL     1      35.376 -22.997 -15.592  0.00  0.00    +0.091 C 
BRANCH  18  21
ATOM     19  O   UNL     1      33.166 -22.431 -17.167  0.00  0.00    -0.267 OA
ATOM     20  O   UNL     1      37.697 -21.614 -16.358  0.00  0.00    -0.246 OA
ATOM     21  N   UNL     1      35.431 -22.085 -16.702  0.00  0.00    -0.251 N 
ATOM     22  N   UNL     1      36.644 -20.571 -18.086  0.00  0.00    -0.306 N 
ATOM     23  C   UNL     1      34.232 -21.881 -17.431  0.00  0.00    +0.265 A 
ATOM     24  C   UNL     1      36.660 -21.437 -17.004  0.00  0.00    +0.330 A 
ATOM     25  C   UNL     1      34.302 -20.944 -18.569  0.00  0.00    +0.072 A 
ATOM     26  C   UNL     1      35.509 -20.317 -18.861  0.00  0.00    +0.065 A 
ATOM     27  C   UNL     1      33.171 -20.684 -19.348  0.00  0.00    +0.006 C 
ATOM     28  C   UNL     1      35.596 -19.426 -19.935  0.00  0.00    +0.017 C 
ATOM     29  C   UNL     1      33.258 -19.794 -20.421  0.00  0.00    +0.000 C 
ATOM     30  C   UNL     1      34.468 -19.166 -20.713  0.00  0.00    +0.001 C 
ATOM     31  H   UNL     1      37.480 -20.108 -18.321  0.00  0.00    +0.170 HD
ENDBRANCH  18  21
ENDBRANCH  17  18
ENDBRANCH   1  17
TORSDOF 5
ENDMDL
MODEL 5
REMARK VINA RESULT:     -11.5      6.432     10.313
REMARK  Name = 3822
REMARK  5 active torsions:
REMARK  status: ('A' for Active; 'I' for Inactive)
REMARK    1  A    between atoms: N_1  and  C_17
REMARK    2  A    between atoms: C_2  and  C_9
REMARK    3  A    between atoms: C_9  and  C_11
REMARK    4  A    between atoms: C_17  and  C_18
REMARK    5  A    between atoms: C_18  and  N_21
REMARK                            x       y       z     vdW  Elec       q    Type
REMARK                         _______ _______ _______ _____ _____    ______ ____
ROOT
ATOM      1  N   UNL     1      35.109 -16.271 -23.308  0.00  0.00    +0.388 N 
ATOM      2  C   UNL     1      35.607 -18.919 -22.140  0.00  0.00    +0.058 C 
ATOM      3  C   UNL     1      34.951 -18.735 -23.508  0.00  0.00    -0.015 C 
ATOM      4  C   UNL     1      36.387 -17.674 -21.721  0.00  0.00    -0.015 C 
ATOM      5  C   UNL     1      34.226 -17.394 -23.648  0.00  0.00    -0.077 C 
ATOM      6  C   UNL     1      35.591 -16.382 -21.926  0.00  0.00    -0.077 C 
ATOM      7  H   UNL     1      35.918 -16.303 -23.929  0.00  0.00    -0.080 HD
ENDROOT
BRANCH   2   9
ATOM      8  O   UNL     1      33.410 -18.958 -21.229  0.00  0.00    -0.291 OA
ATOM      9  C   UNL     1      34.590 -19.273 -21.093  0.00  0.00    +0.172 C 
BRANCH   9  11
ATOM     10  F   UNL     1      36.241 -22.057 -16.544  0.00  0.00    -0.204 F 
ATOM     11  C   UNL     1      35.030 -20.016 -19.879  0.00  0.00    +0.035 C 
ATOM     12  C   UNL     1      34.090 -20.705 -19.148  0.00  0.00    +0.005 C 
ATOM     13  C   UNL     1      36.364 -19.986 -19.533  0.00  0.00    +0.005 C 
ATOM     14  C   UNL     1      34.502 -21.401 -18.011  0.00  0.00    +0.030 C 
ATOM     15  C   UNL     1      36.776 -20.681 -18.397  0.00  0.00    +0.030 C 
ATOM     16  C   UNL     1      35.846 -21.389 -17.635  0.00  0.00    +0.140 C 
ENDBRANCH   9  11
ENDBRANCH   2   9
BRANCH   1  17
ATOM     17  C   UNL     1      34.416 -14.997 -23.506  0.00  0.00    -0.052 C 
BRANCH  17  18
ATOM     18  C   UNL     1      35.123 -13.887 -22.744  0.00  0.00    +0.091 C 
BRANCH  18  21
ATOM     19  O   UNL     1      33.932 -14.028 -20.244  0.00  0.00    -0.267 OA
ATOM     20  O   UNL     1      34.346 -11.643 -24.244  0.00  0.00    -0.246 OA
ATOM     21  N   UNL     1      34.188 -12.900 -22.276  0.00  0.00    -0.251 N 
ATOM     22  N   UNL     1      32.955 -10.888 -22.608  0.00  0.00    -0.306 N 
ATOM     23  C   UNL     1      33.647 -13.086 -20.979  0.00  0.00    +0.265 A 
ATOM     24  C   UNL     1      33.863 -11.801 -23.119  0.00  0.00    +0.330 A 
ATOM     25  C   UNL     1      32.687 -12.066 -20.512  0.00  0.00    +0.072 A 
ATOM     26  C   UNL     1      32.370 -10.997 -21.343  0.00  0.00    +0.065 A 
ATOM     27  C   UNL     1      32.098 -12.169 -19.248  0.00  0.00    +0.006 C 
ATOM     28  C   UNL     1      31.463 -10.022 -20.919  0.00  0.00    +0.017 C 
ATOM     29  C   UNL     1      31.191 -11.195 -18.824  0.00  0.00    +0.000 C 
ATOM     30  C   UNL     1      30.876 -10.123 -19.658  0.00  0.00    +0.001 C 
ATOM     31  H   UNL     1      32.709 -10.117 -23.168  0.00  0.00    +0.170 HD
ENDBRANCH  18  21
ENDBRANCH  17  18
ENDBRANCH   1  17
TORSDOF 5
ENDMDL
MODEL 6
REMARK VINA RESULT:     -11.4      7.700     11.406
REMARK  Name = 3822
REMARK  5 active torsions:
REMARK  status: ('A' for Active; 'I' for Inactive)
REMARK    1  A    between atoms: N_1  and  C_17
REMARK    2  A    between atoms: C_2  and  C_9
REMARK    3  A    between atoms: C_9  and  C_11
REMARK    4  A    between atoms: C_17  and  C_18
REMARK    5  A    between atoms: C_18  and  N_21
REMARK                            x       y       z     vdW  Elec       q    Type
REMARK                         _______ _______ _______ _____ _____    ______ ____
ROOT
ATOM      1  N   UNL     1      34.865 -14.585 -21.048  0.00  0.00    +0.388 N 
ATOM      2  C   UNL     1      35.962 -17.194 -21.830  0.00  0.00    +0.058 C 
ATOM      3  C   UNL     1      35.738 -16.064 -22.834  0.00  0.00    -0.015 C 
ATOM      4  C   UNL     1      36.033 -16.666 -20.398  0.00  0.00    -0.015 C 
ATOM      5  C   UNL     1      34.632 -15.095 -22.405  0.00  0.00    -0.077 C 
ATOM      6  C   UNL     1      34.905 -15.682 -20.075  0.00  0.00    -0.077 C 
ATOM      7  H   UNL     1      35.772 -14.116 -21.036  0.00  0.00    -0.080 HD
ENDROOT
BRANCH   2   9
ATOM      8  O   UNL     1      34.188 -18.318 -22.947  0.00  0.00    -0.291 OA
ATOM      9  C   UNL     1      34.893 -18.242 -21.944  0.00  0.00    +0.172 C 
BRANCH   9  11
ATOM     10  F   UNL     1      34.147 -21.825 -17.726  0.00  0.00    -0.204 F 
ATOM     11  C   UNL     1      34.695 -19.199 -20.818  0.00  0.00    +0.035 C 
ATOM     12  C   UNL     1      35.800 -19.793 -20.252  0.00  0.00    +0.005 C 
ATOM     13  C   UNL     1      33.411 -19.452 -20.385  0.00  0.00    +0.005 C 
ATOM     14  C   UNL     1      35.613 -20.688 -19.198  0.00  0.00    +0.030 C 
ATOM     15  C   UNL     1      33.225 -20.347 -19.331  0.00  0.00    +0.030 C 
ATOM     16  C   UNL     1      34.326 -20.966 -18.738  0.00  0.00    +0.140 C 
ENDBRANCH   9  11
ENDBRANCH   2   9
BRANCH   1  17
ATOM     17  C   UNL     1      33.832 -13.615 -20.682  0.00  0.00    -0.052 C 
BRANCH  17  18
ATOM     18  C   UNL     1      33.040 -13.197 -21.913  0.00  0.00    +0.091 C 
BRANCH  18  21
ATOM     19  O   UNL     1      34.659 -11.846 -23.713  0.00  0.00    -0.267 OA
ATOM     20  O   UNL     1      31.352 -11.517 -20.425  0.00  0.00    -0.246 OA
ATOM     21  N   UNL     1      33.014 -11.767 -22.054  0.00  0.00    -0.251 N 
ATOM     22  N   UNL     1      32.144  -9.637 -21.434  0.00  0.00    -0.306 N 
ATOM     23  C   UNL     1      33.892 -11.195 -23.008  0.00  0.00    +0.265 A 
ATOM     24  C   UNL     1      32.118 -11.010 -21.249  0.00  0.00    +0.330 A 
ATOM     25  C   UNL     1      33.856  -9.725 -23.142  0.00  0.00    +0.072 A 
ATOM     26  C   UNL     1      32.981  -8.990 -22.348  0.00  0.00    +0.065 A 
ATOM     27  C   UNL     1      34.689  -9.072 -24.055  0.00  0.00    +0.006 C 
ATOM     28  C   UNL     1      32.932  -7.598 -22.459  0.00  0.00    +0.017 C 
ATOM     29  C   UNL     1      34.641  -7.681 -24.166  0.00  0.00    +0.000 C 
ATOM     30  C   UNL     1      33.763  -6.946 -23.370  0.00  0.00    +0.001 C 
ATOM     31  H   UNL     1      31.537  -9.085 -20.890  0.00  0.00    +0.170 HD
ENDBRANCH  18  21
ENDBRANCH  17  18
ENDBRANCH   1  17
TORSDOF 5
ENDMDL
MODEL 7
REMARK VINA RESULT:     -11.3     10.316     15.374
REMARK  Name = 3822
REMARK  5 active torsions:
REMARK  status: ('A' for Active; 'I' for Inactive)
REMARK    1  A    between atoms: N_1  and  C_17
REMARK    2  A    between atoms: C_2  and  C_9
REMARK    3  A    between atoms: C_9  and  C_11
REMARK    4  A    between atoms: C_17  and  C_18
REMARK    5  A    between atoms: C_18  and  N_21
REMARK                            x       y       z     vdW  Elec       q    Type
REMARK                         _______ _______ _______ _____ _____    ______ ____
ROOT
ATOM      1  N   UNL     1      32.691 -11.186 -22.374  0.00  0.00    +0.388 N 
ATOM      2  C   UNL     1      32.687  -8.349 -23.134  0.00  0.00    +0.058 C 
ATOM      3  C   UNL     1      33.345  -9.427 -23.993  0.00  0.00    -0.015 C 
ATOM      4  C   UNL     1      31.659  -8.946 -22.175  0.00  0.00    -0.015 C 
ATOM      5  C   UNL     1      33.793 -10.646 -23.182  0.00  0.00    -0.077 C 
ATOM      6  C   UNL     1      32.188 -10.177 -21.434  0.00  0.00    -0.077 C 
ATOM      7  H   UNL     1      31.930 -11.439 -23.005  0.00  0.00    -0.080 HD
ENDROOT
BRANCH   2   9
ATOM      8  O   UNL     1      34.905  -7.638 -22.654  0.00  0.00    -0.291 OA
ATOM      9  C   UNL     1      33.712  -7.561 -22.371  0.00  0.00    +0.172 C 
BRANCH   9  11
ATOM     10  F   UNL     1      32.033  -4.248 -18.201  0.00  0.00    -0.204 F 
ATOM     11  C   UNL     1      33.264  -6.676 -21.258  0.00  0.00    +0.035 C 
ATOM     12  C   UNL     1      32.618  -5.500 -21.567  0.00  0.00    +0.005 C 
ATOM     13  C   UNL     1      33.512  -7.069 -19.961  0.00  0.00    +0.005 C 
ATOM     14  C   UNL     1      32.198  -4.673 -20.525  0.00  0.00    +0.030 C 
ATOM     15  C   UNL     1      33.092  -6.241 -18.920  0.00  0.00    +0.030 C 
ATOM     16  C   UNL     1      32.436  -5.043 -19.201  0.00  0.00    +0.140 C 
ENDBRANCH   9  11
ENDBRANCH   2   9
BRANCH   1  17
ATOM     17  C   UNL     1      33.123 -12.385 -21.655  0.00  0.00    -0.052 C 
BRANCH  17  18
ATOM     18  C   UNL     1      34.554 -12.738 -22.030  0.00  0.00    +0.091 C 
BRANCH  18  21
ATOM     19  O   UNL     1      35.250 -14.498 -20.004  0.00  0.00    -0.267 OA
ATOM     20  O   UNL     1      34.152 -13.977 -24.519  0.00  0.00    -0.246 OA
ATOM     21  N   UNL     1      34.701 -14.151 -22.250  0.00  0.00    -0.251 N 
ATOM     22  N   UNL     1      34.634 -16.044 -23.696  0.00  0.00    -0.306 N 
ATOM     23  C   UNL     1      35.063 -14.945 -21.133  0.00  0.00    +0.265 A 
ATOM     24  C   UNL     1      34.474 -14.675 -23.553  0.00  0.00    +0.330 A 
ATOM     25  C   UNL     1      35.212 -16.394 -21.373  0.00  0.00    +0.072 A 
ATOM     26  C   UNL     1      34.992 -16.899 -22.651  0.00  0.00    +0.065 A 
ATOM     27  C   UNL     1      35.570 -17.255 -20.332  0.00  0.00    +0.006 C 
ATOM     28  C   UNL     1      35.129 -18.268 -22.898  0.00  0.00    +0.017 C 
ATOM     29  C   UNL     1      35.708 -18.623 -20.579  0.00  0.00    +0.000 C 
ATOM     30  C   UNL     1      35.487 -19.127 -21.860  0.00  0.00    +0.001 C 
ATOM     31  H   UNL     1      34.484 -16.437 -24.587  0.00  0.00    +0.170 HD
ENDBRANCH  18  21
ENDBRANCH  17  18
ENDBRANCH   1  17
TORSDOF 5
ENDMDL
MODEL 8
REMARK VINA RESULT:     -11.2      4.473      6.815
REMARK  Name = 3822
REMARK  5 active torsions:
REMARK  status: ('A' for Active; 'I' for Inactive)
REMARK    1  A    between atoms: N_1  and  C_17
REMARK    2  A    between atoms: C_2  and  C_9
REMARK    3  A    between atoms: C_9  and  C_11
REMARK    4  A    between atoms: C_17  and  C_18
REMARK    5  A    between atoms: C_18  and  N_21
REMARK                            x       y       z     vdW  Elec       q    Type
REMARK                         _______ _______ _______ _____ _____    ______ ____
ROOT
ATOM      1  N   UNL     1      33.303 -22.685 -13.751  0.00  0.00    +0.388 N 
ATOM      2  C   UNL     1      30.640 -23.786 -13.181  0.00  0.00    +0.058 C 
ATOM      3  C   UNL     1      31.926 -24.570 -12.920  0.00  0.00    -0.015 C 
ATOM      4  C   UNL     1      30.909 -22.285 -13.273  0.00  0.00    -0.015 C 
ATOM      5  C   UNL     1      33.085 -24.135 -13.822  0.00  0.00    -0.077 C 
ATOM      6  C   UNL     1      32.103 -21.953 -14.173  0.00  0.00    -0.077 C 
ATOM      7  H   UNL     1      33.499 -22.441 -12.780  0.00  0.00    -0.080 HD
ENDROOT
BRANCH   2   9
ATOM      8  O   UNL     1      30.195 -25.381 -14.888  0.00  0.00    -0.291 OA
ATOM      9  C   UNL     1      29.953 -24.269 -14.425  0.00  0.00    +0.172 C 
BRANCH   9  11
ATOM     10  F   UNL     1      26.255 -20.931 -16.947  0.00  0.00    -0.204 F 
ATOM     11  C   UNL     1      28.967 -23.378 -15.099  0.00  0.00    +0.035 C 
ATOM     12  C   UNL     1      28.784 -23.500 -16.458  0.00  0.00    +0.005 C 
ATOM     13  C   UNL     1      28.272 -22.465 -14.336  0.00  0.00    +0.005 C 
ATOM     14  C   UNL     1      27.860 -22.667 -17.088  0.00  0.00    +0.030 C 
ATOM     15  C   UNL     1      27.348 -21.631 -14.966  0.00  0.00    +0.030 C 
ATOM     16  C   UNL     1      27.142 -21.731 -16.342  0.00  0.00    +0.140 C 
ENDBRANCH   9  11
ENDBRANCH   2   9
BRANCH   1  17
ATOM     17  C   UNL     1      34.452 -22.300 -14.572  0.00  0.00    -0.052 C 
BRANCH  17  18
ATOM     18  C   UNL     1      34.445 -23.070 -15.883  0.00  0.00    +0.091 C 
BRANCH  18  21
ATOM     19  O   UNL     1      36.630 -21.813 -17.038  0.00  0.00    -0.267 OA
ATOM     20  O   UNL     1      32.000 -22.461 -17.124  0.00  0.00    -0.246 OA
ATOM     21  N   UNL     1      34.321 -22.183 -17.008  0.00  0.00    -0.251 N 
ATOM     22  N   UNL     1      32.984 -21.077 -18.641  0.00  0.00    -0.306 N 
ATOM     23  C   UNL     1      35.513 -21.600 -17.506  0.00  0.00    +0.265 A 
ATOM     24  C   UNL     1      33.033 -21.943 -17.560  0.00  0.00    +0.330 A 
ATOM     25  C   UNL     1      35.372 -20.690 -18.659  0.00  0.00    +0.072 A 
ATOM     26  C   UNL     1      34.108 -20.457 -19.192  0.00  0.00    +0.065 A 
ATOM     27  C   UNL     1      36.492 -20.066 -19.216  0.00  0.00    +0.006 C 
ATOM     28  C   UNL     1      33.953 -19.597 -20.283  0.00  0.00    +0.017 C 
ATOM     29  C   UNL     1      36.338 -19.207 -20.306  0.00  0.00    +0.000 C 
ATOM     30  C   UNL     1      35.070 -18.975 -20.839  0.00  0.00    +0.001 C 
ATOM     31  H   UNL     1      32.105 -20.890 -19.044  0.00  0.00    +0.170 HD
ENDBRANCH  18  21
ENDBRANCH  17  18
ENDBRANCH   1  17
TORSDOF 5
ENDMDL
MODEL 9
REMARK VINA RESULT:     -11.2      4.608     10.088
REMARK  Name = 3822
REMARK  5 active torsions:
REMARK  status: ('A' for Active; 'I' for Inactive)
REMARK    1  A    between atoms: N_1  and  C_17
REMARK    2  A    between atoms: C_2  and  C_9
REMARK    3  A    between atoms: C_9  and  C_11
REMARK    4  A    between atoms: C_17  and  C_18
REMARK    5  A    between atoms: C_18  and  N_21
REMARK                            x       y       z     vdW  Elec       q    Type
REMARK                         _______ _______ _______ _____ _____    ______ ____
ROOT
ATOM      1  N   UNL     1      35.989 -19.852 -20.836  0.00  0.00    +0.388 N 
ATOM      2  C   UNL     1      35.949 -17.104 -21.870  0.00  0.00    +0.058 C 
ATOM      3  C   UNL     1      37.238 -17.795 -21.425  0.00  0.00    -0.015 C 
ATOM      4  C   UNL     1      34.848 -18.117 -22.181  0.00  0.00    -0.015 C 
ATOM      5  C   UNL     1      36.999 -18.888 -20.380  0.00  0.00    -0.077 C 
ATOM      6  C   UNL     1      34.707 -19.186 -21.094  0.00  0.00    -0.077 C 
ATOM      7  H   UNL     1      36.315 -20.263 -21.712  0.00  0.00    -0.080 HD
ENDROOT
BRANCH   2   9
ATOM      8  O   UNL     1      35.607 -16.353 -19.639  0.00  0.00    -0.291 OA
ATOM      9  C   UNL     1      35.475 -16.121 -20.838  0.00  0.00    +0.172 C 
BRANCH   9  11
ATOM     10  F   UNL     1      33.085 -11.363 -22.519  0.00  0.00    -0.204 F 
ATOM     11  C   UNL     1      34.838 -14.851 -21.287  0.00  0.00    +0.035 C 
ATOM     12  C   UNL     1      34.966 -14.476 -22.606  0.00  0.00    +0.005 C 
ATOM     13  C   UNL     1      34.142 -14.100 -20.366  0.00  0.00    +0.005 C 
ATOM     14  C   UNL     1      34.369 -13.287 -23.026  0.00  0.00    +0.030 C 
ATOM     15  C   UNL     1      33.544 -12.911 -20.786  0.00  0.00    +0.030 C 
ATOM     16  C   UNL     1      33.658 -12.505 -22.115  0.00  0.00    +0.140 C 
ENDBRANCH   9  11
ENDBRANCH   2   9
BRANCH   1  17
ATOM     17  C   UNL     1      35.821 -20.921 -19.851  0.00  0.00    -0.052 C 
BRANCH  17  18
ATOM     18  C   UNL     1      34.862 -20.483 -18.754  0.00  0.00    +0.091 C 
BRANCH  18  21
ATOM     19  O   UNL     1      37.107 -20.552 -17.129  0.00  0.00    -0.267 OA
ATOM     20  O   UNL     1      32.813 -22.219 -17.932  0.00  0.00    -0.246 OA
ATOM     21  N   UNL     1      34.957 -21.341 -17.605  0.00  0.00    -0.251 N 
ATOM     22  N   UNL     1      34.018 -22.986 -16.160  0.00  0.00    -0.306 N 
ATOM     23  C   UNL     1      36.159 -21.286 -16.856  0.00  0.00    +0.265 A 
ATOM     24  C   UNL     1      33.859 -22.183 -17.278  0.00  0.00    +0.330 A 
ATOM     25  C   UNL     1      36.246 -22.173 -15.679  0.00  0.00    +0.072 A 
ATOM     26  C   UNL     1      35.169 -22.998 -15.368  0.00  0.00    +0.065 A 
ATOM     27  C   UNL     1      37.394 -22.190 -14.882  0.00  0.00    +0.006 C 
ATOM     28  C   UNL     1      35.232 -23.846 -14.258  0.00  0.00    +0.017 C 
ATOM     29  C   UNL     1      37.457 -23.038 -13.774  0.00  0.00    +0.000 C 
ATOM     30  C   UNL     1      36.377 -23.863 -13.463  0.00  0.00    +0.001 C 
ATOM     31  H   UNL     1      33.275 -23.581 -15.908  0.00  0.00    +0.170 HD
ENDBRANCH  18  21
ENDBRANCH  17  18
ENDBRANCH   1  17
TORSDOF 5
ENDMDL
