MODEL 1
REMARK VINA RESULT:     -12.5      0.000      0.000
REMARK  Name = 59473233
REMARK  3 active torsions:
REMARK  status: ('A' for Active; 'I' for Inactive)
REMARK    1  A    between atoms: N_1  and  C_25
REMARK    2  A    between atoms: C_7  and  C_14
REMARK    3  A    between atoms: C_22  and  N_29
REMARK                            x       y       z     vdW  Elec       q    Type
REMARK                         _______ _______ _______ _____ _____    ______ ____
ROOT
ATOM      1  N   UNL     1      36.606 -22.360 -15.672  0.00  0.00    -0.286 N 
ATOM      2  N   UNL     1      35.145 -23.260 -12.393  0.00  0.00    -0.260 N 
ATOM      3  N   UNL     1      34.419 -22.878 -15.037  0.00  0.00    -0.387 NA
ATOM      4  N   UNL     1      37.284 -22.797 -12.820  0.00  0.00    -0.224 NA
ATOM      5  C   UNL     1      35.686 -22.714 -14.712  0.00  0.00    +0.216 C 
ATOM      6  C   UNL     1      36.081 -22.913 -13.332  0.00  0.00    +0.180 C 
ATOM      7  C   UNL     1      33.494 -23.238 -14.056  0.00  0.00    +0.131 C 
ATOM      8  C   UNL     1      33.825 -23.425 -12.759  0.00  0.00    +0.156 C 
ATOM      9  C   UNL     1      35.796 -23.374 -11.197  0.00  0.00    +0.088 C 
ATOM     10  C   UNL     1      37.113 -23.084 -11.486  0.00  0.00    +0.117 C 
ATOM     11  H   UNL     1      37.529 -22.675 -15.536  0.00  0.00    +0.155 HD
ENDROOT
BRANCH   7  14
ATOM     12  N   UNL     1      29.400 -22.009 -16.643  0.00  0.00    -0.236 N 
ATOM     13  N   UNL     1      28.155 -22.505 -16.734  0.00  0.00    -0.180 NA
ATOM     14  C   UNL     1      32.085 -23.395 -14.482  0.00  0.00    +0.028 C 
ATOM     15  C   UNL     1      30.214 -22.690 -15.778  0.00  0.00    +0.067 C 
ATOM     16  C   UNL     1      31.547 -22.497 -15.411  0.00  0.00    +0.018 C 
ATOM     17  C   UNL     1      29.427 -23.716 -15.266  0.00  0.00    +0.035 C 
ATOM     18  C   UNL     1      31.317 -24.432 -13.951  0.00  0.00    +0.002 C 
ATOM     19  C   UNL     1      29.981 -24.609 -14.333  0.00  0.00    +0.003 C 
ATOM     20  C   UNL     1      28.175 -23.542 -15.894  0.00  0.00    +0.119 C 
ATOM     21  H   UNL     1      29.701 -21.223 -17.154  0.00  0.00    +0.174 HD
ENDBRANCH   7  14
BRANCH   1  25
ATOM     22  C   UNL     1      35.890 -20.086 -19.108  0.00  0.00    +0.048 C 
ATOM     23  C   UNL     1      37.074 -19.913 -18.391  0.00  0.00    +0.016 C 
ATOM     24  C   UNL     1      34.945 -21.018 -18.677  0.00  0.00    +0.016 C 
ATOM     25  C   UNL     1      36.367 -21.602 -16.815  0.00  0.00    +0.050 C 
ATOM     26  C   UNL     1      37.313 -20.671 -17.244  0.00  0.00    +0.016 C 
ATOM     27  C   UNL     1      35.183 -21.775 -17.531  0.00  0.00    +0.016 C 
BRANCH  22  29
ATOM     28  O   UNL     1      35.086 -17.594 -22.397  0.00  0.00    -0.350 OA
ATOM     29  N   UNL     1      35.651 -19.326 -20.257  0.00  0.00    -0.303 N 
ATOM     30  C   UNL     1      36.471 -18.128 -20.479  0.00  0.00    +0.123 C 
ATOM     31  C   UNL     1      34.303 -19.276 -20.834  0.00  0.00    +0.123 C 
ATOM     32  C   UNL     1      36.435 -17.744 -21.953  0.00  0.00    +0.164 C 
ATOM     33  C   UNL     1      34.382 -18.830 -22.290  0.00  0.00    +0.164 C 
ENDBRANCH  22  29
ENDBRANCH   1  25
TORSDOF 3
ENDMDL
