MODEL 1
REMARK VINA RESULT:     -11.3      0.000      0.000
REMARK  Name = 11697697
REMARK  7 active torsions:
REMARK  status: ('A' for Active; 'I' for Inactive)
REMARK    1  A    between atoms: N_2  and  C_14
REMARK    2  A    between atoms: C_8  and  C_32
REMARK    3  A    between atoms: C_13  and  O_19
REMARK    4  A    between atoms: O_19  and  C_20
REMARK    5  A    between atoms: C_20  and  C_21
REMARK    6  A    between atoms: C_21  and  C_22
REMARK    7  A    between atoms: C_22  and  N_23
REMARK                            x       y       z     vdW  Elec       q    Type
REMARK                         _______ _______ _______ _____ _____    ______ ____
ROOT
ATOM      1  O   UNL     1      35.026 -10.727 -24.093  0.00  0.00    -0.273 OA
ATOM      2  N   UNL     1      33.517 -11.570 -22.494  0.00  0.00    -0.215 N 
ATOM      3  N   UNL     1      32.045 -10.058 -21.395  0.00  0.00    -0.394 NA
ATOM      4  C   UNL     1      33.643  -9.189 -23.027  0.00  0.00    +0.156 C 
ATOM      5  C   UNL     1      34.150 -10.560 -23.249  0.00  0.00    +0.245 C 
ATOM      6  C   UNL     1      32.512 -11.255 -21.575  0.00  0.00    +0.170 C 
ATOM      7  C   UNL     1      32.596  -9.000 -22.127  0.00  0.00    +0.123 C 
ATOM      8  C   UNL     1      34.189  -8.106 -23.727  0.00  0.00    +0.064 C 
ATOM      9  C   UNL     1      32.094  -7.708 -21.931  0.00  0.00    +0.028 C 
ATOM     10  C   UNL     1      33.680  -6.824 -23.523  0.00  0.00    +0.001 C 
ATOM     11  C   UNL     1      31.940 -12.329 -20.673  0.00  0.00    +0.084 C 
ATOM     12  C   UNL     1      32.633  -6.624 -22.626  0.00  0.00    +0.002 C 
ENDROOT
BRANCH   2  14
ATOM     13  C   UNL     1      34.699 -15.547 -23.234  0.00  0.00    +0.139 C 
ATOM     14  C   UNL     1      33.921 -12.926 -22.747  0.00  0.00    +0.060 C 
ATOM     15  C   UNL     1      35.116 -14.901 -22.071  0.00  0.00    +0.038 C 
ATOM     16  C   UNL     1      33.892 -14.877 -24.154  0.00  0.00    +0.038 C 
ATOM     17  C   UNL     1      34.726 -13.585 -21.826  0.00  0.00    +0.018 C 
ATOM     18  C   UNL     1      33.501 -13.561 -23.908  0.00  0.00    +0.018 C 
BRANCH  13  19
ATOM     19  O   UNL     1      35.082 -16.832 -23.474  0.00  0.00    -0.476 OA
BRANCH  19  20
ATOM     20  C   UNL     1      36.042 -17.400 -22.585  0.00  0.00    +0.203 C 
BRANCH  20  21
ATOM     21  C   UNL     1      35.368 -18.493 -21.766  0.00  0.00    +0.025 C 
BRANCH  21  22
ATOM     22  C   UNL     1      36.160 -18.815 -20.504  0.00  0.00    -0.074 C 
BRANCH  22  23
ATOM     23  N   UNL     1      35.313 -19.495 -19.535  0.00  0.00    +0.387 N 
ATOM     24  C   UNL     1      33.947 -19.679 -20.020  0.00  0.00    -0.077 C 
ATOM     25  C   UNL     1      35.792 -20.842 -19.224  0.00  0.00    -0.077 C 
ATOM     26  C   UNL     1      33.381 -20.715 -19.060  0.00  0.00    -0.025 C 
ATOM     27  C   UNL     1      34.593 -21.478 -18.534  0.00  0.00    -0.025 C 
ATOM     28  H   UNL     1      35.342 -18.890 -18.714  0.00  0.00    -0.080 HD
ENDBRANCH  22  23
ENDBRANCH  21  22
ENDBRANCH  20  21
ENDBRANCH  19  20
ENDBRANCH  13  19
ENDBRANCH   2  14
BRANCH   8  32
ATOM     29  F   UNL     1      35.044  -9.093 -25.730  0.00  0.00    -0.166 F 
ATOM     30  F   UNL     1      35.636  -7.049 -25.311  0.00  0.00    -0.166 F 
ATOM     31  F   UNL     1      36.460  -8.681 -24.133  0.00  0.00    -0.166 F 
ATOM     32  C   UNL     1      35.309  -8.229 -24.708  0.00  0.00    +0.416 C 
ENDBRANCH   8  32
TORSDOF 7
ENDMDL
MODEL 2
REMARK VINA RESULT:     -11.2      4.234      6.999
REMARK  Name = 11697697
REMARK  7 active torsions:
REMARK  status: ('A' for Active; 'I' for Inactive)
REMARK    1  A    between atoms: N_2  and  C_14
REMARK    2  A    between atoms: C_8  and  C_32
REMARK    3  A    between atoms: C_13  and  O_19
REMARK    4  A    between atoms: O_19  and  C_20
REMARK    5  A    between atoms: C_20  and  C_21
REMARK    6  A    between atoms: C_21  and  C_22
REMARK    7  A    between atoms: C_22  and  N_23
REMARK                            x       y       z     vdW  Elec       q    Type
REMARK                         _______ _______ _______ _____ _____    ______ ____
ROOT
ATOM      1  O   UNL     1      34.934 -15.800 -20.140  0.00  0.00    -0.273 OA
ATOM      2  N   UNL     1      35.122 -17.420 -21.839  0.00  0.00    -0.215 N 
ATOM      3  N   UNL     1      34.703 -16.775 -24.091  0.00  0.00    -0.394 NA
ATOM      4  C   UNL     1      34.472 -15.113 -22.314  0.00  0.00    +0.156 C 
ATOM      5  C   UNL     1      34.843 -16.139 -21.317  0.00  0.00    +0.245 C 
ATOM      6  C   UNL     1      35.003 -17.677 -23.208  0.00  0.00    +0.170 C 
ATOM      7  C   UNL     1      34.441 -15.470 -23.662  0.00  0.00    +0.123 C 
ATOM      8  C   UNL     1      34.181 -13.803 -21.915  0.00  0.00    +0.064 C 
ATOM      9  C   UNL     1      34.115 -14.496 -24.614  0.00  0.00    +0.028 C 
ATOM     10  C   UNL     1      33.857 -12.843 -22.873  0.00  0.00    +0.001 C 
ATOM     11  C   UNL     1      35.170 -19.087 -23.735  0.00  0.00    +0.084 C 
ATOM     12  C   UNL     1      33.825 -13.189 -24.222  0.00  0.00    +0.002 C 
ENDROOT
BRANCH   2  14
ATOM     13  C   UNL     1      36.443 -20.351 -19.114  0.00  0.00    +0.139 C 
ATOM     14  C   UNL     1      35.572 -18.420 -20.911  0.00  0.00    +0.060 C 
ATOM     15  C   UNL     1      37.357 -19.461 -19.679  0.00  0.00    +0.038 C 
ATOM     16  C   UNL     1      35.091 -20.272 -19.453  0.00  0.00    +0.038 C 
ATOM     17  C   UNL     1      36.920 -18.492 -20.581  0.00  0.00    +0.018 C 
ATOM     18  C   UNL     1      34.655 -19.302 -20.355  0.00  0.00    +0.018 C 
BRANCH  13  19
ATOM     19  O   UNL     1      36.869 -21.298 -18.234  0.00  0.00    -0.476 OA
BRANCH  19  20
ATOM     20  C   UNL     1      36.271 -21.298 -16.939  0.00  0.00    +0.203 C 
BRANCH  20  21
ATOM     21  C   UNL     1      37.331 -21.660 -15.907  0.00  0.00    +0.025 C 
BRANCH  21  22
ATOM     22  C   UNL     1      36.844 -22.756 -14.966  0.00  0.00    -0.074 C 
BRANCH  22  23
ATOM     23  N   UNL     1      37.909 -23.151 -14.055  0.00  0.00    +0.387 N 
ATOM     24  C   UNL     1      37.525 -23.008 -12.652  0.00  0.00    -0.077 C 
ATOM     25  C   UNL     1      38.278 -24.559 -14.207  0.00  0.00    -0.077 C 
ATOM     26  C   UNL     1      38.587 -23.818 -11.924  0.00  0.00    -0.025 C 
ATOM     27  C   UNL     1      39.085 -24.836 -12.946  0.00  0.00    -0.025 C 
ATOM     28  H   UNL     1      38.683 -22.533 -14.298  0.00  0.00    -0.080 HD
ENDBRANCH  22  23
ENDBRANCH  21  22
ENDBRANCH  20  21
ENDBRANCH  19  20
ENDBRANCH  13  19
ENDBRANCH   2  14
BRANCH   8  32
ATOM     29  F   UNL     1      33.440 -14.123 -19.663  0.00  0.00    -0.166 F 
ATOM     30  F   UNL     1      35.442 -13.334 -19.937  0.00  0.00    -0.166 F 
ATOM     31  F   UNL     1      33.714 -12.077 -20.346  0.00  0.00    -0.166 F 
ATOM     32  C   UNL     1      34.195 -13.345 -20.492  0.00  0.00    +0.416 C 
ENDBRANCH   8  32
TORSDOF 7
ENDMDL
MODEL 3
REMARK VINA RESULT:     -11.0      2.804      3.583
REMARK  Name = 11697697
REMARK  7 active torsions:
REMARK  status: ('A' for Active; 'I' for Inactive)
REMARK    1  A    between atoms: N_2  and  C_14
REMARK    2  A    between atoms: C_8  and  C_32
REMARK    3  A    between atoms: C_13  and  O_19
REMARK    4  A    between atoms: O_19  and  C_20
REMARK    5  A    between atoms: C_20  and  C_21
REMARK    6  A    between atoms: C_21  and  C_22
REMARK    7  A    between atoms: C_22  and  N_23
REMARK                            x       y       z     vdW  Elec       q    Type
REMARK                         _______ _______ _______ _____ _____    ______ ____
ROOT
ATOM      1  O   UNL     1      32.498 -12.213 -21.100  0.00  0.00    -0.273 OA
ATOM      2  N   UNL     1      33.606 -11.518 -23.059  0.00  0.00    -0.215 N 
ATOM      3  N   UNL     1      33.845  -9.188 -23.478  0.00  0.00    -0.394 NA
ATOM      4  C   UNL     1      32.663  -9.922 -21.468  0.00  0.00    +0.156 C 
ATOM      5  C   UNL     1      32.890 -11.330 -21.858  0.00  0.00    +0.245 C 
ATOM      6  C   UNL     1      34.018 -10.426 -23.827  0.00  0.00    +0.170 C 
ATOM      7  C   UNL     1      33.171  -8.911 -22.283  0.00  0.00    +0.123 C 
ATOM      8  C   UNL     1      31.971  -9.611 -20.291  0.00  0.00    +0.064 C 
ATOM      9  C   UNL     1      32.981  -7.576 -21.907  0.00  0.00    +0.028 C 
ATOM     10  C   UNL     1      31.788  -8.277 -19.927  0.00  0.00    +0.001 C 
ATOM     11  C   UNL     1      34.661 -10.645 -25.180  0.00  0.00    +0.084 C 
ATOM     12  C   UNL     1      32.293  -7.260 -20.734  0.00  0.00    +0.002 C 
ENDROOT
BRANCH   2  14
ATOM     13  C   UNL     1      34.535 -15.488 -24.129  0.00  0.00    +0.139 C 
ATOM     14  C   UNL     1      33.924 -12.871 -23.425  0.00  0.00    +0.060 C 
ATOM     15  C   UNL     1      35.157 -14.898 -23.028  0.00  0.00    +0.038 C 
ATOM     16  C   UNL     1      33.606 -14.763 -24.877  0.00  0.00    +0.038 C 
ATOM     17  C   UNL     1      34.850 -13.585 -22.674  0.00  0.00    +0.018 C 
ATOM     18  C   UNL     1      33.300 -13.450 -24.522  0.00  0.00    +0.018 C 
BRANCH  13  19
ATOM     19  O   UNL     1      34.836 -16.769 -24.475  0.00  0.00    -0.476 OA
BRANCH  19  20
ATOM     20  C   UNL     1      34.123 -17.807 -23.803  0.00  0.00    +0.203 C 
BRANCH  20  21
ATOM     21  C   UNL     1      35.112 -18.644 -23.002  0.00  0.00    +0.025 C 
BRANCH  21  22
ATOM     22  C   UNL     1      35.001 -18.362 -21.507  0.00  0.00    -0.074 C 
BRANCH  22  23
ATOM     23  N   UNL     1      34.808 -19.603 -20.771  0.00  0.00    +0.387 N 
ATOM     24  C   UNL     1      35.855 -19.831 -19.777  0.00  0.00    -0.077 C 
ATOM     25  C   UNL     1      33.556 -19.613 -20.014  0.00  0.00    -0.077 C 
ATOM     26  C   UNL     1      35.260 -20.920 -18.898  0.00  0.00    -0.025 C 
ATOM     27  C   UNL     1      33.748 -20.780 -19.055  0.00  0.00    -0.025 C 
ATOM     28  H   UNL     1      34.813 -20.322 -21.494  0.00  0.00    -0.080 HD
ENDBRANCH  22  23
ENDBRANCH  21  22
ENDBRANCH  20  21
ENDBRANCH  19  20
ENDBRANCH  13  19
ENDBRANCH   2  14
BRANCH   8  32
ATOM     29  F   UNL     1      30.416 -11.392 -19.935  0.00  0.00    -0.166 F 
ATOM     30  F   UNL     1      32.323 -11.533 -18.912  0.00  0.00    -0.166 F 
ATOM     31  F   UNL     1      30.842 -10.084 -18.252  0.00  0.00    -0.166 F 
ATOM     32  C   UNL     1      31.400 -10.637 -19.367  0.00  0.00    +0.416 C 
ENDBRANCH   8  32
TORSDOF 7
ENDMDL
MODEL 4
REMARK VINA RESULT:     -10.3      7.595     13.853
REMARK  Name = 11697697
REMARK  7 active torsions:
REMARK  status: ('A' for Active; 'I' for Inactive)
REMARK    1  A    between atoms: N_2  and  C_14
REMARK    2  A    between atoms: C_8  and  C_32
REMARK    3  A    between atoms: C_13  and  O_19
REMARK    4  A    between atoms: O_19  and  C_20
REMARK    5  A    between atoms: C_20  and  C_21
REMARK    6  A    between atoms: C_21  and  C_22
REMARK    7  A    between atoms: C_22  and  N_23
REMARK                            x       y       z     vdW  Elec       q    Type
REMARK                         _______ _______ _______ _____ _____    ______ ____
ROOT
ATOM      1  O   UNL     1      37.547 -23.266 -15.524  0.00  0.00    -0.273 OA
ATOM      2  N   UNL     1      35.288 -22.739 -15.116  0.00  0.00    -0.215 N 
ATOM      3  N   UNL     1      34.381 -23.164 -12.957  0.00  0.00    -0.394 NA
ATOM      4  C   UNL     1      36.713 -23.743 -13.405  0.00  0.00    +0.156 C 
ATOM      5  C   UNL     1      36.563 -23.249 -14.790  0.00  0.00    +0.245 C 
ATOM      6  C   UNL     1      34.249 -22.755 -14.182  0.00  0.00    +0.170 C 
ATOM      7  C   UNL     1      35.622 -23.658 -12.541  0.00  0.00    +0.123 C 
ATOM      8  C   UNL     1      37.935 -24.265 -12.963  0.00  0.00    +0.064 C 
ATOM      9  C   UNL     1      35.766 -24.101 -11.221  0.00  0.00    +0.028 C 
ATOM     10  C   UNL     1      38.065 -24.704 -11.646  0.00  0.00    +0.001 C 
ATOM     11  C   UNL     1      32.852 -22.334 -14.589  0.00  0.00    +0.084 C 
ATOM     12  C   UNL     1      36.982 -24.621 -10.775  0.00  0.00    +0.002 C 
ENDROOT
BRANCH   2  14
ATOM     13  C   UNL     1      34.822 -21.066 -18.956  0.00  0.00    +0.139 C 
ATOM     14  C   UNL     1      35.128 -22.167 -16.425  0.00  0.00    +0.060 C 
ATOM     15  C   UNL     1      35.999 -20.851 -18.240  0.00  0.00    +0.038 C 
ATOM     16  C   UNL     1      33.798 -21.834 -18.401  0.00  0.00    +0.038 C 
ATOM     17  C   UNL     1      36.153 -21.403 -16.969  0.00  0.00    +0.018 C 
ATOM     18  C   UNL     1      33.952 -22.387 -17.130  0.00  0.00    +0.018 C 
BRANCH  13  19
ATOM     19  O   UNL     1      34.671 -20.525 -20.196  0.00  0.00    -0.476 OA
BRANCH  19  20
ATOM     20  C   UNL     1      34.619 -19.102 -20.283  0.00  0.00    +0.203 C 
BRANCH  20  21
ATOM     21  C   UNL     1      34.976 -18.682 -21.702  0.00  0.00    +0.025 C 
BRANCH  21  22
ATOM     22  C   UNL     1      36.182 -17.749 -21.723  0.00  0.00    -0.074 C 
BRANCH  22  23
ATOM     23  N   UNL     1      35.922 -16.605 -22.584  0.00  0.00    +0.387 N 
ATOM     24  C   UNL     1      34.958 -16.909 -23.640  0.00  0.00    -0.077 C 
ATOM     25  C   UNL     1      35.343 -15.478 -21.853  0.00  0.00    -0.077 C 
ATOM     26  C   UNL     1      34.554 -15.530 -24.141  0.00  0.00    -0.025 C 
ATOM     27  C   UNL     1      34.809 -14.588 -22.967  0.00  0.00    -0.025 C 
ATOM     28  H   UNL     1      36.838 -16.371 -22.967  0.00  0.00    -0.080 HD
ENDBRANCH  22  23
ENDBRANCH  21  22
ENDBRANCH  20  21
ENDBRANCH  19  20
ENDBRANCH  13  19
ENDBRANCH   2  14
BRANCH   8  32
ATOM     29  F   UNL     1      39.058 -25.387 -14.752  0.00  0.00    -0.166 F 
ATOM     30  F   UNL     1      39.419 -23.259 -14.545  0.00  0.00    -0.166 F 
ATOM     31  F   UNL     1      40.278 -24.650 -13.110  0.00  0.00    -0.166 F 
ATOM     32  C   UNL     1      39.148 -24.388 -13.828  0.00  0.00    +0.416 C 
ENDBRANCH   8  32
TORSDOF 7
ENDMDL
MODEL 5
REMARK VINA RESULT:     -10.2      1.326      1.981
REMARK  Name = 11697697
REMARK  7 active torsions:
REMARK  status: ('A' for Active; 'I' for Inactive)
REMARK    1  A    between atoms: N_2  and  C_14
REMARK    2  A    between atoms: C_8  and  C_32
REMARK    3  A    between atoms: C_13  and  O_19
REMARK    4  A    between atoms: O_19  and  C_20
REMARK    5  A    between atoms: C_20  and  C_21
REMARK    6  A    between atoms: C_21  and  C_22
REMARK    7  A    between atoms: C_22  and  N_23
REMARK                            x       y       z     vdW  Elec       q    Type
REMARK                         _______ _______ _______ _____ _____    ______ ____
ROOT
ATOM      1  O   UNL     1      34.706 -10.142 -23.903  0.00  0.00    -0.273 OA
ATOM      2  N   UNL     1      33.360 -11.332 -22.380  0.00  0.00    -0.215 N 
ATOM      3  N   UNL     1      31.967 -10.114 -20.884  0.00  0.00    -0.394 NA
ATOM      4  C   UNL     1      33.398  -8.890 -22.442  0.00  0.00    +0.156 C 
ATOM      5  C   UNL     1      33.906 -10.173 -22.972  0.00  0.00    +0.245 C 
ATOM      6  C   UNL     1      32.436 -11.237 -21.336  0.00  0.00    +0.170 C 
ATOM      7  C   UNL     1      32.432  -8.916 -21.436  0.00  0.00    +0.123 C 
ATOM      8  C   UNL     1      33.861  -7.673 -22.957  0.00  0.00    +0.064 C 
ATOM      9  C   UNL     1      31.928  -7.705 -20.948  0.00  0.00    +0.028 C 
ATOM     10  C   UNL     1      33.351  -6.474 -22.462  0.00  0.00    +0.001 C 
ATOM     11  C   UNL     1      31.966 -12.485 -20.618  0.00  0.00    +0.084 C 
ATOM     12  C   UNL     1      32.385  -6.489 -21.459  0.00  0.00    +0.002 C 
ENDROOT
BRANCH   2  14
ATOM     13  C   UNL     1      34.538 -15.046 -23.988  0.00  0.00    +0.139 C 
ATOM     14  C   UNL     1      33.763 -12.598 -22.929  0.00  0.00    +0.060 C 
ATOM     15  C   UNL     1      35.116 -14.583 -22.805  0.00  0.00    +0.038 C 
ATOM     16  C   UNL     1      33.571 -14.279 -24.639  0.00  0.00    +0.038 C 
ATOM     17  C   UNL     1      34.727 -13.354 -22.274  0.00  0.00    +0.018 C 
ATOM     18  C   UNL     1      33.182 -13.050 -24.106  0.00  0.00    +0.018 C 
BRANCH  13  19
ATOM     19  O   UNL     1      34.919 -16.245 -24.507  0.00  0.00    -0.476 OA
BRANCH  19  20
ATOM     20  C   UNL     1      33.918 -17.010 -25.176  0.00  0.00    +0.203 C 
BRANCH  20  21
ATOM     21  C   UNL     1      33.734 -18.330 -24.438  0.00  0.00    +0.025 C 
BRANCH  21  22
ATOM     22  C   UNL     1      35.027 -18.780 -23.766  0.00  0.00    -0.074 C 
BRANCH  22  23
ATOM     23  N   UNL     1      35.086 -18.281 -22.400  0.00  0.00    +0.387 N 
ATOM     24  C   UNL     1      34.666 -19.281 -21.420  0.00  0.00    -0.077 C 
ATOM     25  C   UNL     1      36.444 -17.906 -22.002  0.00  0.00    -0.077 C 
ATOM     26  C   UNL     1      35.170 -18.705 -20.106  0.00  0.00    -0.025 C 
ATOM     27  C   UNL     1      36.337 -17.799 -20.488  0.00  0.00    -0.025 C 
ATOM     28  H   UNL     1      34.463 -17.474 -22.404  0.00  0.00    -0.080 HD
ENDBRANCH  22  23
ENDBRANCH  21  22
ENDBRANCH  20  21
ENDBRANCH  19  20
ENDBRANCH  13  19
ENDBRANCH   2  14
BRANCH   8  32
ATOM     29  F   UNL     1      36.157  -7.836 -23.605  0.00  0.00    -0.166 F 
ATOM     30  F   UNL     1      34.676  -8.415 -25.080  0.00  0.00    -0.166 F 
ATOM     31  F   UNL     1      34.947  -6.316 -24.580  0.00  0.00    -0.166 F 
ATOM     32  C   UNL     1      34.891  -7.564 -24.034  0.00  0.00    +0.416 C 
ENDBRANCH   8  32
TORSDOF 7
ENDMDL
MODEL 6
REMARK VINA RESULT:     -10.0      7.621     13.912
REMARK  Name = 11697697
REMARK  7 active torsions:
REMARK  status: ('A' for Active; 'I' for Inactive)
REMARK    1  A    between atoms: N_2  and  C_14
REMARK    2  A    between atoms: C_8  and  C_32
REMARK    3  A    between atoms: C_13  and  O_19
REMARK    4  A    between atoms: O_19  and  C_20
REMARK    5  A    between atoms: C_20  and  C_21
REMARK    6  A    between atoms: C_21  and  C_22
REMARK    7  A    between atoms: C_22  and  N_23
REMARK                            x       y       z     vdW  Elec       q    Type
REMARK                         _______ _______ _______ _____ _____    ______ ____
ROOT
ATOM      1  O   UNL     1      37.630 -23.250 -15.493  0.00  0.00    -0.273 OA
ATOM      2  N   UNL     1      35.363 -22.755 -15.089  0.00  0.00    -0.215 N 
ATOM      3  N   UNL     1      34.451 -23.220 -12.941  0.00  0.00    -0.394 NA
ATOM      4  C   UNL     1      36.792 -23.767 -13.385  0.00  0.00    +0.156 C 
ATOM      5  C   UNL     1      36.642 -23.255 -14.763  0.00  0.00    +0.245 C 
ATOM      6  C   UNL     1      34.320 -22.796 -14.160  0.00  0.00    +0.170 C 
ATOM      7  C   UNL     1      35.696 -23.705 -12.525  0.00  0.00    +0.123 C 
ATOM      8  C   UNL     1      38.018 -24.281 -12.944  0.00  0.00    +0.064 C 
ATOM      9  C   UNL     1      35.839 -24.165 -11.210  0.00  0.00    +0.028 C 
ATOM     10  C   UNL     1      38.147 -24.736 -11.633  0.00  0.00    +0.001 C 
ATOM     11  C   UNL     1      32.920 -22.385 -14.568  0.00  0.00    +0.084 C 
ATOM     12  C   UNL     1      37.058 -24.677 -10.766  0.00  0.00    +0.002 C 
ENDROOT
BRANCH   2  14
ATOM     13  C   UNL     1      34.893 -21.028 -18.905  0.00  0.00    +0.139 C 
ATOM     14  C   UNL     1      35.203 -22.167 -16.390  0.00  0.00    +0.060 C 
ATOM     15  C   UNL     1      33.852 -21.765 -18.339  0.00  0.00    +0.038 C 
ATOM     16  C   UNL     1      36.091 -20.864 -18.208  0.00  0.00    +0.038 C 
ATOM     17  C   UNL     1      34.008 -22.336 -17.077  0.00  0.00    +0.018 C 
ATOM     18  C   UNL     1      36.246 -21.436 -16.946  0.00  0.00    +0.018 C 
BRANCH  13  19
ATOM     19  O   UNL     1      34.741 -20.471 -20.138  0.00  0.00    -0.476 OA
BRANCH  19  20
ATOM     20  C   UNL     1      35.687 -19.473 -20.520  0.00  0.00    +0.203 C 
BRANCH  20  21
ATOM     21  C   UNL     1      34.935 -18.264 -21.059  0.00  0.00    +0.025 C 
BRANCH  21  22
ATOM     22  C   UNL     1      35.748 -16.983 -20.899  0.00  0.00    -0.074 C 
BRANCH  22  23
ATOM     23  N   UNL     1      34.909 -15.818 -21.141  0.00  0.00    +0.387 N 
ATOM     24  C   UNL     1      34.957 -14.856 -20.042  0.00  0.00    -0.077 C 
ATOM     25  C   UNL     1      35.329 -15.065 -22.323  0.00  0.00    -0.077 C 
ATOM     26  C   UNL     1      34.359 -13.601 -20.658  0.00  0.00    -0.025 C 
ATOM     27  C   UNL     1      34.600 -13.740 -22.159  0.00  0.00    -0.025 C 
ATOM     28  H   UNL     1      33.974 -16.207 -21.259  0.00  0.00    -0.080 HD
ENDBRANCH  22  23
ENDBRANCH  21  22
ENDBRANCH  20  21
ENDBRANCH  19  20
ENDBRANCH  13  19
ENDBRANCH   2  14
BRANCH   8  32
ATOM     29  F   UNL     1      39.172 -25.381 -14.727  0.00  0.00    -0.166 F 
ATOM     30  F   UNL     1      39.484 -23.244 -14.524  0.00  0.00    -0.166 F 
ATOM     31  F   UNL     1      40.369 -24.613 -13.083  0.00  0.00    -0.166 F 
ATOM     32  C   UNL     1      39.236 -24.377 -13.805  0.00  0.00    +0.416 C 
ENDBRANCH   8  32
TORSDOF 7
ENDMDL
MODEL 7
REMARK VINA RESULT:     -10.0      6.785     12.887
REMARK  Name = 11697697
REMARK  7 active torsions:
REMARK  status: ('A' for Active; 'I' for Inactive)
REMARK    1  A    between atoms: N_2  and  C_14
REMARK    2  A    between atoms: C_8  and  C_32
REMARK    3  A    between atoms: C_13  and  O_19
REMARK    4  A    between atoms: O_19  and  C_20
REMARK    5  A    between atoms: C_20  and  C_21
REMARK    6  A    between atoms: C_21  and  C_22
REMARK    7  A    between atoms: C_22  and  N_23
REMARK                            x       y       z     vdW  Elec       q    Type
REMARK                         _______ _______ _______ _____ _____    ______ ____
ROOT
ATOM      1  O   UNL     1      31.375 -21.897 -16.999  0.00  0.00    -0.273 OA
ATOM      2  N   UNL     1      33.655 -22.130 -16.458  0.00  0.00    -0.215 N 
ATOM      3  N   UNL     1      34.253 -23.351 -14.505  0.00  0.00    -0.394 NA
ATOM      4  C   UNL     1      31.889 -23.068 -15.055  0.00  0.00    +0.156 C 
ATOM      5  C   UNL     1      32.268 -22.291 -16.254  0.00  0.00    +0.245 C 
ATOM      6  C   UNL     1      34.579 -22.646 -15.545  0.00  0.00    +0.170 C 
ATOM      7  C   UNL     1      32.899 -23.585 -14.244  0.00  0.00    +0.123 C 
ATOM      8  C   UNL     1      30.541 -23.300 -14.753  0.00  0.00    +0.064 C 
ATOM      9  C   UNL     1      32.546 -24.342 -13.121  0.00  0.00    +0.028 C 
ATOM     10  C   UNL     1      30.203 -24.056 -13.631  0.00  0.00    +0.001 C 
ATOM     11  C   UNL     1      36.055 -22.347 -15.703  0.00  0.00    +0.084 C 
ATOM     12  C   UNL     1      31.205 -24.578 -12.816  0.00  0.00    +0.002 C 
ENDROOT
BRANCH   2  14
ATOM     13  C   UNL     1      34.857 -20.162 -19.986  0.00  0.00    +0.139 C 
ATOM     14  C   UNL     1      34.065 -21.458 -17.660  0.00  0.00    +0.060 C 
ATOM     15  C   UNL     1      35.809 -20.767 -19.166  0.00  0.00    +0.038 C 
ATOM     16  C   UNL     1      33.506 -20.207 -19.638  0.00  0.00    +0.038 C 
ATOM     17  C   UNL     1      35.412 -21.418 -17.999  0.00  0.00    +0.018 C 
ATOM     18  C   UNL     1      33.109 -20.858 -18.470  0.00  0.00    +0.018 C 
BRANCH  13  19
ATOM     19  O   UNL     1      35.244 -19.526 -21.125  0.00  0.00    -0.476 OA
BRANCH  19  20
ATOM     20  C   UNL     1      35.841 -18.238 -20.979  0.00  0.00    +0.203 C 
BRANCH  20  21
ATOM     21  C   UNL     1      35.717 -17.485 -22.297  0.00  0.00    +0.025 C 
BRANCH  21  22
ATOM     22  C   UNL     1      35.679 -15.976 -22.078  0.00  0.00    -0.074 C 
BRANCH  22  23
ATOM     23  N   UNL     1      35.257 -15.299 -23.296  0.00  0.00    +0.387 N 
ATOM     24  C   UNL     1      34.612 -16.205 -24.244  0.00  0.00    -0.077 C 
ATOM     25  C   UNL     1      34.267 -14.253 -23.037  0.00  0.00    -0.077 C 
ATOM     26  C   UNL     1      33.926 -15.255 -25.213  0.00  0.00    -0.025 C 
ATOM     27  C   UNL     1      33.702 -13.969 -24.421  0.00  0.00    -0.025 C 
ATOM     28  H   UNL     1      36.120 -14.911 -23.675  0.00  0.00    -0.080 HD
ENDBRANCH  22  23
ENDBRANCH  21  22
ENDBRANCH  20  21
ENDBRANCH  19  20
ENDBRANCH  13  19
ENDBRANCH   2  14
BRANCH   8  32
ATOM     29  F   UNL     1      29.437 -21.430 -15.755  0.00  0.00    -0.166 F 
ATOM     30  F   UNL     1      29.355 -23.312 -16.830  0.00  0.00    -0.166 F 
ATOM     31  F   UNL     1      28.190 -23.048 -15.012  0.00  0.00    -0.166 F 
ATOM     32  C   UNL     1      29.405 -22.782 -15.573  0.00  0.00    +0.416 C 
ENDBRANCH   8  32
TORSDOF 7
ENDMDL
MODEL 8
REMARK VINA RESULT:      -9.6      8.665     12.025
REMARK  Name = 11697697
REMARK  7 active torsions:
REMARK  status: ('A' for Active; 'I' for Inactive)
REMARK    1  A    between atoms: N_2  and  C_14
REMARK    2  A    between atoms: C_8  and  C_32
REMARK    3  A    between atoms: C_13  and  O_19
REMARK    4  A    between atoms: O_19  and  C_20
REMARK    5  A    between atoms: C_20  and  C_21
REMARK    6  A    between atoms: C_21  and  C_22
REMARK    7  A    between atoms: C_22  and  N_23
REMARK                            x       y       z     vdW  Elec       q    Type
REMARK                         _______ _______ _______ _____ _____    ______ ____
ROOT
ATOM      1  O   UNL     1      36.430 -21.446 -17.322  0.00  0.00    -0.273 OA
ATOM      2  N   UNL     1      34.251 -22.064 -16.675  0.00  0.00    -0.215 N 
ATOM      3  N   UNL     1      32.416 -21.386 -18.029  0.00  0.00    -0.394 NA
ATOM      4  C   UNL     1      34.678 -20.717 -18.668  0.00  0.00    +0.156 C 
ATOM      5  C   UNL     1      35.213 -21.422 -17.485  0.00  0.00    +0.245 C 
ATOM      6  C   UNL     1      32.890 -21.981 -16.978  0.00  0.00    +0.170 C 
ATOM      7  C   UNL     1      33.304 -20.750 -18.903  0.00  0.00    +0.123 C 
ATOM      8  C   UNL     1      35.538 -20.051 -19.550  0.00  0.00    +0.064 C 
ATOM      9  C   UNL     1      32.793 -20.106 -20.036  0.00  0.00    +0.028 C 
ATOM     10  C   UNL     1      35.017 -19.413 -20.675  0.00  0.00    +0.001 C 
ATOM     11  C   UNL     1      31.861 -22.555 -16.025  0.00  0.00    +0.084 C 
ATOM     12  C   UNL     1      33.646 -19.441 -20.919  0.00  0.00    +0.002 C 
ENDROOT
BRANCH   2  14
ATOM     13  C   UNL     1      35.684 -24.323 -13.418  0.00  0.00    +0.139 C 
ATOM     14  C   UNL     1      34.741 -22.833 -15.565  0.00  0.00    +0.060 C 
ATOM     15  C   UNL     1      35.320 -22.988 -13.235  0.00  0.00    +0.038 C 
ATOM     16  C   UNL     1      35.574 -24.910 -14.679  0.00  0.00    +0.038 C 
ATOM     17  C   UNL     1      34.847 -22.241 -14.313  0.00  0.00    +0.018 C 
ATOM     18  C   UNL     1      35.100 -24.161 -15.756  0.00  0.00    +0.018 C 
BRANCH  13  19
ATOM     19  O   UNL     1      36.147 -25.053 -12.366  0.00  0.00    -0.476 OA
BRANCH  19  20
ATOM     20  C   UNL     1      36.449 -24.343 -11.166  0.00  0.00    +0.203 C 
BRANCH  20  21
ATOM     21  C   UNL     1      37.947 -24.429 -10.908  0.00  0.00    +0.025 C 
BRANCH  21  22
ATOM     22  C   UNL     1      38.732 -23.537 -11.865  0.00  0.00    -0.074 C 
BRANCH  22  23
ATOM     23  N   UNL     1      39.022 -24.252 -13.099  0.00  0.00    +0.387 N 
ATOM     24  C   UNL     1      38.865 -23.409 -14.283  0.00  0.00    -0.077 C 
ATOM     25  C   UNL     1      40.404 -24.731 -13.154  0.00  0.00    -0.077 C 
ATOM     26  C   UNL     1      39.575 -24.205 -15.367  0.00  0.00    -0.025 C 
ATOM     27  C   UNL     1      40.585 -25.077 -14.625  0.00  0.00    -0.025 C 
ATOM     28  H   UNL     1      38.358 -25.026 -13.098  0.00  0.00    -0.080 HD
ENDBRANCH  22  23
ENDBRANCH  21  22
ENDBRANCH  20  21
ENDBRANCH  19  20
ENDBRANCH  13  19
ENDBRANCH   2  14
BRANCH   8  32
ATOM     29  F   UNL     1      37.393 -19.593 -18.112  0.00  0.00    -0.166 F 
ATOM     30  F   UNL     1      37.656 -21.160 -19.588  0.00  0.00    -0.166 F 
ATOM     31  F   UNL     1      37.604 -19.078 -20.213  0.00  0.00    -0.166 F 
ATOM     32  C   UNL     1      37.019 -19.973 -19.368  0.00  0.00    +0.416 C 
ENDBRANCH   8  32
TORSDOF 7
ENDMDL
MODEL 9
REMARK VINA RESULT:      -9.4      2.392      3.891
REMARK  Name = 11697697
REMARK  7 active torsions:
REMARK  status: ('A' for Active; 'I' for Inactive)
REMARK    1  A    between atoms: N_2  and  C_14
REMARK    2  A    between atoms: C_8  and  C_32
REMARK    3  A    between atoms: C_13  and  O_19
REMARK    4  A    between atoms: O_19  and  C_20
REMARK    5  A    between atoms: C_20  and  C_21
REMARK    6  A    between atoms: C_21  and  C_22
REMARK    7  A    between atoms: C_22  and  N_23
REMARK                            x       y       z     vdW  Elec       q    Type
REMARK                         _______ _______ _______ _____ _____    ______ ____
ROOT
ATOM      1  O   UNL     1      32.739  -7.795 -23.669  0.00  0.00    -0.273 OA
ATOM      2  N   UNL     1      32.643  -8.585 -21.452  0.00  0.00    -0.215 N 
ATOM      3  N   UNL     1      32.144  -7.048 -19.705  0.00  0.00    -0.394 NA
ATOM      4  C   UNL     1      32.286  -6.232 -22.005  0.00  0.00    +0.156 C 
ATOM      5  C   UNL     1      32.598  -7.602 -22.464  0.00  0.00    +0.245 C 
ATOM      6  C   UNL     1      32.444  -8.243 -20.111  0.00  0.00    +0.170 C 
ATOM      7  C   UNL     1      32.048  -6.018 -20.648  0.00  0.00    +0.123 C 
ATOM      8  C   UNL     1      32.205  -5.175 -22.920  0.00  0.00    +0.064 C 
ATOM      9  C   UNL     1      31.726  -4.728 -20.211  0.00  0.00    +0.028 C 
ATOM     10  C   UNL     1      31.885  -3.895 -22.472  0.00  0.00    +0.001 C 
ATOM     11  C   UNL     1      32.633  -9.281 -19.025  0.00  0.00    +0.084 C 
ATOM     12  C   UNL     1      31.644  -3.671 -21.118  0.00  0.00    +0.002 C 
ENDROOT
BRANCH   2  14
ATOM     13  C   UNL     1      33.266 -12.569 -22.679  0.00  0.00    +0.139 C 
ATOM     14  C   UNL     1      32.856  -9.943 -21.869  0.00  0.00    +0.060 C 
ATOM     15  C   UNL     1      32.263 -12.272 -21.756  0.00  0.00    +0.038 C 
ATOM     16  C   UNL     1      34.064 -11.547 -23.196  0.00  0.00    +0.038 C 
ATOM     17  C   UNL     1      32.058 -10.954 -21.349  0.00  0.00    +0.018 C 
ATOM     18  C   UNL     1      33.857 -10.229 -22.789  0.00  0.00    +0.018 C 
BRANCH  13  19
ATOM     19  O   UNL     1      33.467 -13.855 -23.075  0.00  0.00    -0.476 OA
BRANCH  19  20
ATOM     20  C   UNL     1      33.473 -14.109 -24.479  0.00  0.00    +0.203 C 
BRANCH  20  21
ATOM     21  C   UNL     1      34.173 -15.437 -24.736  0.00  0.00    +0.025 C 
BRANCH  21  22
ATOM     22  C   UNL     1      35.310 -15.670 -23.747  0.00  0.00    -0.074 C 
BRANCH  22  23
ATOM     23  N   UNL     1      34.896 -16.605 -22.711  0.00  0.00    +0.387 N 
ATOM     24  C   UNL     1      34.878 -17.989 -23.183  0.00  0.00    -0.077 C 
ATOM     25  C   UNL     1      35.806 -16.606 -21.566  0.00  0.00    -0.077 C 
ATOM     26  C   UNL     1      34.813 -18.789 -21.891  0.00  0.00    -0.025 C 
ATOM     27  C   UNL     1      35.420 -17.880 -20.826  0.00  0.00    -0.025 C 
ATOM     28  H   UNL     1      33.964 -16.286 -22.448  0.00  0.00    -0.080 HD
ENDBRANCH  22  23
ENDBRANCH  21  22
ENDBRANCH  20  21
ENDBRANCH  19  20
ENDBRANCH  13  19
ENDBRANCH   2  14
BRANCH   8  32
ATOM     29  F   UNL     1      33.685  -5.808 -24.689  0.00  0.00    -0.166 F 
ATOM     30  F   UNL     1      31.570  -6.179 -24.995  0.00  0.00    -0.166 F 
ATOM     31  F   UNL     1      32.335  -4.144 -25.059  0.00  0.00    -0.166 F 
ATOM     32  C   UNL     1      32.444  -5.326 -24.387  0.00  0.00    +0.416 C 
ENDBRANCH   8  32
TORSDOF 7
ENDMDL
