MODEL 1
REMARK VINA RESULT:     -11.4      0.000      0.000
REMARK  Name = 11314340
REMARK  7 active torsions:
REMARK  status: ('A' for Active; 'I' for Inactive)
REMARK    1  A    between atoms: C_2  and  C_10
REMARK    2  A    between atoms: C_3  and  O_18
REMARK    3  A    between atoms: O_18  and  C_19
REMARK    4  A    between atoms: C_19  and  C_20
REMARK    5  A    between atoms: C_20  and  N_21
REMARK    6  A    between atoms: C_20  and  C_25
REMARK    7  A    between atoms: C_25  and  C_26
REMARK                            x       y       z     vdW  Elec       q    Type
REMARK                         _______ _______ _______ _____ _____    ______ ____
ROOT
ATOM      1  N   UNL     1      31.690 -22.737 -14.857  0.00  0.00    -0.239 NA
ATOM      2  C   UNL     1      34.100 -22.766 -14.936  0.00  0.00    +0.022 C 
ATOM      3  C   UNL     1      32.855 -22.235 -16.915  0.00  0.00    +0.158 C 
ATOM      4  C   UNL     1      34.077 -22.423 -16.279  0.00  0.00    +0.040 C 
ATOM      5  C   UNL     1      32.897 -22.911 -14.272  0.00  0.00    +0.099 C 
ATOM      6  C   UNL     1      31.701 -22.403 -16.167  0.00  0.00    +0.136 C 
ENDROOT
BRANCH   2  10
ATOM      7  N   UNL     1      38.283 -23.630 -11.012  0.00  0.00    -0.280 N 
ATOM      8  N   UNL     1      38.866 -23.550 -12.225  0.00  0.00    -0.173 NA
ATOM      9  C   UNL     1      36.608 -23.313 -12.337  0.00  0.00    +0.032 A 
ATOM     10  C   UNL     1      35.360 -22.970 -14.243  0.00  0.00    +0.002 C 
ATOM     11  C   UNL     1      37.846 -23.351 -13.079  0.00  0.00    +0.102 A 
ATOM     12  C   UNL     1      35.329 -23.127 -12.844  0.00  0.00    +0.003 C 
ATOM     13  C   UNL     1      36.926 -23.494 -11.021  0.00  0.00    +0.053 A 
ATOM     14  C   UNL     1      36.558 -23.001 -15.024  0.00  0.00    +0.002 C 
ATOM     15  C   UNL     1      37.847 -23.191 -14.477  0.00  0.00    +0.021 C 
ATOM     16  C   UNL     1      36.127 -23.557  -9.785  0.00  0.00    +0.051 C 
ATOM     17  H   UNL     1      38.798 -23.776 -10.185  0.00  0.00    +0.189 HD
ENDBRANCH   2  10
BRANCH   3  18
ATOM     18  O   UNL     1      32.795 -21.897 -18.227  0.00  0.00    -0.476 OA
BRANCH  18  19
ATOM     19  C   UNL     1      34.035 -21.719 -18.914  0.00  0.00    +0.184 C 
BRANCH  19  20
ATOM     20  C   UNL     1      33.937 -20.543 -19.892  0.00  0.00    -0.017 C 
BRANCH  20  21
ATOM     21  N   UNL     1      32.712 -19.795 -19.594  0.00  0.00    +0.384 N 
ATOM     22  H   UNL     1      32.954 -18.860 -19.268  0.00  0.00    -0.089 HD
ATOM     23  H   UNL     1      32.184 -20.283 -18.869  0.00  0.00    -0.089 HD
ATOM     24  H   UNL     1      32.142 -19.725 -20.438  0.00  0.00    -0.089 HD
ENDBRANCH  20  21
BRANCH  20  25
ATOM     25  C   UNL     1      35.131 -19.570 -19.796  0.00  0.00    +0.008 C 
BRANCH  25  26
ATOM     26  C   UNL     1      35.167 -18.509 -20.869  0.00  0.00    -0.024 C 
ATOM     27  C   UNL     1      35.475 -17.202 -20.523  0.00  0.00    -0.004 C 
ATOM     28  C   UNL     1      34.893 -18.860 -22.182  0.00  0.00    -0.004 C 
ATOM     29  C   UNL     1      35.509 -16.222 -21.513  0.00  0.00    -0.000 C 
ATOM     30  C   UNL     1      34.927 -17.879 -23.173  0.00  0.00    -0.000 C 
ATOM     31  C   UNL     1      35.234 -16.560 -22.839  0.00  0.00    -0.000 C 
ENDBRANCH  25  26
ENDBRANCH  20  25
ENDBRANCH  19  20
ENDBRANCH  18  19
ENDBRANCH   3  18
TORSDOF 7
ENDMDL
MODEL 2
REMARK VINA RESULT:     -11.3      5.209     11.992
REMARK  Name = 11314340
REMARK  7 active torsions:
REMARK  status: ('A' for Active; 'I' for Inactive)
REMARK    1  A    between atoms: C_2  and  C_10
REMARK    2  A    between atoms: C_3  and  O_18
REMARK    3  A    between atoms: O_18  and  C_19
REMARK    4  A    between atoms: C_19  and  C_20
REMARK    5  A    between atoms: C_20  and  N_21
REMARK    6  A    between atoms: C_20  and  C_25
REMARK    7  A    between atoms: C_25  and  C_26
REMARK                            x       y       z     vdW  Elec       q    Type
REMARK                         _______ _______ _______ _____ _____    ______ ____
ROOT
ATOM      1  N   UNL     1      34.085 -15.244 -25.387  0.00  0.00    -0.239 NA
ATOM      2  C   UNL     1      34.090 -13.575 -23.646  0.00  0.00    +0.022 C 
ATOM      3  C   UNL     1      35.212 -15.664 -23.291  0.00  0.00    +0.158 C 
ATOM      4  C   UNL     1      34.838 -14.408 -22.828  0.00  0.00    +0.040 C 
ATOM      5  C   UNL     1      33.740 -14.029 -24.903  0.00  0.00    +0.099 C 
ATOM      6  C   UNL     1      34.814 -16.032 -24.565  0.00  0.00    +0.136 C 
ENDROOT
BRANCH   2  10
ATOM      7  N   UNL     1      31.816  -9.066 -20.794  0.00  0.00    -0.280 N 
ATOM      8  N   UNL     1      32.499  -8.583 -21.851  0.00  0.00    -0.173 NA
ATOM      9  C   UNL     1      32.587 -10.851 -21.732  0.00  0.00    +0.032 A 
ATOM     10  C   UNL     1      33.683 -12.258 -23.192  0.00  0.00    +0.002 C 
ATOM     11  C   UNL     1      32.995  -9.674 -22.462  0.00  0.00    +0.102 A 
ATOM     12  C   UNL     1      32.888 -12.173 -22.032  0.00  0.00    +0.003 C 
ATOM     13  C   UNL     1      31.836 -10.425 -20.674  0.00  0.00    +0.053 A 
ATOM     14  C   UNL     1      34.114 -11.123 -23.950  0.00  0.00    +0.002 C 
ATOM     15  C   UNL     1      33.789  -9.789 -23.618  0.00  0.00    +0.021 C 
ATOM     16  C   UNL     1      31.143 -11.121 -19.577  0.00  0.00    +0.051 C 
ATOM     17  H   UNL     1      31.341  -8.483 -20.159  0.00  0.00    +0.189 HD
ENDBRANCH   2  10
BRANCH   3  18
ATOM     18  O   UNL     1      35.945 -16.503 -22.516  0.00  0.00    -0.476 OA
BRANCH  18  19
ATOM     19  C   UNL     1      35.561 -17.879 -22.495  0.00  0.00    +0.184 C 
BRANCH  19  20
ATOM     20  C   UNL     1      35.544 -18.404 -21.055  0.00  0.00    -0.017 C 
BRANCH  20  21
ATOM     21  N   UNL     1      35.664 -17.262 -20.145  0.00  0.00    +0.384 N 
ATOM     22  H   UNL     1      36.629 -16.931 -20.138  0.00  0.00    -0.089 HD
ATOM     23  H   UNL     1      35.395 -17.548 -19.203  0.00  0.00    -0.089 HD
ATOM     24  H   UNL     1      35.050 -16.510 -20.460  0.00  0.00    -0.089 HD
ENDBRANCH  20  21
BRANCH  20  25
ATOM     25  C   UNL     1      34.251 -19.169 -20.701  0.00  0.00    +0.008 C 
BRANCH  25  26
ATOM     26  C   UNL     1      34.390 -20.145 -19.558  0.00  0.00    -0.024 C 
ATOM     27  C   UNL     1      33.251 -20.714 -19.009  0.00  0.00    -0.004 C 
ATOM     28  C   UNL     1      35.653 -20.455 -19.078  0.00  0.00    -0.004 C 
ATOM     29  C   UNL     1      33.379 -21.616 -17.953  0.00  0.00    -0.000 C 
ATOM     30  C   UNL     1      35.780 -21.357 -18.021  0.00  0.00    -0.000 C 
ATOM     31  C   UNL     1      34.644 -21.937 -17.458  0.00  0.00    -0.000 C 
ENDBRANCH  25  26
ENDBRANCH  20  25
ENDBRANCH  19  20
ENDBRANCH  18  19
ENDBRANCH   3  18
TORSDOF 7
ENDMDL
MODEL 3
REMARK VINA RESULT:     -11.3      5.505      8.777
REMARK  Name = 11314340
REMARK  7 active torsions:
REMARK  status: ('A' for Active; 'I' for Inactive)
REMARK    1  A    between atoms: C_2  and  C_10
REMARK    2  A    between atoms: C_3  and  O_18
REMARK    3  A    between atoms: O_18  and  C_19
REMARK    4  A    between atoms: C_19  and  C_20
REMARK    5  A    between atoms: C_20  and  N_21
REMARK    6  A    between atoms: C_20  and  C_25
REMARK    7  A    between atoms: C_25  and  C_26
REMARK                            x       y       z     vdW  Elec       q    Type
REMARK                         _______ _______ _______ _____ _____    ______ ____
ROOT
ATOM      1  N   UNL     1      33.204 -17.763 -25.211  0.00  0.00    -0.239 NA
ATOM      2  C   UNL     1      34.650 -17.508 -23.298  0.00  0.00    +0.022 C 
ATOM      3  C   UNL     1      34.223 -15.627 -24.722  0.00  0.00    +0.158 C 
ATOM      4  C   UNL     1      34.850 -16.171 -23.607  0.00  0.00    +0.040 C 
ATOM      5  C   UNL     1      33.829 -18.258 -24.119  0.00  0.00    +0.099 C 
ATOM      6  C   UNL     1      33.418 -16.457 -25.485  0.00  0.00    +0.136 C 
ENDROOT
BRANCH   2  10
ATOM      7  N   UNL     1      35.921 -20.509 -18.501  0.00  0.00    -0.280 N 
ATOM      8  N   UNL     1      37.026 -19.831 -18.868  0.00  0.00    -0.173 NA
ATOM      9  C   UNL     1      35.283 -19.462 -20.277  0.00  0.00    +0.032 A 
ATOM     10  C   UNL     1      35.291 -18.107 -22.142  0.00  0.00    +0.002 C 
ATOM     11  C   UNL     1      36.663 -19.163 -19.977  0.00  0.00    +0.102 A 
ATOM     12  C   UNL     1      34.528 -18.975 -21.336  0.00  0.00    +0.003 C 
ATOM     13  C   UNL     1      34.841 -20.324 -19.314  0.00  0.00    +0.053 A 
ATOM     14  C   UNL     1      36.661 -17.780 -21.888  0.00  0.00    +0.002 C 
ATOM     15  C   UNL     1      37.401 -18.292 -20.799  0.00  0.00    +0.021 C 
ATOM     16  C   UNL     1      33.552 -20.989 -19.063  0.00  0.00    +0.051 C 
ATOM     17  H   UNL     1      35.896 -21.093 -17.709  0.00  0.00    +0.189 HD
ENDBRANCH   2  10
BRANCH   3  18
ATOM     18  O   UNL     1      34.395 -14.322 -25.052  0.00  0.00    -0.476 OA
BRANCH  18  19
ATOM     19  C   UNL     1      33.437 -13.388 -24.551  0.00  0.00    +0.184 C 
BRANCH  19  20
ATOM     20  C   UNL     1      34.146 -12.149 -23.992  0.00  0.00    -0.017 C 
BRANCH  20  21
ATOM     21  N   UNL     1      34.027 -11.066 -24.972  0.00  0.00    +0.384 N 
ATOM     22  H   UNL     1      34.831 -10.444 -24.893  0.00  0.00    -0.089 HD
ATOM     23  H   UNL     1      33.171 -10.539 -24.795  0.00  0.00    -0.089 HD
ATOM     24  H   UNL     1      33.994 -11.461 -25.913  0.00  0.00    -0.089 HD
ENDBRANCH  20  21
BRANCH  20  25
ATOM     25  C   UNL     1      33.548 -11.658 -22.656  0.00  0.00    +0.008 C 
BRANCH  25  26
ATOM     26  C   UNL     1      33.558 -12.683 -21.548  0.00  0.00    -0.024 C 
ATOM     27  C   UNL     1      32.441 -12.817 -20.737  0.00  0.00    -0.004 C 
ATOM     28  C   UNL     1      34.682 -13.472 -21.360  0.00  0.00    -0.004 C 
ATOM     29  C   UNL     1      32.449 -13.764 -19.713  0.00  0.00    -0.000 C 
ATOM     30  C   UNL     1      34.689 -14.419 -20.336  0.00  0.00    -0.000 C 
ATOM     31  C   UNL     1      33.574 -14.565 -19.512  0.00  0.00    -0.000 C 
ENDBRANCH  25  26
ENDBRANCH  20  25
ENDBRANCH  19  20
ENDBRANCH  18  19
ENDBRANCH   3  18
TORSDOF 7
ENDMDL
MODEL 4
REMARK VINA RESULT:     -11.0      5.330      9.280
REMARK  Name = 11314340
REMARK  7 active torsions:
REMARK  status: ('A' for Active; 'I' for Inactive)
REMARK    1  A    between atoms: C_2  and  C_10
REMARK    2  A    between atoms: C_3  and  O_18
REMARK    3  A    between atoms: O_18  and  C_19
REMARK    4  A    between atoms: C_19  and  C_20
REMARK    5  A    between atoms: C_20  and  N_21
REMARK    6  A    between atoms: C_20  and  C_25
REMARK    7  A    between atoms: C_25  and  C_26
REMARK                            x       y       z     vdW  Elec       q    Type
REMARK                         _______ _______ _______ _____ _____    ______ ____
ROOT
ATOM      1  N   UNL     1      33.731 -17.693 -25.067  0.00  0.00    -0.239 NA
ATOM      2  C   UNL     1      34.887 -17.572 -22.954  0.00  0.00    +0.022 C 
ATOM      3  C   UNL     1      34.451 -15.561 -24.186  0.00  0.00    +0.158 C 
ATOM      4  C   UNL     1      34.984 -16.193 -23.068  0.00  0.00    +0.040 C 
ATOM      5  C   UNL     1      34.260 -18.273 -23.966  0.00  0.00    +0.099 C 
ATOM      6  C   UNL     1      33.841 -16.348 -25.148  0.00  0.00    +0.136 C 
ENDROOT
BRANCH   2  10
ATOM      7  N   UNL     1      35.736 -20.847 -18.244  0.00  0.00    -0.280 N 
ATOM      8  N   UNL     1      36.902 -20.238 -18.538  0.00  0.00    -0.173 NA
ATOM      9  C   UNL     1      35.250 -19.685 -19.997  0.00  0.00    +0.032 A 
ATOM     10  C   UNL     1      35.434 -18.261 -21.800  0.00  0.00    +0.002 C 
ATOM     11  C   UNL     1      36.634 -19.502 -19.631  0.00  0.00    +0.102 A 
ATOM     12  C   UNL     1      34.577 -19.102 -21.063  0.00  0.00    +0.003 C 
ATOM     13  C   UNL     1      34.707 -20.550 -19.090  0.00  0.00    +0.053 A 
ATOM     14  C   UNL     1      36.812 -18.047 -21.480  0.00  0.00    +0.002 C 
ATOM     15  C   UNL     1      37.467 -18.656 -20.386  0.00  0.00    +0.021 C 
ATOM     16  C   UNL     1      33.364 -21.127 -18.917  0.00  0.00    +0.051 C 
ATOM     17  H   UNL     1      35.635 -21.459 -17.479  0.00  0.00    +0.189 HD
ENDBRANCH   2  10
BRANCH   3  18
ATOM     18  O   UNL     1      34.527 -14.214 -24.329  0.00  0.00    -0.476 OA
BRANCH  18  19
ATOM     19  C   UNL     1      33.361 -13.454 -24.004  0.00  0.00    +0.184 C 
BRANCH  19  20
ATOM     20  C   UNL     1      33.750 -12.186 -23.236  0.00  0.00    -0.017 C 
BRANCH  20  21
ATOM     21  N   UNL     1      34.790 -12.535 -22.264  0.00  0.00    +0.384 N 
ATOM     22  H   UNL     1      34.903 -13.548 -22.235  0.00  0.00    -0.089 HD
ATOM     23  H   UNL     1      34.520 -12.196 -21.340  0.00  0.00    -0.089 HD
ATOM     24  H   UNL     1      35.673 -12.102 -22.539  0.00  0.00    -0.089 HD
ENDBRANCH  20  21
BRANCH  20  25
ATOM     25  C   UNL     1      34.298 -11.067 -24.146  0.00  0.00    +0.008 C 
BRANCH  25  26
ATOM     26  C   UNL     1      34.292  -9.691 -23.526  0.00  0.00    -0.024 C 
ATOM     27  C   UNL     1      35.373  -8.847 -23.732  0.00  0.00    -0.004 C 
ATOM     28  C   UNL     1      33.206  -9.294 -22.761  0.00  0.00    -0.004 C 
ATOM     29  C   UNL     1      35.368  -7.576 -23.159  0.00  0.00    -0.000 C 
ATOM     30  C   UNL     1      33.202  -8.022 -22.188  0.00  0.00    -0.000 C 
ATOM     31  C   UNL     1      34.282  -7.163 -22.386  0.00  0.00    -0.000 C 
ENDBRANCH  25  26
ENDBRANCH  20  25
ENDBRANCH  19  20
ENDBRANCH  18  19
ENDBRANCH   3  18
TORSDOF 7
ENDMDL
MODEL 5
REMARK VINA RESULT:     -11.0      5.519      9.231
REMARK  Name = 11314340
REMARK  7 active torsions:
REMARK  status: ('A' for Active; 'I' for Inactive)
REMARK    1  A    between atoms: C_2  and  C_10
REMARK    2  A    between atoms: C_3  and  O_18
REMARK    3  A    between atoms: O_18  and  C_19
REMARK    4  A    between atoms: C_19  and  C_20
REMARK    5  A    between atoms: C_20  and  N_21
REMARK    6  A    between atoms: C_20  and  C_25
REMARK    7  A    between atoms: C_25  and  C_26
REMARK                            x       y       z     vdW  Elec       q    Type
REMARK                         _______ _______ _______ _____ _____    ______ ____
ROOT
ATOM      1  N   UNL     1      33.929 -17.063 -25.110  0.00  0.00    -0.239 NA
ATOM      2  C   UNL     1      34.943 -17.171 -22.925  0.00  0.00    +0.022 C 
ATOM      3  C   UNL     1      34.463 -15.036 -23.906  0.00  0.00    +0.158 C 
ATOM      4  C   UNL     1      34.963 -15.787 -22.848  0.00  0.00    +0.040 C 
ATOM      5  C   UNL     1      34.423 -17.759 -24.062  0.00  0.00    +0.099 C 
ATOM      6  C   UNL     1      33.963 -15.715 -25.005  0.00  0.00    +0.136 C 
ENDROOT
BRANCH   2  10
ATOM      7  N   UNL     1      35.641 -20.875 -18.517  0.00  0.00    -0.280 N 
ATOM      8  N   UNL     1      36.834 -20.301 -18.766  0.00  0.00    -0.173 NA
ATOM      9  C   UNL     1      35.208 -19.545 -20.162  0.00  0.00    +0.032 A 
ATOM     10  C   UNL     1      35.457 -17.983 -21.838  0.00  0.00    +0.002 C 
ATOM     11  C   UNL     1      36.600 -19.461 -19.790  0.00  0.00    +0.102 A 
ATOM     12  C   UNL     1      34.563 -18.841 -21.170  0.00  0.00    +0.003 C 
ATOM     13  C   UNL     1      34.626 -20.458 -19.328  0.00  0.00    +0.053 A 
ATOM     14  C   UNL     1      36.845 -17.863 -21.508  0.00  0.00    +0.002 C 
ATOM     15  C   UNL     1      37.472 -18.595 -20.475  0.00  0.00    +0.021 C 
ATOM     16  C   UNL     1      33.256 -20.982 -19.198  0.00  0.00    +0.051 C 
ATOM     17  H   UNL     1      35.512 -21.545 -17.807  0.00  0.00    +0.189 HD
ENDBRANCH   2  10
BRANCH   3  18
ATOM     18  O   UNL     1      34.467 -13.680 -23.863  0.00  0.00    -0.476 OA
BRANCH  18  19
ATOM     19  C   UNL     1      34.628 -13.066 -22.584  0.00  0.00    +0.184 C 
BRANCH  19  20
ATOM     20  C   UNL     1      33.875 -11.732 -22.535  0.00  0.00    -0.017 C 
BRANCH  20  21
ATOM     21  N   UNL     1      33.818 -11.183 -23.893  0.00  0.00    +0.384 N 
ATOM     22  H   UNL     1      33.260 -11.797 -24.486  0.00  0.00    -0.089 HD
ATOM     23  H   UNL     1      34.764 -11.113 -24.271  0.00  0.00    -0.089 HD
ATOM     24  H   UNL     1      33.393 -10.255 -23.868  0.00  0.00    -0.089 HD
ENDBRANCH  20  21
BRANCH  20  25
ATOM     25  C   UNL     1      32.430 -11.868 -22.010  0.00  0.00    +0.008 C 
BRANCH  25  26
ATOM     26  C   UNL     1      32.144 -11.095 -20.746  0.00  0.00    -0.024 C 
ATOM     27  C   UNL     1      32.143  -9.708 -20.783  0.00  0.00    -0.004 C 
ATOM     28  C   UNL     1      31.888 -11.783 -19.570  0.00  0.00    -0.004 C 
ATOM     29  C   UNL     1      31.879  -8.993 -19.616  0.00  0.00    -0.000 C 
ATOM     30  C   UNL     1      31.624 -11.066 -18.402  0.00  0.00    -0.000 C 
ATOM     31  C   UNL     1      31.620  -9.672 -18.425  0.00  0.00    -0.000 C 
ENDBRANCH  25  26
ENDBRANCH  20  25
ENDBRANCH  19  20
ENDBRANCH  18  19
ENDBRANCH   3  18
TORSDOF 7
ENDMDL
MODEL 6
REMARK VINA RESULT:     -11.0      5.679     12.526
REMARK  Name = 11314340
REMARK  7 active torsions:
REMARK  status: ('A' for Active; 'I' for Inactive)
REMARK    1  A    between atoms: C_2  and  C_10
REMARK    2  A    between atoms: C_3  and  O_18
REMARK    3  A    between atoms: O_18  and  C_19
REMARK    4  A    between atoms: C_19  and  C_20
REMARK    5  A    between atoms: C_20  and  N_21
REMARK    6  A    between atoms: C_20  and  C_25
REMARK    7  A    between atoms: C_25  and  C_26
REMARK                            x       y       z     vdW  Elec       q    Type
REMARK                         _______ _______ _______ _____ _____    ______ ____
ROOT
ATOM      1  N   UNL     1      33.865 -14.709 -25.053  0.00  0.00    -0.239 NA
ATOM      2  C   UNL     1      33.827 -13.118 -23.241  0.00  0.00    +0.022 C 
ATOM      3  C   UNL     1      35.112 -15.132 -23.026  0.00  0.00    +0.158 C 
ATOM      4  C   UNL     1      34.669 -13.926 -22.492  0.00  0.00    +0.040 C 
ATOM      5  C   UNL     1      33.455 -13.545 -24.501  0.00  0.00    +0.099 C 
ATOM      6  C   UNL     1      34.685 -15.474 -24.298  0.00  0.00    +0.136 C 
ENDROOT
BRANCH   2  10
ATOM      7  N   UNL     1      32.824  -7.523 -22.088  0.00  0.00    -0.280 N 
ATOM      8  N   UNL     1      32.041  -8.259 -21.274  0.00  0.00    -0.173 NA
ATOM      9  C   UNL     1      33.315  -9.552 -22.641  0.00  0.00    +0.032 A 
ATOM     10  C   UNL     1      33.347 -11.855 -22.712  0.00  0.00    +0.002 C 
ATOM     11  C   UNL     1      32.323  -9.535 -21.593  0.00  0.00    +0.102 A 
ATOM     12  C   UNL     1      33.876 -10.666 -23.250  0.00  0.00    +0.003 C 
ATOM     13  C   UNL     1      33.612  -8.250 -22.932  0.00  0.00    +0.053 A 
ATOM     14  C   UNL     1      32.362 -11.892 -21.674  0.00  0.00    +0.002 C 
ATOM     15  C   UNL     1      31.811 -10.738 -21.073  0.00  0.00    +0.021 C 
ATOM     16  C   UNL     1      34.528  -7.609 -23.890  0.00  0.00    +0.051 C 
ATOM     17  H   UNL     1      32.826  -6.539 -22.075  0.00  0.00    +0.189 HD
ENDBRANCH   2  10
BRANCH   3  18
ATOM     18  O   UNL     1      35.938 -15.945 -22.321  0.00  0.00    -0.476 OA
BRANCH  18  19
ATOM     19  C   UNL     1      35.817 -17.351 -22.543  0.00  0.00    +0.184 C 
BRANCH  19  20
ATOM     20  C   UNL     1      35.735 -18.096 -21.205  0.00  0.00    -0.017 C 
BRANCH  20  21
ATOM     21  N   UNL     1      35.645 -17.104 -20.129  0.00  0.00    +0.384 N 
ATOM     22  H   UNL     1      36.395 -17.261 -19.457  0.00  0.00    -0.089 HD
ATOM     23  H   UNL     1      34.743 -17.193 -19.660  0.00  0.00    -0.089 HD
ATOM     24  H   UNL     1      35.731 -16.166 -20.523  0.00  0.00    -0.089 HD
ENDBRANCH  20  21
BRANCH  20  25
ATOM     25  C   UNL     1      34.511 -19.030 -21.103  0.00  0.00    +0.008 C 
BRANCH  25  26
ATOM     26  C   UNL     1      34.532 -19.968 -19.920  0.00  0.00    -0.024 C 
ATOM     27  C   UNL     1      35.750 -20.376 -19.398  0.00  0.00    -0.004 C 
ATOM     28  C   UNL     1      33.333 -20.403 -19.377  0.00  0.00    -0.004 C 
ATOM     29  C   UNL     1      35.769 -21.241 -18.305  0.00  0.00    -0.000 C 
ATOM     30  C   UNL     1      33.354 -21.270 -18.283  0.00  0.00    -0.000 C 
ATOM     31  C   UNL     1      34.571 -21.689 -17.747  0.00  0.00    -0.000 C 
ENDBRANCH  25  26
ENDBRANCH  20  25
ENDBRANCH  19  20
ENDBRANCH  18  19
ENDBRANCH   3  18
TORSDOF 7
ENDMDL
MODEL 7
REMARK VINA RESULT:     -10.9      2.022      3.006
REMARK  Name = 11314340
REMARK  7 active torsions:
REMARK  status: ('A' for Active; 'I' for Inactive)
REMARK    1  A    between atoms: C_2  and  C_10
REMARK    2  A    between atoms: C_3  and  O_18
REMARK    3  A    between atoms: O_18  and  C_19
REMARK    4  A    between atoms: C_19  and  C_20
REMARK    5  A    between atoms: C_20  and  N_21
REMARK    6  A    between atoms: C_20  and  C_25
REMARK    7  A    between atoms: C_25  and  C_26
REMARK                            x       y       z     vdW  Elec       q    Type
REMARK                         _______ _______ _______ _____ _____    ______ ____
ROOT
ATOM      1  N   UNL     1      33.769 -22.394 -17.661  0.00  0.00    -0.239 NA
ATOM      2  C   UNL     1      35.321 -22.574 -15.825  0.00  0.00    +0.022 C 
ATOM      3  C   UNL     1      35.852 -21.169 -17.695  0.00  0.00    +0.158 C 
ATOM      4  C   UNL     1      36.194 -21.700 -16.455  0.00  0.00    +0.040 C 
ATOM      5  C   UNL     1      34.134 -22.890 -16.457  0.00  0.00    +0.099 C 
ATOM      6  C   UNL     1      34.640 -21.545 -18.250  0.00  0.00    +0.136 C 
ENDROOT
BRANCH   2  10
ATOM      7  N   UNL     1      37.873 -25.164 -11.306  0.00  0.00    -0.280 N 
ATOM      8  N   UNL     1      36.643 -24.773 -10.916  0.00  0.00    -0.173 NA
ATOM      9  C   UNL     1      37.073 -24.232 -13.081  0.00  0.00    +0.032 A 
ATOM     10  C   UNL     1      35.649 -23.145 -14.531  0.00  0.00    +0.002 C 
ATOM     11  C   UNL     1      36.113 -24.185 -12.004  0.00  0.00    +0.102 A 
ATOM     12  C   UNL     1      36.917 -23.736 -14.369  0.00  0.00    +0.003 C 
ATOM     13  C   UNL     1      38.185 -24.863 -12.600  0.00  0.00    +0.053 A 
ATOM     14  C   UNL     1      34.663 -23.073 -13.496  0.00  0.00    +0.002 C 
ATOM     15  C   UNL     1      34.854 -23.588 -12.194  0.00  0.00    +0.021 C 
ATOM     16  C   UNL     1      39.486 -25.216 -13.191  0.00  0.00    +0.051 C 
ATOM     17  H   UNL     1      38.497 -25.629 -10.703  0.00  0.00    +0.189 HD
ENDBRANCH   2  10
BRANCH   3  18
ATOM     18  O   UNL     1      36.682 -20.311 -18.339  0.00  0.00    -0.476 OA
BRANCH  18  19
ATOM     19  C   UNL     1      36.533 -20.194 -19.755  0.00  0.00    +0.184 C 
BRANCH  19  20
ATOM     20  C   UNL     1      36.582 -18.720 -20.174  0.00  0.00    -0.017 C 
BRANCH  20  21
ATOM     21  N   UNL     1      37.927 -18.427 -20.676  0.00  0.00    +0.384 N 
ATOM     22  H   UNL     1      38.096 -18.959 -21.529  0.00  0.00    -0.089 HD
ATOM     23  H   UNL     1      38.617 -18.687 -19.970  0.00  0.00    -0.089 HD
ATOM     24  H   UNL     1      38.006 -17.429 -20.876  0.00  0.00    -0.089 HD
ENDBRANCH  20  21
BRANCH  20  25
ATOM     25  C   UNL     1      35.566 -18.369 -21.283  0.00  0.00    +0.008 C 
BRANCH  25  26
ATOM     26  C   UNL     1      35.295 -16.893 -21.443  0.00  0.00    -0.024 C 
ATOM     27  C   UNL     1      35.169 -16.359 -22.717  0.00  0.00    -0.004 C 
ATOM     28  C   UNL     1      35.174 -16.097 -20.314  0.00  0.00    -0.004 C 
ATOM     29  C   UNL     1      34.918 -14.996 -22.865  0.00  0.00    -0.000 C 
ATOM     30  C   UNL     1      34.923 -14.733 -20.464  0.00  0.00    -0.000 C 
ATOM     31  C   UNL     1      34.795 -14.182 -21.739  0.00  0.00    -0.000 C 
ENDBRANCH  25  26
ENDBRANCH  20  25
ENDBRANCH  19  20
ENDBRANCH  18  19
ENDBRANCH   3  18
TORSDOF 7
ENDMDL
MODEL 8
REMARK VINA RESULT:     -10.9      0.710      1.774
REMARK  Name = 11314340
REMARK  7 active torsions:
REMARK  status: ('A' for Active; 'I' for Inactive)
REMARK    1  A    between atoms: C_2  and  C_10
REMARK    2  A    between atoms: C_3  and  O_18
REMARK    3  A    between atoms: O_18  and  C_19
REMARK    4  A    between atoms: C_19  and  C_20
REMARK    5  A    between atoms: C_20  and  N_21
REMARK    6  A    between atoms: C_20  and  C_25
REMARK    7  A    between atoms: C_25  and  C_26
REMARK                            x       y       z     vdW  Elec       q    Type
REMARK                         _______ _______ _______ _____ _____    ______ ____
ROOT
ATOM      1  N   UNL     1      31.386 -22.642 -14.923  0.00  0.00    -0.239 NA
ATOM      2  C   UNL     1      33.750 -23.010 -14.625  0.00  0.00    +0.022 C 
ATOM      3  C   UNL     1      32.909 -22.389 -16.783  0.00  0.00    +0.158 C 
ATOM      4  C   UNL     1      33.980 -22.721 -15.961  0.00  0.00    +0.040 C 
ATOM      5  C   UNL     1      32.452 -22.960 -14.155  0.00  0.00    +0.099 C 
ATOM      6  C   UNL     1      31.643 -22.365 -16.221  0.00  0.00    +0.136 C 
ENDROOT
BRANCH   2  10
ATOM      7  N   UNL     1      38.893 -24.374 -12.315  0.00  0.00    -0.280 N 
ATOM      8  N   UNL     1      37.987 -24.344 -11.317  0.00  0.00    -0.173 NA
ATOM      9  C   UNL     1      37.061 -23.858 -13.335  0.00  0.00    +0.032 A 
ATOM     10  C   UNL     1      34.848 -23.360 -13.742  0.00  0.00    +0.002 C 
ATOM     11  C   UNL     1      36.828 -24.024 -11.920  0.00  0.00    +0.102 A 
ATOM     12  C   UNL     1      36.127 -23.528 -14.308  0.00  0.00    +0.003 C 
ATOM     13  C   UNL     1      38.390 -24.089 -13.551  0.00  0.00    +0.053 A 
ATOM     14  C   UNL     1      34.565 -23.513 -12.347  0.00  0.00    +0.002 C 
ATOM     15  C   UNL     1      35.540 -23.850 -11.382  0.00  0.00    +0.021 C 
ATOM     16  C   UNL     1      39.238 -24.075 -14.755  0.00  0.00    +0.051 C 
ATOM     17  H   UNL     1      39.843 -24.584 -12.163  0.00  0.00    +0.189 HD
ENDBRANCH   2  10
BRANCH   3  18
ATOM     18  O   UNL     1      33.098 -22.099 -18.095  0.00  0.00    -0.476 OA
BRANCH  18  19
ATOM     19  C   UNL     1      34.380 -21.596 -18.475  0.00  0.00    +0.184 C 
BRANCH  19  20
ATOM     20  C   UNL     1      34.237 -20.601 -19.633  0.00  0.00    -0.017 C 
BRANCH  20  21
ATOM     21  N   UNL     1      32.949 -19.916 -19.498  0.00  0.00    +0.384 N 
ATOM     22  H   UNL     1      32.735 -19.417 -20.361  0.00  0.00    -0.089 HD
ATOM     23  H   UNL     1      32.996 -19.252 -18.724  0.00  0.00    -0.089 HD
ATOM     24  H   UNL     1      32.216 -20.602 -19.312  0.00  0.00    -0.089 HD
ENDBRANCH  20  21
BRANCH  20  25
ATOM     25  C   UNL     1      35.351 -19.532 -19.657  0.00  0.00    +0.008 C 
BRANCH  25  26
ATOM     26  C   UNL     1      35.276 -18.571 -20.818  0.00  0.00    -0.024 C 
ATOM     27  C   UNL     1      35.562 -17.230 -20.609  0.00  0.00    -0.004 C 
ATOM     28  C   UNL     1      34.922 -19.044 -22.072  0.00  0.00    -0.004 C 
ATOM     29  C   UNL     1      35.493 -16.341 -21.681  0.00  0.00    -0.000 C 
ATOM     30  C   UNL     1      34.852 -18.154 -23.144  0.00  0.00    -0.000 C 
ATOM     31  C   UNL     1      35.137 -16.803 -22.949  0.00  0.00    -0.000 C 
ENDBRANCH  25  26
ENDBRANCH  20  25
ENDBRANCH  19  20
ENDBRANCH  18  19
ENDBRANCH   3  18
TORSDOF 7
ENDMDL
MODEL 9
REMARK VINA RESULT:     -10.9      8.583     12.304
REMARK  Name = 11314340
REMARK  7 active torsions:
REMARK  status: ('A' for Active; 'I' for Inactive)
REMARK    1  A    between atoms: C_2  and  C_10
REMARK    2  A    between atoms: C_3  and  O_18
REMARK    3  A    between atoms: O_18  and  C_19
REMARK    4  A    between atoms: C_19  and  C_20
REMARK    5  A    between atoms: C_20  and  N_21
REMARK    6  A    between atoms: C_20  and  C_25
REMARK    7  A    between atoms: C_25  and  C_26
REMARK                            x       y       z     vdW  Elec       q    Type
REMARK                         _______ _______ _______ _____ _____    ______ ____
ROOT
ATOM      1  N   UNL     1      33.651 -12.241 -25.920  0.00  0.00    -0.239 NA
ATOM      2  C   UNL     1      34.223 -12.553 -23.598  0.00  0.00    +0.022 C 
ATOM      3  C   UNL     1      33.960 -10.334 -24.468  0.00  0.00    +0.158 C 
ATOM      4  C   UNL     1      34.240 -11.181 -23.401  0.00  0.00    +0.040 C 
ATOM      5  C   UNL     1      33.928 -13.033 -24.860  0.00  0.00    +0.099 C 
ATOM      6  C   UNL     1      33.676 -10.908 -25.695  0.00  0.00    +0.136 C 
ENDROOT
BRANCH   2  10
ATOM      7  N   UNL     1      35.679 -17.099 -20.303  0.00  0.00    -0.280 N 
ATOM      8  N   UNL     1      35.344 -16.084 -19.482  0.00  0.00    -0.173 NA
ATOM      9  C   UNL     1      35.172 -15.509 -21.673  0.00  0.00    +0.032 A 
ATOM     10  C   UNL     1      34.512 -13.464 -22.506  0.00  0.00    +0.002 C 
ATOM     11  C   UNL     1      35.020 -15.072 -20.306  0.00  0.00    +0.102 A 
ATOM     12  C   UNL     1      34.938 -14.768 -22.824  0.00  0.00    +0.003 C 
ATOM     13  C   UNL     1      35.594 -16.808 -21.634  0.00  0.00    +0.053 A 
ATOM     14  C   UNL     1      34.346 -12.982 -21.168  0.00  0.00    +0.002 C 
ATOM     15  C   UNL     1      34.593 -13.763 -20.017  0.00  0.00    +0.021 C 
ATOM     16  C   UNL     1      35.924 -17.798 -22.672  0.00  0.00    +0.051 C 
ATOM     17  H   UNL     1      35.964 -17.980 -19.969  0.00  0.00    +0.189 HD
ENDBRANCH   2  10
BRANCH   3  18
ATOM     18  O   UNL     1      33.966  -8.986 -24.309  0.00  0.00    -0.476 OA
BRANCH  18  19
ATOM     19  C   UNL     1      34.442  -8.476 -23.063  0.00  0.00    +0.184 C 
BRANCH  19  20
ATOM     20  C   UNL     1      33.343  -7.663 -22.368  0.00  0.00    -0.017 C 
BRANCH  20  21
ATOM     21  N   UNL     1      33.091  -6.455 -23.159  0.00  0.00    +0.384 N 
ATOM     22  H   UNL     1      33.663  -6.475 -24.003  0.00  0.00    -0.089 HD
ATOM     23  H   UNL     1      33.329  -5.631 -22.606  0.00  0.00    -0.089 HD
ATOM     24  H   UNL     1      32.104  -6.417 -23.417  0.00  0.00    -0.089 HD
ENDBRANCH  20  21
BRANCH  20  25
ATOM     25  C   UNL     1      32.014  -8.433 -22.226  0.00  0.00    +0.008 C 
BRANCH  25  26
ATOM     26  C   UNL     1      31.889  -9.247 -20.961  0.00  0.00    -0.024 C 
ATOM     27  C   UNL     1      32.217  -8.668 -19.745  0.00  0.00    -0.004 C 
ATOM     28  C   UNL     1      31.449 -10.560 -21.037  0.00  0.00    -0.004 C 
ATOM     29  C   UNL     1      32.103  -9.419 -18.576  0.00  0.00    -0.000 C 
ATOM     30  C   UNL     1      31.335 -11.311 -19.867  0.00  0.00    -0.000 C 
ATOM     31  C   UNL     1      31.661 -10.742 -18.637  0.00  0.00    -0.000 C 
ENDBRANCH  25  26
ENDBRANCH  20  25
ENDBRANCH  19  20
ENDBRANCH  18  19
ENDBRANCH   3  18
TORSDOF 7
ENDMDL
