MODEL 1
REMARK VINA RESULT:     -14.0      0.000      0.000
REMARK  Name = 44472635
REMARK  7 active torsions:
REMARK  status: ('A' for Active; 'I' for Inactive)
REMARK    1  A    between atoms: C_1  and  C_21
REMARK    2  A    between atoms: C_4  and  N_8
REMARK    3  A    between atoms: C_9  and  C_14
REMARK    4  A    between atoms: C_21  and  C_24
REMARK    5  A    between atoms: C_23  and  C_29
REMARK    6  A    between atoms: C_29  and  C_30
REMARK    7  A    between atoms: C_29  and  O_36
REMARK                            x       y       z     vdW  Elec       q    Type
REMARK                         _______ _______ _______ _____ _____    ______ ____
ROOT
ATOM      1  C   UNL     1      34.914 -21.644 -17.248  0.00  0.00    -0.024 C 
ATOM      2  C   UNL     1      34.372 -22.644 -16.441  0.00  0.00    -0.003 C 
ATOM      3  C   UNL     1      36.217 -21.198 -17.026  0.00  0.00    -0.003 C 
ATOM      4  C   UNL     1      36.438 -22.753 -15.191  0.00  0.00    +0.050 C 
ATOM      5  C   UNL     1      35.134 -23.199 -15.412  0.00  0.00    +0.014 C 
ATOM      6  C   UNL     1      36.979 -21.753 -15.999  0.00  0.00    +0.014 C 
ENDROOT
BRANCH   4   8
ATOM      7  O   UNL     1      39.387 -23.339 -15.042  0.00  0.00    -0.273 OA
ATOM      8  N   UNL     1      37.211 -23.316 -14.148  0.00  0.00    -0.283 N 
ATOM      9  C   UNL     1      38.577 -23.561 -14.147  0.00  0.00    +0.245 C 
ATOM     10  H   UNL     1      36.723 -23.561 -13.329  0.00  0.00    +0.155 HD
BRANCH   9  14
ATOM     11  O   UNL     1      38.720 -21.650 -11.312  0.00  0.00    -0.269 OA
ATOM     12  N   UNL     1      38.030 -23.806 -11.853  0.00  0.00    -0.237 N 
ATOM     13  N   UNL     1      36.159 -24.815 -10.773  0.00  0.00    -0.233 NA
ATOM     14  C   UNL     1      39.016 -24.168 -12.849  0.00  0.00    +0.158 C 
ATOM     15  C   UNL     1      38.948 -25.688 -12.885  0.00  0.00    +0.037 C 
ATOM     16  C   UNL     1      37.510 -26.019 -12.474  0.00  0.00    +0.064 C 
ATOM     17  C   UNL     1      37.145 -24.851 -11.608  0.00  0.00    +0.115 C 
ATOM     18  C   UNL     1      37.963 -22.604 -11.177  0.00  0.00    +0.256 C 
ATOM     19  C   UNL     1      36.829 -22.553 -10.218  0.00  0.00    +0.079 C 
ATOM     20  C   UNL     1      36.035 -23.627 -10.091  0.00  0.00    +0.105 C 
ENDBRANCH   9  14
ENDBRANCH   4   8
BRANCH   1  21
ATOM     21  C   UNL     1      34.099 -21.049 -18.346  0.00  0.00    +0.005 C 
BRANCH  21  24
ATOM     22  N   UNL     1      34.616 -19.314 -20.040  0.00  0.00    +0.388 N 
ATOM     23  C   UNL     1      35.748 -18.954 -20.908  0.00  0.00    -0.030 C 
ATOM     24  C   UNL     1      34.944 -20.660 -19.548  0.00  0.00    -0.057 C 
ATOM     25  C   UNL     1      36.979 -19.578 -20.249  0.00  0.00    -0.021 C 
ATOM     26  C   UNL     1      36.429 -20.563 -19.224  0.00  0.00    -0.023 C 
ATOM     27  H   UNL     1      33.746 -19.327 -20.571  0.00  0.00    -0.084 HD
ATOM     28  H   UNL     1      34.481 -18.646 -19.283  0.00  0.00    -0.084 HD
BRANCH  23  29
ATOM     29  C   UNL     1      35.868 -17.446 -21.081  0.00  0.00    +0.113 C 
BRANCH  29  30
ATOM     30  C   UNL     1      35.281 -16.973 -22.391  0.00  0.00    +0.002 C 
ATOM     31  C   UNL     1      35.256 -15.612 -22.695  0.00  0.00    -0.002 C 
ATOM     32  C   UNL     1      34.761 -17.899 -23.297  0.00  0.00    -0.002 C 
ATOM     33  C   UNL     1      34.713 -15.177 -23.903  0.00  0.00    -0.000 C 
ATOM     34  C   UNL     1      34.217 -17.464 -24.505  0.00  0.00    -0.000 C 
ATOM     35  C   UNL     1      34.194 -16.102 -24.808  0.00  0.00    -0.000 C 
ENDBRANCH  29  30
BRANCH  29  36
ATOM     36  O   UNL     1      35.204 -16.783 -20.006  0.00  0.00    -0.382 OA
ATOM     37  H   UNL     1      35.608 -17.046 -19.165  0.00  0.00    +0.211 HD
ENDBRANCH  29  36
ENDBRANCH  23  29
ENDBRANCH  21  24
ENDBRANCH   1  21
TORSDOF 7
ENDMDL
MODEL 2
REMARK VINA RESULT:     -14.0      1.382      2.683
REMARK  Name = 44472635
REMARK  7 active torsions:
REMARK  status: ('A' for Active; 'I' for Inactive)
REMARK    1  A    between atoms: C_1  and  C_21
REMARK    2  A    between atoms: C_4  and  N_8
REMARK    3  A    between atoms: C_9  and  C_14
REMARK    4  A    between atoms: C_21  and  C_24
REMARK    5  A    between atoms: C_23  and  C_29
REMARK    6  A    between atoms: C_29  and  C_30
REMARK    7  A    between atoms: C_29  and  O_36
REMARK                            x       y       z     vdW  Elec       q    Type
REMARK                         _______ _______ _______ _____ _____    ______ ____
ROOT
ATOM      1  C   UNL     1      34.403 -21.758 -17.289  0.00  0.00    -0.024 C 
ATOM      2  C   UNL     1      33.656 -22.698 -16.579  0.00  0.00    -0.003 C 
ATOM      3  C   UNL     1      35.696 -21.437 -16.873  0.00  0.00    -0.003 C 
ATOM      4  C   UNL     1      35.494 -22.997 -15.040  0.00  0.00    +0.050 C 
ATOM      5  C   UNL     1      34.201 -23.317 -15.454  0.00  0.00    +0.014 C 
ATOM      6  C   UNL     1      36.241 -22.056 -15.750  0.00  0.00    +0.014 C 
ENDROOT
BRANCH   4   8
ATOM      7  O   UNL     1      34.384 -23.336 -12.261  0.00  0.00    -0.273 OA
ATOM      8  N   UNL     1      36.048 -23.625 -13.899  0.00  0.00    -0.283 N 
ATOM      9  C   UNL     1      35.478 -23.744 -12.639  0.00  0.00    +0.245 C 
ATOM     10  H   UNL     1      36.942 -24.024 -14.013  0.00  0.00    +0.155 HD
BRANCH   9  14
ATOM     11  O   UNL     1      37.013 -26.634 -13.641  0.00  0.00    -0.269 OA
ATOM     12  N   UNL     1      37.615 -24.747 -12.419  0.00  0.00    -0.237 N 
ATOM     13  N   UNL     1      39.812 -23.831 -12.556  0.00  0.00    -0.233 NA
ATOM     14  C   UNL     1      36.386 -24.481 -11.702  0.00  0.00    +0.158 C 
ATOM     15  C   UNL     1      36.831 -23.603 -10.542  0.00  0.00    +0.037 C 
ATOM     16  C   UNL     1      38.073 -22.875 -11.063  0.00  0.00    +0.064 C 
ATOM     17  C   UNL     1      38.614 -23.841 -12.073  0.00  0.00    +0.115 C 
ATOM     18  C   UNL     1      37.828 -25.780 -13.310  0.00  0.00    +0.256 C 
ATOM     19  C   UNL     1      39.203 -25.773 -13.872  0.00  0.00    +0.079 C 
ATOM     20  C   UNL     1      40.066 -24.828 -13.468  0.00  0.00    +0.105 C 
ENDBRANCH   9  14
ENDBRANCH   4   8
BRANCH   1  21
ATOM     21  C   UNL     1      33.819 -21.094 -18.489  0.00  0.00    +0.005 C 
BRANCH  21  24
ATOM     22  N   UNL     1      34.601 -19.436 -20.159  0.00  0.00    +0.388 N 
ATOM     23  C   UNL     1      35.870 -19.066 -20.803  0.00  0.00    -0.030 C 
ATOM     24  C   UNL     1      34.876 -20.731 -19.520  0.00  0.00    -0.057 C 
ATOM     25  C   UNL     1      36.965 -19.583 -19.869  0.00  0.00    -0.021 C 
ATOM     26  C   UNL     1      36.258 -20.535 -18.911  0.00  0.00    -0.023 C 
ATOM     27  H   UNL     1      33.859 -19.528 -20.853  0.00  0.00    -0.084 HD
ATOM     28  H   UNL     1      34.286 -18.733 -19.492  0.00  0.00    -0.084 HD
BRANCH  23  29
ATOM     29  C   UNL     1      35.961 -17.567 -21.052  0.00  0.00    +0.113 C 
BRANCH  29  30
ATOM     30  C   UNL     1      35.345 -17.169 -22.374  0.00  0.00    +0.002 C 
ATOM     31  C   UNL     1      34.798 -18.142 -23.211  0.00  0.00    -0.002 C 
ATOM     32  C   UNL     1      35.325 -15.828 -22.758  0.00  0.00    -0.002 C 
ATOM     33  C   UNL     1      34.231 -17.774 -24.430  0.00  0.00    -0.000 C 
ATOM     34  C   UNL     1      34.758 -15.460 -23.978  0.00  0.00    -0.000 C 
ATOM     35  C   UNL     1      34.211 -16.433 -24.814  0.00  0.00    -0.000 C 
ENDBRANCH  29  30
BRANCH  29  36
ATOM     36  O   UNL     1      35.301 -16.863 -20.000  0.00  0.00    -0.382 OA
ATOM     37  H   UNL     1      34.932 -16.036 -20.347  0.00  0.00    +0.211 HD
ENDBRANCH  29  36
ENDBRANCH  23  29
ENDBRANCH  21  24
ENDBRANCH   1  21
TORSDOF 7
ENDMDL
MODEL 3
REMARK VINA RESULT:     -13.7      2.919      4.843
REMARK  Name = 44472635
REMARK  7 active torsions:
REMARK  status: ('A' for Active; 'I' for Inactive)
REMARK    1  A    between atoms: C_1  and  C_21
REMARK    2  A    between atoms: C_4  and  N_8
REMARK    3  A    between atoms: C_9  and  C_14
REMARK    4  A    between atoms: C_21  and  C_24
REMARK    5  A    between atoms: C_23  and  C_29
REMARK    6  A    between atoms: C_29  and  C_30
REMARK    7  A    between atoms: C_29  and  O_36
REMARK                            x       y       z     vdW  Elec       q    Type
REMARK                         _______ _______ _______ _____ _____    ______ ____
ROOT
ATOM      1  C   UNL     1      35.839 -19.198 -20.276  0.00  0.00    -0.024 C 
ATOM      2  C   UNL     1      36.747 -19.921 -19.501  0.00  0.00    -0.003 C 
ATOM      3  C   UNL     1      34.471 -19.442 -20.156  0.00  0.00    -0.003 C 
ATOM      4  C   UNL     1      34.917 -21.130 -18.486  0.00  0.00    +0.050 C 
ATOM      5  C   UNL     1      36.286 -20.887 -18.606  0.00  0.00    +0.014 C 
ATOM      6  C   UNL     1      34.010 -20.407 -19.262  0.00  0.00    +0.014 C 
ENDROOT
BRANCH   4   8
ATOM      7  O   UNL     1      35.693 -21.677 -15.629  0.00  0.00    -0.273 OA
ATOM      8  N   UNL     1      34.449 -22.109 -17.579  0.00  0.00    -0.283 N 
ATOM      9  C   UNL     1      34.854 -22.308 -16.266  0.00  0.00    +0.245 C 
ATOM     10  H   UNL     1      33.755 -22.720 -17.918  0.00  0.00    +0.155 HD
BRANCH   9  14
ATOM     11  O   UNL     1      36.566 -25.023 -15.077  0.00  0.00    -0.269 OA
ATOM     12  N   UNL     1      34.760 -23.733 -14.374  0.00  0.00    -0.237 N 
ATOM     13  N   UNL     1      34.393 -23.271 -12.064  0.00  0.00    -0.233 NA
ATOM     14  C   UNL     1      34.115 -23.451 -15.639  0.00  0.00    +0.158 C 
ATOM     15  C   UNL     1      32.701 -23.056 -15.240  0.00  0.00    +0.037 C 
ATOM     16  C   UNL     1      32.847 -22.469 -13.834  0.00  0.00    +0.064 C 
ATOM     17  C   UNL     1      34.054 -23.184 -13.308  0.00  0.00    +0.115 C 
ATOM     18  C   UNL     1      35.907 -24.481 -14.197  0.00  0.00    +0.256 C 
ATOM     19  C   UNL     1      36.305 -24.582 -12.769  0.00  0.00    +0.079 C 
ATOM     20  C   UNL     1      35.545 -23.987 -11.837  0.00  0.00    +0.105 C 
ENDBRANCH   9  14
ENDBRANCH   4   8
BRANCH   1  21
ATOM     21  C   UNL     1      36.332 -18.167 -21.234  0.00  0.00    +0.005 C 
BRANCH  21  24
ATOM     22  N   UNL     1      35.298 -15.965 -20.760  0.00  0.00    +0.388 N 
ATOM     23  C   UNL     1      34.489 -14.971 -21.483  0.00  0.00    -0.030 C 
ATOM     24  C   UNL     1      35.253 -17.164 -21.609  0.00  0.00    -0.057 C 
ATOM     25  C   UNL     1      34.748 -15.239 -22.965  0.00  0.00    -0.021 C 
ATOM     26  C   UNL     1      35.422 -16.605 -23.014  0.00  0.00    -0.023 C 
ATOM     27  H   UNL     1      34.896 -16.157 -19.843  0.00  0.00    -0.084 HD
ATOM     28  H   UNL     1      36.250 -15.641 -20.594  0.00  0.00    -0.084 HD
BRANCH  23  29
ATOM     29  C   UNL     1      34.836 -13.549 -21.067  0.00  0.00    +0.113 C 
BRANCH  29  30
ATOM     30  C   UNL     1      33.608 -12.679 -20.925  0.00  0.00    +0.002 C 
ATOM     31  C   UNL     1      32.743 -12.862 -19.846  0.00  0.00    -0.002 C 
ATOM     32  C   UNL     1      33.338 -11.694 -21.875  0.00  0.00    -0.002 C 
ATOM     33  C   UNL     1      31.610 -12.059 -19.716  0.00  0.00    -0.000 C 
ATOM     34  C   UNL     1      32.205 -10.892 -21.747  0.00  0.00    -0.000 C 
ATOM     35  C   UNL     1      31.341 -11.074 -20.666  0.00  0.00    -0.000 C 
ENDBRANCH  29  30
BRANCH  29  36
ATOM     36  O   UNL     1      35.538 -13.569 -19.824  0.00  0.00    -0.382 OA
ATOM     37  H   UNL     1      34.958 -13.919 -19.130  0.00  0.00    +0.211 HD
ENDBRANCH  29  36
ENDBRANCH  23  29
ENDBRANCH  21  24
ENDBRANCH   1  21
TORSDOF 7
ENDMDL
MODEL 4
REMARK VINA RESULT:     -13.6      5.304     12.911
REMARK  Name = 44472635
REMARK  7 active torsions:
REMARK  status: ('A' for Active; 'I' for Inactive)
REMARK    1  A    between atoms: C_1  and  C_21
REMARK    2  A    between atoms: C_4  and  N_8
REMARK    3  A    between atoms: C_9  and  C_14
REMARK    4  A    between atoms: C_21  and  C_24
REMARK    5  A    between atoms: C_23  and  C_29
REMARK    6  A    between atoms: C_29  and  C_30
REMARK    7  A    between atoms: C_29  and  O_36
REMARK                            x       y       z     vdW  Elec       q    Type
REMARK                         _______ _______ _______ _____ _____    ______ ____
ROOT
ATOM      1  C   UNL     1      35.031 -15.359 -22.512  0.00  0.00    -0.024 C 
ATOM      2  C   UNL     1      34.975 -14.617 -21.331  0.00  0.00    -0.003 C 
ATOM      3  C   UNL     1      34.399 -14.886 -23.662  0.00  0.00    -0.003 C 
ATOM      4  C   UNL     1      33.657 -12.931 -22.453  0.00  0.00    +0.050 C 
ATOM      5  C   UNL     1      34.288 -13.403 -21.302  0.00  0.00    +0.014 C 
ATOM      6  C   UNL     1      33.713 -13.673 -23.633  0.00  0.00    +0.014 C 
ENDROOT
BRANCH   4   8
ATOM      7  O   UNL     1      34.530 -10.170 -23.278  0.00  0.00    -0.273 OA
ATOM      8  N   UNL     1      32.960 -11.700 -22.424  0.00  0.00    -0.283 N 
ATOM      9  C   UNL     1      33.427 -10.455 -22.821  0.00  0.00    +0.245 C 
ATOM     10  H   UNL     1      32.037 -11.731 -22.082  0.00  0.00    +0.155 HD
BRANCH   9  14
ATOM     11  O   UNL     1      31.012 -10.828 -20.425  0.00  0.00    -0.269 OA
ATOM     12  N   UNL     1      32.337  -9.088 -21.220  0.00  0.00    -0.237 N 
ATOM     13  N   UNL     1      33.167  -7.396 -19.759  0.00  0.00    -0.233 NA
ATOM     14  C   UNL     1      32.380  -9.399 -22.633  0.00  0.00    +0.158 C 
ATOM     15  C   UNL     1      32.786  -8.081 -23.278  0.00  0.00    +0.037 C 
ATOM     16  C   UNL     1      33.606  -7.363 -22.203  0.00  0.00    +0.064 C 
ATOM     17  C   UNL     1      33.032  -7.916 -20.934  0.00  0.00    +0.115 C 
ATOM     18  C   UNL     1      31.669  -9.809 -20.250  0.00  0.00    +0.256 C 
ATOM     19  C   UNL     1      31.823  -9.219 -18.895  0.00  0.00    +0.079 C 
ATOM     20  C   UNL     1      32.539  -8.093 -18.753  0.00  0.00    +0.105 C 
ENDBRANCH   9  14
ENDBRANCH   4   8
BRANCH   1  21
ATOM     21  C   UNL     1      35.764 -16.657 -22.543  0.00  0.00    +0.005 C 
BRANCH  21  24
ATOM     22  N   UNL     1      34.673 -18.274 -21.012  0.00  0.00    +0.388 N 
ATOM     23  C   UNL     1      35.060 -19.104 -19.862  0.00  0.00    -0.030 C 
ATOM     24  C   UNL     1      35.792 -17.337 -21.184  0.00  0.00    -0.057 C 
ATOM     25  C   UNL     1      36.577 -19.263 -19.968  0.00  0.00    -0.021 C 
ATOM     26  C   UNL     1      37.019 -18.216 -20.984  0.00  0.00    -0.023 C 
ATOM     27  H   UNL     1      33.808 -17.770 -20.818  0.00  0.00    -0.084 HD
ATOM     28  H   UNL     1      34.500 -18.829 -21.850  0.00  0.00    -0.084 HD
BRANCH  23  29
ATOM     29  C   UNL     1      34.323 -20.436 -19.853  0.00  0.00    +0.113 C 
BRANCH  29  30
ATOM     30  C   UNL     1      34.446 -21.148 -18.525  0.00  0.00    +0.002 C 
ATOM     31  C   UNL     1      35.684 -21.226 -17.887  0.00  0.00    -0.002 C 
ATOM     32  C   UNL     1      33.322 -21.729 -17.939  0.00  0.00    -0.002 C 
ATOM     33  C   UNL     1      35.797 -21.884 -16.663  0.00  0.00    -0.000 C 
ATOM     34  C   UNL     1      33.435 -22.388 -16.715  0.00  0.00    -0.000 C 
ATOM     35  C   UNL     1      34.673 -22.465 -16.076  0.00  0.00    -0.000 C 
ENDBRANCH  29  30
BRANCH  29  36
ATOM     36  O   UNL     1      32.941 -20.223 -20.141  0.00  0.00    -0.382 OA
ATOM     37  H   UNL     1      32.692 -20.737 -20.925  0.00  0.00    +0.211 HD
ENDBRANCH  29  36
ENDBRANCH  23  29
ENDBRANCH  21  24
ENDBRANCH   1  21
TORSDOF 7
ENDMDL
MODEL 5
REMARK VINA RESULT:     -13.6      1.682      3.003
REMARK  Name = 44472635
REMARK  7 active torsions:
REMARK  status: ('A' for Active; 'I' for Inactive)
REMARK    1  A    between atoms: C_1  and  C_21
REMARK    2  A    between atoms: C_4  and  N_8
REMARK    3  A    between atoms: C_9  and  C_14
REMARK    4  A    between atoms: C_21  and  C_24
REMARK    5  A    between atoms: C_23  and  C_29
REMARK    6  A    between atoms: C_29  and  C_30
REMARK    7  A    between atoms: C_29  and  O_36
REMARK                            x       y       z     vdW  Elec       q    Type
REMARK                         _______ _______ _______ _____ _____    ______ ____
ROOT
ATOM      1  C   UNL     1      33.586 -20.867 -18.830  0.00  0.00    -0.024 C 
ATOM      2  C   UNL     1      34.912 -21.197 -18.549  0.00  0.00    -0.003 C 
ATOM      3  C   UNL     1      32.564 -21.316 -17.994  0.00  0.00    -0.003 C 
ATOM      4  C   UNL     1      34.192 -22.423 -16.595  0.00  0.00    +0.050 C 
ATOM      5  C   UNL     1      35.215 -21.976 -17.431  0.00  0.00    +0.014 C 
ATOM      6  C   UNL     1      32.866 -22.093 -16.877  0.00  0.00    +0.014 C 
ENDROOT
BRANCH   4   8
ATOM      7  O   UNL     1      35.908 -21.815 -14.197  0.00  0.00    -0.273 OA
ATOM      8  N   UNL     1      34.499 -23.212 -15.461  0.00  0.00    -0.283 N 
ATOM      9  C   UNL     1      35.305 -22.868 -14.385  0.00  0.00    +0.245 C 
ATOM     10  H   UNL     1      34.093 -24.109 -15.433  0.00  0.00    +0.155 HD
BRANCH   9  14
ATOM     11  O   UNL     1      36.450 -25.954 -15.322  0.00  0.00    -0.269 OA
ATOM     12  N   UNL     1      36.703 -24.554 -13.480  0.00  0.00    -0.237 N 
ATOM     13  N   UNL     1      38.770 -24.427 -12.297  0.00  0.00    -0.233 NA
ATOM     14  C   UNL     1      35.378 -23.982 -13.385  0.00  0.00    +0.158 C 
ATOM     15  C   UNL     1      35.313 -23.462 -11.956  0.00  0.00    +0.037 C 
ATOM     16  C   UNL     1      36.766 -23.138 -11.598  0.00  0.00    +0.064 C 
ATOM     17  C   UNL     1      37.533 -24.092 -12.462  0.00  0.00    +0.115 C 
ATOM     18  C   UNL     1      37.125 -25.476 -14.418  0.00  0.00    +0.256 C 
ATOM     19  C   UNL     1      38.548 -25.863 -14.236  0.00  0.00    +0.079 C 
ATOM     20  C   UNL     1      39.244 -25.326 -13.223  0.00  0.00    +0.105 C 
ENDBRANCH   9  14
ENDBRANCH   4   8
BRANCH   1  21
ATOM     21  C   UNL     1      33.262 -20.037 -20.026  0.00  0.00    +0.005 C 
BRANCH  21  24
ATOM     22  N   UNL     1      34.341 -18.175 -21.256  0.00  0.00    +0.388 N 
ATOM     23  C   UNL     1      35.709 -17.721 -21.548  0.00  0.00    -0.030 C 
ATOM     24  C   UNL     1      34.508 -19.541 -20.740  0.00  0.00    -0.057 C 
ATOM     25  C   UNL     1      36.585 -18.353 -20.467  0.00  0.00    -0.021 C 
ATOM     26  C   UNL     1      35.714 -19.423 -19.820  0.00  0.00    -0.023 C 
ATOM     27  H   UNL     1      33.773 -18.176 -22.103  0.00  0.00    -0.084 HD
ATOM     28  H   UNL     1      33.864 -17.565 -20.592  0.00  0.00    -0.084 HD
BRANCH  23  29
ATOM     29  C   UNL     1      35.806 -16.202 -21.578  0.00  0.00    +0.113 C 
BRANCH  29  30
ATOM     30  C   UNL     1      35.049 -15.604 -22.742  0.00  0.00    +0.002 C 
ATOM     31  C   UNL     1      34.445 -14.353 -22.614  0.00  0.00    -0.002 C 
ATOM     32  C   UNL     1      34.953 -16.305 -23.945  0.00  0.00    -0.002 C 
ATOM     33  C   UNL     1      33.747 -13.802 -23.688  0.00  0.00    -0.000 C 
ATOM     34  C   UNL     1      34.253 -15.754 -25.019  0.00  0.00    -0.000 C 
ATOM     35  C   UNL     1      33.651 -14.503 -24.890  0.00  0.00    -0.000 C 
ENDBRANCH  29  30
BRANCH  29  36
ATOM     36  O   UNL     1      35.291 -15.662 -20.361  0.00  0.00    -0.382 OA
ATOM     37  H   UNL     1      34.324 -15.604 -20.417  0.00  0.00    +0.211 HD
ENDBRANCH  29  36
ENDBRANCH  23  29
ENDBRANCH  21  24
ENDBRANCH   1  21
TORSDOF 7
ENDMDL
MODEL 6
REMARK VINA RESULT:     -13.3      2.209      3.876
REMARK  Name = 44472635
REMARK  7 active torsions:
REMARK  status: ('A' for Active; 'I' for Inactive)
REMARK    1  A    between atoms: C_1  and  C_21
REMARK    2  A    between atoms: C_4  and  N_8
REMARK    3  A    between atoms: C_9  and  C_14
REMARK    4  A    between atoms: C_21  and  C_24
REMARK    5  A    between atoms: C_23  and  C_29
REMARK    6  A    between atoms: C_29  and  C_30
REMARK    7  A    between atoms: C_29  and  O_36
REMARK                            x       y       z     vdW  Elec       q    Type
REMARK                         _______ _______ _______ _____ _____    ______ ____
ROOT
ATOM      1  C   UNL     1      36.166 -19.928 -19.365  0.00  0.00    -0.024 C 
ATOM      2  C   UNL     1      37.075 -20.322 -18.383  0.00  0.00    -0.003 C 
ATOM      3  C   UNL     1      34.866 -20.434 -19.354  0.00  0.00    -0.003 C 
ATOM      4  C   UNL     1      35.383 -21.725 -17.380  0.00  0.00    +0.050 C 
ATOM      5  C   UNL     1      36.684 -21.221 -17.391  0.00  0.00    +0.014 C 
ATOM      6  C   UNL     1      34.474 -21.331 -18.362  0.00  0.00    +0.014 C 
ENDROOT
BRANCH   4   8
ATOM      7  O   UNL     1      36.355 -22.057 -14.549  0.00  0.00    -0.273 OA
ATOM      8  N   UNL     1      34.986 -22.636 -16.373  0.00  0.00    -0.283 N 
ATOM      9  C   UNL     1      35.481 -22.736 -15.080  0.00  0.00    +0.245 C 
ATOM     10  H   UNL     1      34.276 -23.273 -16.618  0.00  0.00    +0.155 HD
BRANCH   9  14
ATOM     11  O   UNL     1      36.493 -25.984 -15.451  0.00  0.00    -0.269 OA
ATOM     12  N   UNL     1      35.828 -24.621 -13.685  0.00  0.00    -0.237 N 
ATOM     13  N   UNL     1      36.813 -24.827 -11.523  0.00  0.00    -0.233 NA
ATOM     14  C   UNL     1      34.796 -23.832 -14.321  0.00  0.00    +0.158 C 
ATOM     15  C   UNL     1      33.988 -23.288 -13.151  0.00  0.00    +0.037 C 
ATOM     16  C   UNL     1      34.990 -23.209 -11.996  0.00  0.00    +0.064 C 
ATOM     17  C   UNL     1      35.968 -24.291 -12.340  0.00  0.00    +0.115 C 
ATOM     18  C   UNL     1      36.578 -25.613 -14.286  0.00  0.00    +0.256 C 
ATOM     19  C   UNL     1      37.554 -26.232 -13.353  0.00  0.00    +0.079 C 
ATOM     20  C   UNL     1      37.601 -25.806 -12.081  0.00  0.00    +0.105 C 
ENDBRANCH   9  14
ENDBRANCH   4   8
BRANCH   1  21
ATOM     21  C   UNL     1      36.585 -18.970 -20.428  0.00  0.00    +0.005 C 
BRANCH  21  24
ATOM     22  N   UNL     1      35.494 -16.924 -21.307  0.00  0.00    +0.388 N 
ATOM     23  C   UNL     1      34.522 -16.582 -22.357  0.00  0.00    -0.030 C 
ATOM     24  C   UNL     1      35.399 -18.385 -21.178  0.00  0.00    -0.057 C 
ATOM     25  C   UNL     1      34.570 -17.746 -23.348  0.00  0.00    -0.021 C 
ATOM     26  C   UNL     1      35.316 -18.860 -22.622  0.00  0.00    -0.023 C 
ATOM     27  H   UNL     1      35.250 -16.468 -20.428  0.00  0.00    -0.084 HD
ATOM     28  H   UNL     1      36.438 -16.615 -21.538  0.00  0.00    -0.084 HD
BRANCH  23  29
ATOM     29  C   UNL     1      34.837 -15.240 -23.002  0.00  0.00    +0.113 C 
BRANCH  29  30
ATOM     30  C   UNL     1      34.108 -14.099 -22.330  0.00  0.00    +0.002 C 
ATOM     31  C   UNL     1      33.910 -14.113 -20.949  0.00  0.00    -0.002 C 
ATOM     32  C   UNL     1      33.631 -13.031 -23.092  0.00  0.00    -0.002 C 
ATOM     33  C   UNL     1      33.237 -13.060 -20.330  0.00  0.00    -0.000 C 
ATOM     34  C   UNL     1      32.957 -11.979 -22.473  0.00  0.00    -0.000 C 
ATOM     35  C   UNL     1      32.761 -11.993 -21.092  0.00  0.00    -0.000 C 
ENDBRANCH  29  30
BRANCH  29  36
ATOM     36  O   UNL     1      36.242 -14.994 -22.943  0.00  0.00    -0.382 OA
ATOM     37  H   UNL     1      36.501 -14.423 -23.683  0.00  0.00    +0.211 HD
ENDBRANCH  29  36
ENDBRANCH  23  29
ENDBRANCH  21  24
ENDBRANCH   1  21
TORSDOF 7
ENDMDL
MODEL 7
REMARK VINA RESULT:     -13.2      2.351      4.355
REMARK  Name = 44472635
REMARK  7 active torsions:
REMARK  status: ('A' for Active; 'I' for Inactive)
REMARK    1  A    between atoms: C_1  and  C_21
REMARK    2  A    between atoms: C_4  and  N_8
REMARK    3  A    between atoms: C_9  and  C_14
REMARK    4  A    between atoms: C_21  and  C_24
REMARK    5  A    between atoms: C_23  and  C_29
REMARK    6  A    between atoms: C_29  and  C_30
REMARK    7  A    between atoms: C_29  and  O_36
REMARK                            x       y       z     vdW  Elec       q    Type
REMARK                         _______ _______ _______ _____ _____    ______ ____
ROOT
ATOM      1  C   UNL     1      35.467 -19.413 -20.276  0.00  0.00    -0.024 C 
ATOM      2  C   UNL     1      34.114 -19.680 -20.064  0.00  0.00    -0.003 C 
ATOM      3  C   UNL     1      36.435 -20.096 -19.539  0.00  0.00    -0.003 C 
ATOM      4  C   UNL     1      34.699 -21.312 -18.381  0.00  0.00    +0.050 C 
ATOM      5  C   UNL     1      33.729 -20.629 -19.116  0.00  0.00    +0.014 C 
ATOM      6  C   UNL     1      36.051 -21.046 -18.593  0.00  0.00    +0.014 C 
ENDROOT
BRANCH   4   8
ATOM      7  O   UNL     1      35.704 -21.802 -15.585  0.00  0.00    -0.273 OA
ATOM      8  N   UNL     1      34.309 -22.275 -17.420  0.00  0.00    -0.283 N 
ATOM      9  C   UNL     1      34.820 -22.447 -16.141  0.00  0.00    +0.245 C 
ATOM     10  H   UNL     1      33.593 -22.895 -17.691  0.00  0.00    +0.155 HD
BRANCH   9  14
ATOM     11  O   UNL     1      36.633 -25.136 -15.049  0.00  0.00    -0.269 OA
ATOM     12  N   UNL     1      34.886 -23.838 -14.223  0.00  0.00    -0.237 N 
ATOM     13  N   UNL     1      34.709 -23.335 -11.898  0.00  0.00    -0.233 NA
ATOM     14  C   UNL     1      34.139 -23.580 -15.435  0.00  0.00    +0.158 C 
ATOM     15  C   UNL     1      32.761 -23.182 -14.928  0.00  0.00    +0.037 C 
ATOM     16  C   UNL     1      33.019 -22.568 -13.549  0.00  0.00    +0.064 C 
ATOM     17  C   UNL     1      34.268 -23.271 -13.111  0.00  0.00    +0.115 C 
ATOM     18  C   UNL     1      36.047 -24.581 -14.127  0.00  0.00    +0.256 C 
ATOM     19  C   UNL     1      36.561 -24.655 -12.735  0.00  0.00    +0.079 C 
ATOM     20  C   UNL     1      35.878 -24.045 -11.755  0.00  0.00    +0.105 C 
ENDBRANCH   9  14
ENDBRANCH   4   8
BRANCH   1  21
ATOM     21  C   UNL     1      35.878 -18.397 -21.287  0.00  0.00    +0.005 C 
BRANCH  21  24
ATOM     22  N   UNL     1      34.843 -16.676 -22.740  0.00  0.00    +0.388 N 
ATOM     23  C   UNL     1      33.966 -16.642 -23.920  0.00  0.00    -0.030 C 
ATOM     24  C   UNL     1      34.757 -18.061 -22.257  0.00  0.00    -0.057 C 
ATOM     25  C   UNL     1      34.120 -18.013 -24.579  0.00  0.00    -0.021 C 
ATOM     26  C   UNL     1      34.812 -18.883 -23.537  0.00  0.00    -0.023 C 
ATOM     27  H   UNL     1      34.514 -16.025 -22.028  0.00  0.00    -0.084 HD
ATOM     28  H   UNL     1      35.800 -16.400 -22.961  0.00  0.00    -0.084 HD
BRANCH  23  29
ATOM     29  C   UNL     1      34.318 -15.492 -24.853  0.00  0.00    +0.113 C 
BRANCH  29  30
ATOM     30  C   UNL     1      34.224 -14.149 -24.165  0.00  0.00    +0.002 C 
ATOM     31  C   UNL     1      33.822 -13.023 -24.884  0.00  0.00    -0.002 C 
ATOM     32  C   UNL     1      34.540 -14.036 -22.811  0.00  0.00    -0.002 C 
ATOM     33  C   UNL     1      33.736 -11.785 -24.249  0.00  0.00    -0.000 C 
ATOM     34  C   UNL     1      34.455 -12.797 -22.176  0.00  0.00    -0.000 C 
ATOM     35  C   UNL     1      34.052 -11.671 -22.895  0.00  0.00    -0.000 C 
ENDBRANCH  29  30
BRANCH  29  36
ATOM     36  O   UNL     1      35.644 -15.667 -25.354  0.00  0.00    -0.382 OA
ATOM     37  H   UNL     1      36.201 -16.058 -24.663  0.00  0.00    +0.211 HD
ENDBRANCH  29  36
ENDBRANCH  23  29
ENDBRANCH  21  24
ENDBRANCH   1  21
TORSDOF 7
ENDMDL
MODEL 8
REMARK VINA RESULT:     -13.1      3.179      5.086
REMARK  Name = 44472635
REMARK  7 active torsions:
REMARK  status: ('A' for Active; 'I' for Inactive)
REMARK    1  A    between atoms: C_1  and  C_21
REMARK    2  A    between atoms: C_4  and  N_8
REMARK    3  A    between atoms: C_9  and  C_14
REMARK    4  A    between atoms: C_21  and  C_24
REMARK    5  A    between atoms: C_23  and  C_29
REMARK    6  A    between atoms: C_29  and  C_30
REMARK    7  A    between atoms: C_29  and  O_36
REMARK                            x       y       z     vdW  Elec       q    Type
REMARK                         _______ _______ _______ _____ _____    ______ ____
ROOT
ATOM      1  C   UNL     1      35.728 -19.723 -19.770  0.00  0.00    -0.024 C 
ATOM      2  C   UNL     1      36.498 -20.398 -18.822  0.00  0.00    -0.003 C 
ATOM      3  C   UNL     1      34.357 -19.966 -19.855  0.00  0.00    -0.003 C 
ATOM      4  C   UNL     1      34.525 -21.556 -18.044  0.00  0.00    +0.050 C 
ATOM      5  C   UNL     1      35.897 -21.315 -17.959  0.00  0.00    +0.014 C 
ATOM      6  C   UNL     1      33.755 -20.881 -18.992  0.00  0.00    +0.014 C 
ENDROOT
BRANCH   4   8
ATOM      7  O   UNL     1      31.764 -21.589 -16.844  0.00  0.00    -0.273 OA
ATOM      8  N   UNL     1      33.914 -22.485 -17.169  0.00  0.00    -0.283 N 
ATOM      9  C   UNL     1      32.628 -22.438 -16.650  0.00  0.00    +0.245 C 
ATOM     10  H   UNL     1      34.466 -23.255 -16.898  0.00  0.00    +0.155 HD
BRANCH   9  14
ATOM     11  O   UNL     1      35.215 -24.381 -15.534  0.00  0.00    -0.269 OA
ATOM     12  N   UNL     1      33.258 -23.506 -14.629  0.00  0.00    -0.237 N 
ATOM     13  N   UNL     1      33.159 -22.780 -12.360  0.00  0.00    -0.233 NA
ATOM     14  C   UNL     1      32.361 -23.614 -15.759  0.00  0.00    +0.158 C 
ATOM     15  C   UNL     1      30.978 -23.539 -15.128  0.00  0.00    +0.037 C 
ATOM     16  C   UNL     1      31.179 -22.710 -13.857  0.00  0.00    +0.064 C 
ATOM     17  C   UNL     1      32.610 -22.991 -13.510  0.00  0.00    +0.115 C 
ATOM     18  C   UNL     1      34.583 -23.892 -14.605  0.00  0.00    +0.256 C 
ATOM     19  C   UNL     1      35.223 -23.649 -13.286  0.00  0.00    +0.079 C 
ATOM     20  C   UNL     1      34.489 -23.126 -12.293  0.00  0.00    +0.105 C 
ENDBRANCH   9  14
ENDBRANCH   4   8
BRANCH   1  21
ATOM     21  C   UNL     1      36.371 -18.745 -20.693  0.00  0.00    +0.005 C 
BRANCH  21  24
ATOM     22  N   UNL     1      35.385 -16.491 -20.391  0.00  0.00    +0.388 N 
ATOM     23  C   UNL     1      34.710 -15.484 -21.224  0.00  0.00    -0.030 C 
ATOM     24  C   UNL     1      35.388 -17.709 -21.213  0.00  0.00    -0.057 C 
ATOM     25  C   UNL     1      35.129 -15.801 -22.660  0.00  0.00    -0.021 C 
ATOM     26  C   UNL     1      35.744 -17.194 -22.601  0.00  0.00    -0.023 C 
ATOM     27  H   UNL     1      34.871 -16.643 -19.523  0.00  0.00    -0.084 HD
ATOM     28  H   UNL     1      36.325 -16.202 -20.120  0.00  0.00    -0.084 HD
BRANCH  23  29
ATOM     29  C   UNL     1      35.068 -14.067 -20.800  0.00  0.00    +0.113 C 
BRANCH  29  30
ATOM     30  C   UNL     1      33.899 -13.118 -20.936  0.00  0.00    +0.002 C 
ATOM     31  C   UNL     1      32.891 -13.110 -19.972  0.00  0.00    -0.002 C 
ATOM     32  C   UNL     1      33.828 -12.250 -22.025  0.00  0.00    -0.002 C 
ATOM     33  C   UNL     1      31.813 -12.235 -20.097  0.00  0.00    -0.000 C 
ATOM     34  C   UNL     1      32.750 -11.375 -22.152  0.00  0.00    -0.000 C 
ATOM     35  C   UNL     1      31.742 -11.367 -21.187  0.00  0.00    -0.000 C 
ENDBRANCH  29  30
BRANCH  29  36
ATOM     36  O   UNL     1      35.513 -14.068 -19.444  0.00  0.00    -0.382 OA
ATOM     37  H   UNL     1      35.980 -13.239 -19.257  0.00  0.00    +0.211 HD
ENDBRANCH  29  36
ENDBRANCH  23  29
ENDBRANCH  21  24
ENDBRANCH   1  21
TORSDOF 7
ENDMDL
MODEL 9
REMARK VINA RESULT:     -13.0      4.754     13.085
REMARK  Name = 44472635
REMARK  7 active torsions:
REMARK  status: ('A' for Active; 'I' for Inactive)
REMARK    1  A    between atoms: C_1  and  C_21
REMARK    2  A    between atoms: C_4  and  N_8
REMARK    3  A    between atoms: C_9  and  C_14
REMARK    4  A    between atoms: C_21  and  C_24
REMARK    5  A    between atoms: C_23  and  C_29
REMARK    6  A    between atoms: C_29  and  C_30
REMARK    7  A    between atoms: C_29  and  O_36
REMARK                            x       y       z     vdW  Elec       q    Type
REMARK                         _______ _______ _______ _____ _____    ______ ____
ROOT
ATOM      1  C   UNL     1      35.300 -16.877 -22.897  0.00  0.00    -0.024 C 
ATOM      2  C   UNL     1      35.335 -15.831 -21.974  0.00  0.00    -0.003 C 
ATOM      3  C   UNL     1      34.796 -16.659 -24.179  0.00  0.00    -0.003 C 
ATOM      4  C   UNL     1      34.362 -14.350 -23.616  0.00  0.00    +0.050 C 
ATOM      5  C   UNL     1      34.865 -14.568 -22.334  0.00  0.00    +0.014 C 
ATOM      6  C   UNL     1      34.327 -15.396 -24.539  0.00  0.00    +0.014 C 
ENDROOT
BRANCH   4   8
ATOM      7  O   UNL     1      34.525 -11.717 -22.165  0.00  0.00    -0.273 OA
ATOM      8  N   UNL     1      33.886 -13.069 -23.982  0.00  0.00    -0.283 N 
ATOM      9  C   UNL     1      33.995 -11.889 -23.259  0.00  0.00    +0.245 C 
ATOM     10  H   UNL     1      33.425 -13.007 -24.850  0.00  0.00    +0.155 HD
BRANCH   9  14
ATOM     11  O   UNL     1      31.543 -10.029 -21.762  0.00  0.00    -0.269 OA
ATOM     12  N   UNL     1      33.394  -9.601 -23.106  0.00  0.00    -0.237 N 
ATOM     13  N   UNL     1      34.714  -7.637 -22.808  0.00  0.00    -0.233 NA
ATOM     14  C   UNL     1      33.361 -10.745 -23.991  0.00  0.00    +0.158 C 
ATOM     15  C   UNL     1      34.201 -10.303 -25.180  0.00  0.00    +0.037 C 
ATOM     16  C   UNL     1      35.192  -9.291 -24.598  0.00  0.00    +0.064 C 
ATOM     17  C   UNL     1      34.437  -8.736 -23.428  0.00  0.00    +0.115 C 
ATOM     18  C   UNL     1      32.502  -9.337 -22.086  0.00  0.00    +0.256 C 
ATOM     19  C   UNL     1      32.816  -8.076 -21.367  0.00  0.00    +0.079 C 
ATOM     20  C   UNL     1      33.866  -7.343 -21.766  0.00  0.00    +0.105 C 
ENDBRANCH   9  14
ENDBRANCH   4   8
BRANCH   1  21
ATOM     21  C   UNL     1      35.799 -18.229 -22.512  0.00  0.00    +0.005 C 
BRANCH  21  24
ATOM     22  N   UNL     1      34.581 -19.568 -20.819  0.00  0.00    +0.388 N 
ATOM     23  C   UNL     1      34.785 -19.994 -19.426  0.00  0.00    -0.030 C 
ATOM     24  C   UNL     1      35.591 -18.523 -21.035  0.00  0.00    -0.057 C 
ATOM     25  C   UNL     1      36.293 -19.903 -19.191  0.00  0.00    -0.021 C 
ATOM     26  C   UNL     1      36.833 -19.089 -20.361  0.00  0.00    -0.023 C 
ATOM     27  H   UNL     1      33.641 -19.193 -20.946  0.00  0.00    -0.084 HD
ATOM     28  H   UNL     1      34.674 -20.340 -21.478  0.00  0.00    -0.084 HD
BRANCH  23  29
ATOM     29  C   UNL     1      34.228 -21.388 -19.175  0.00  0.00    +0.113 C 
BRANCH  29  30
ATOM     30  C   UNL     1      34.359 -21.804 -17.727  0.00  0.00    +0.002 C 
ATOM     31  C   UNL     1      33.248 -22.289 -17.036  0.00  0.00    -0.002 C 
ATOM     32  C   UNL     1      35.591 -21.701 -17.081  0.00  0.00    -0.002 C 
ATOM     33  C   UNL     1      33.369 -22.671 -15.701  0.00  0.00    -0.000 C 
ATOM     34  C   UNL     1      35.713 -22.082 -15.745  0.00  0.00    -0.000 C 
ATOM     35  C   UNL     1      34.601 -22.568 -15.055  0.00  0.00    -0.000 C 
ENDBRANCH  29  30
BRANCH  29  36
ATOM     36  O   UNL     1      32.851 -21.432 -19.549  0.00  0.00    -0.382 OA
ATOM     37  H   UNL     1      32.477 -22.293 -19.305  0.00  0.00    +0.211 HD
ENDBRANCH  29  36
ENDBRANCH  23  29
ENDBRANCH  21  24
ENDBRANCH   1  21
TORSDOF 7
ENDMDL
