MODEL 1
REMARK VINA RESULT:     -11.8      0.000      0.000
REMARK  Name = 68488178
REMARK  9 active torsions:
REMARK  status: ('A' for Active; 'I' for Inactive)
REMARK    1  A    between atoms: N_1  and  C_10
REMARK    2  A    between atoms: N_2  and  C_29
REMARK    3  A    between atoms: C_10  and  C_11
REMARK    4  A    between atoms: C_16  and  O_17
REMARK    5  A    between atoms: O_17  and  C_18
REMARK    6  A    between atoms: C_23  and  C_26
REMARK    7  A    between atoms: C_29  and  C_30
REMARK    8  A    between atoms: C_35  and  C_37
REMARK    9  A    between atoms: C_37  and  O_38
REMARK                            x       y       z     vdW  Elec       q    Type
REMARK                         _______ _______ _______ _____ _____    ______ ____
ROOT
ATOM      1  N   UNL     1      34.169 -11.988 -23.455  0.00  0.00    +0.388 N 
ATOM      2  N   UNL     1      34.770  -9.253 -23.349  0.00  0.00    +0.388 N 
ATOM      3  C   UNL     1      34.305 -11.153 -24.673  0.00  0.00    -0.081 C 
ATOM      4  C   UNL     1      33.382  -9.770 -23.252  0.00  0.00    -0.081 C 
ATOM      5  C   UNL     1      33.074 -10.265 -24.654  0.00  0.00    -0.046 C 
ATOM      6  C   UNL     1      33.470 -11.104 -22.488  0.00  0.00    -0.098 C 
ATOM      7  C   UNL     1      35.407 -10.123 -24.369  0.00  0.00    -0.098 C 
ATOM      8  H   UNL     1      35.074 -12.307 -23.108  0.00  0.00    -0.079 HD
ATOM      9  H   UNL     1      35.253  -9.287 -22.450  0.00  0.00    -0.079 HD
ENDROOT
BRANCH   1  10
ATOM     10  C   UNL     1      33.433 -13.223 -23.700  0.00  0.00    -0.050 C 
BRANCH  10  11
ATOM     11  C   UNL     1      34.212 -14.435 -23.265  0.00  0.00    -0.043 C 
ATOM     12  C   UNL     1      34.709 -14.515 -21.963  0.00  0.00    -0.003 C 
ATOM     13  C   UNL     1      34.438 -15.479 -24.163  0.00  0.00    -0.003 C 
ATOM     14  C   UNL     1      35.431 -15.638 -21.559  0.00  0.00    +0.037 C 
ATOM     15  C   UNL     1      35.160 -16.602 -23.759  0.00  0.00    +0.037 C 
ATOM     16  C   UNL     1      35.656 -16.682 -22.457  0.00  0.00    +0.145 C 
BRANCH  16  17
ATOM     17  O   UNL     1      36.362 -17.777 -22.064  0.00  0.00    -0.453 OA
BRANCH  17  18
ATOM     18  C   UNL     1      35.772 -18.625 -21.141  0.00  0.00    +0.145 C 
ATOM     19  C   UNL     1      36.557 -19.263 -20.181  0.00  0.00    +0.038 C 
ATOM     20  C   UNL     1      34.395 -18.841 -21.172  0.00  0.00    +0.038 C 
ATOM     21  C   UNL     1      35.964 -20.119 -19.253  0.00  0.00    +0.008 C 
ATOM     22  C   UNL     1      33.802 -19.697 -20.244  0.00  0.00    +0.008 C 
ATOM     23  C   UNL     1      34.587 -20.336 -19.283  0.00  0.00    +0.054 C 
BRANCH  23  26
ATOM     24  O   UNL     1      34.839 -21.997 -17.616  0.00  0.00    -0.431 OA
ATOM     25  N   UNL     1      32.702 -21.388 -18.036  0.00  0.00    -0.206 NA
ATOM     26  C   UNL     1      33.973 -21.222 -18.324  0.00  0.00    +0.230 C 
ATOM     27  C   UNL     1      34.024 -22.723 -16.801  0.00  0.00    +0.202 C 
ATOM     28  C   UNL     1      32.729 -22.349 -17.059  0.00  0.00    +0.143 C 
ENDBRANCH  23  26
ENDBRANCH  17  18
ENDBRANCH  16  17
ENDBRANCH  10  11
ENDBRANCH   1  10
BRANCH   2  29
ATOM     29  C   UNL     1      34.819  -7.844 -23.720  0.00  0.00    -0.050 C 
BRANCH  29  30
ATOM     30  C   UNL     1      33.910  -7.005 -22.862  0.00  0.00    -0.043 C 
ATOM     31  C   UNL     1      32.986  -6.146 -23.458  0.00  0.00    -0.006 C 
ATOM     32  C   UNL     1      33.992  -7.087 -21.471  0.00  0.00    -0.006 C 
ATOM     33  C   UNL     1      32.144  -5.370 -22.662  0.00  0.00    +0.006 C 
ATOM     34  C   UNL     1      33.151  -6.309 -20.677  0.00  0.00    +0.006 C 
ATOM     35  C   UNL     1      32.225  -5.451 -21.272  0.00  0.00    +0.075 C 
BRANCH  35  37
ATOM     36  O   UNL     1      30.196  -4.303 -20.737  0.00  0.00    -0.245 OA
ATOM     37  C   UNL     1      31.347  -4.641 -20.444  0.00  0.00    +0.338 C 
BRANCH  37  38
ATOM     38  O   UNL     1      31.930  -4.276 -19.269  0.00  0.00    -0.477 OA
ATOM     39  H   UNL     1      32.854  -4.383 -19.151  0.00  0.00    +0.295 HD
ENDBRANCH  37  38
ENDBRANCH  35  37
ENDBRANCH  29  30
ENDBRANCH   2  29
TORSDOF 9
ENDMDL
MODEL 2
REMARK VINA RESULT:     -11.4      4.479     14.443
REMARK  Name = 68488178
REMARK  9 active torsions:
REMARK  status: ('A' for Active; 'I' for Inactive)
REMARK    1  A    between atoms: N_1  and  C_10
REMARK    2  A    between atoms: N_2  and  C_29
REMARK    3  A    between atoms: C_10  and  C_11
REMARK    4  A    between atoms: C_16  and  O_17
REMARK    5  A    between atoms: O_17  and  C_18
REMARK    6  A    between atoms: C_23  and  C_26
REMARK    7  A    between atoms: C_29  and  C_30
REMARK    8  A    between atoms: C_35  and  C_37
REMARK    9  A    between atoms: C_37  and  O_38
REMARK                            x       y       z     vdW  Elec       q    Type
REMARK                         _______ _______ _______ _____ _____    ______ ____
ROOT
ATOM      1  N   UNL     1      33.117 -23.004 -16.248  0.00  0.00    +0.388 N 
ATOM      2  N   UNL     1      34.319 -24.224 -14.030  0.00  0.00    +0.388 N 
ATOM      3  C   UNL     1      34.391 -22.519 -15.665  0.00  0.00    -0.081 C 
ATOM      4  C   UNL     1      33.280 -23.174 -13.898  0.00  0.00    -0.081 C 
ATOM      5  C   UNL     1      33.981 -21.902 -14.340  0.00  0.00    -0.046 C 
ATOM      6  C   UNL     1      32.301 -23.384 -15.068  0.00  0.00    -0.098 C 
ATOM      7  C   UNL     1      35.146 -23.770 -15.177  0.00  0.00    -0.098 C 
ATOM      8  H   UNL     1      33.263 -23.786 -16.889  0.00  0.00    -0.079 HD
ATOM      9  H   UNL     1      33.912 -25.147 -14.185  0.00  0.00    -0.079 HD
ENDROOT
BRANCH   1  10
ATOM     10  C   UNL     1      32.457 -21.997 -17.070  0.00  0.00    -0.050 C 
BRANCH  10  11
ATOM     11  C   UNL     1      33.411 -21.350 -18.039  0.00  0.00    -0.043 C 
ATOM     12  C   UNL     1      32.933 -20.450 -18.991  0.00  0.00    -0.003 C 
ATOM     13  C   UNL     1      34.772 -21.651 -17.983  0.00  0.00    -0.003 C 
ATOM     14  C   UNL     1      33.816 -19.850 -19.889  0.00  0.00    +0.037 C 
ATOM     15  C   UNL     1      35.655 -21.052 -18.881  0.00  0.00    +0.037 C 
ATOM     16  C   UNL     1      35.178 -20.151 -19.834  0.00  0.00    +0.145 C 
BRANCH  16  17
ATOM     17  O   UNL     1      36.040 -19.567 -20.710  0.00  0.00    -0.453 OA
BRANCH  17  18
ATOM     18  C   UNL     1      35.698 -18.324 -21.218  0.00  0.00    +0.145 C 
ATOM     19  C   UNL     1      35.708 -17.205 -20.386  0.00  0.00    +0.038 C 
ATOM     20  C   UNL     1      35.343 -18.193 -22.560  0.00  0.00    +0.038 C 
ATOM     21  C   UNL     1      35.361 -15.954 -20.896  0.00  0.00    +0.008 C 
ATOM     22  C   UNL     1      34.996 -16.942 -23.070  0.00  0.00    +0.008 C 
ATOM     23  C   UNL     1      35.005 -15.821 -22.238  0.00  0.00    +0.054 C 
BRANCH  23  26
ATOM     24  O   UNL     1      33.903 -14.554 -23.906  0.00  0.00    -0.431 OA
ATOM     25  N   UNL     1      34.933 -13.331 -22.306  0.00  0.00    -0.206 NA
ATOM     26  C   UNL     1      34.646 -14.528 -22.766  0.00  0.00    +0.230 C 
ATOM     27  C   UNL     1      33.705 -13.236 -24.187  0.00  0.00    +0.202 C 
ATOM     28  C   UNL     1      34.331 -12.498 -23.213  0.00  0.00    +0.143 C 
ENDBRANCH  23  26
ENDBRANCH  17  18
ENDBRANCH  16  17
ENDBRANCH  10  11
ENDBRANCH   1  10
BRANCH   2  29
ATOM     29  C   UNL     1      35.109 -24.389 -12.816  0.00  0.00    -0.050 C 
BRANCH  29  30
ATOM     30  C   UNL     1      36.566 -24.615 -13.121  0.00  0.00    -0.043 C 
ATOM     31  C   UNL     1      37.532 -23.771 -12.573  0.00  0.00    -0.006 C 
ATOM     32  C   UNL     1      36.950 -25.668 -13.953  0.00  0.00    -0.006 C 
ATOM     33  C   UNL     1      38.881 -23.980 -12.856  0.00  0.00    +0.006 C 
ATOM     34  C   UNL     1      38.299 -25.876 -14.236  0.00  0.00    +0.006 C 
ATOM     35  C   UNL     1      39.266 -25.033 -13.687  0.00  0.00    +0.075 C 
BRANCH  35  37
ATOM     36  O   UNL     1      41.230 -26.351 -14.038  0.00  0.00    -0.245 OA
ATOM     37  C   UNL     1      40.672 -25.250 -13.981  0.00  0.00    +0.338 C 
BRANCH  37  38
ATOM     38  O   UNL     1      41.344 -24.087 -14.199  0.00  0.00    -0.477 OA
ATOM     39  H   UNL     1      42.282 -24.082 -14.209  0.00  0.00    +0.295 HD
ENDBRANCH  37  38
ENDBRANCH  35  37
ENDBRANCH  29  30
ENDBRANCH   2  29
TORSDOF 9
ENDMDL
MODEL 3
REMARK VINA RESULT:     -11.2      2.102      3.318
REMARK  Name = 68488178
REMARK  9 active torsions:
REMARK  status: ('A' for Active; 'I' for Inactive)
REMARK    1  A    between atoms: N_1  and  C_10
REMARK    2  A    between atoms: N_2  and  C_29
REMARK    3  A    between atoms: C_10  and  C_11
REMARK    4  A    between atoms: C_16  and  O_17
REMARK    5  A    between atoms: O_17  and  C_18
REMARK    6  A    between atoms: C_23  and  C_26
REMARK    7  A    between atoms: C_29  and  C_30
REMARK    8  A    between atoms: C_35  and  C_37
REMARK    9  A    between atoms: C_37  and  O_38
REMARK                            x       y       z     vdW  Elec       q    Type
REMARK                         _______ _______ _______ _____ _____    ______ ____
ROOT
ATOM      1  N   UNL     1      33.669 -13.991 -21.892  0.00  0.00    +0.388 N 
ATOM      2  N   UNL     1      31.761 -12.293 -20.741  0.00  0.00    +0.388 N 
ATOM      3  C   UNL     1      33.781 -13.494 -20.499  0.00  0.00    -0.081 C 
ATOM      4  C   UNL     1      32.901 -11.785 -21.543  0.00  0.00    -0.081 C 
ATOM      5  C   UNL     1      34.111 -12.021 -20.657  0.00  0.00    -0.046 C 
ATOM      6  C   UNL     1      33.148 -12.826 -22.651  0.00  0.00    -0.098 C 
ATOM      7  C   UNL     1      32.343 -13.410 -19.955  0.00  0.00    -0.098 C 
ATOM      8  H   UNL     1      33.057 -14.805 -21.959  0.00  0.00    -0.079 HD
ATOM      9  H   UNL     1      30.984 -12.594 -21.330  0.00  0.00    -0.079 HD
ENDROOT
BRANCH   1  10
ATOM     10  C   UNL     1      34.942 -14.466 -22.422  0.00  0.00    -0.050 C 
BRANCH  10  11
ATOM     11  C   UNL     1      35.237 -15.877 -21.991  0.00  0.00    -0.043 C 
ATOM     12  C   UNL     1      35.317 -16.895 -22.943  0.00  0.00    -0.003 C 
ATOM     13  C   UNL     1      35.431 -16.169 -20.641  0.00  0.00    -0.003 C 
ATOM     14  C   UNL     1      35.590 -18.203 -22.545  0.00  0.00    +0.037 C 
ATOM     15  C   UNL     1      35.705 -17.477 -20.242  0.00  0.00    +0.037 C 
ATOM     16  C   UNL     1      35.784 -18.494 -21.194  0.00  0.00    +0.145 C 
BRANCH  16  17
ATOM     17  O   UNL     1      36.050 -19.771 -20.805  0.00  0.00    -0.453 OA
BRANCH  17  18
ATOM     18  C   UNL     1      35.238 -20.330 -19.832  0.00  0.00    +0.145 C 
ATOM     19  C   UNL     1      35.801 -21.087 -18.805  0.00  0.00    +0.038 C 
ATOM     20  C   UNL     1      33.857 -20.137 -19.880  0.00  0.00    +0.038 C 
ATOM     21  C   UNL     1      34.983 -21.653 -17.827  0.00  0.00    +0.008 C 
ATOM     22  C   UNL     1      33.040 -20.702 -18.903  0.00  0.00    +0.008 C 
ATOM     23  C   UNL     1      33.602 -21.461 -17.875  0.00  0.00    +0.054 C 
BRANCH  23  26
ATOM     24  O   UNL     1      31.433 -21.747 -16.972  0.00  0.00    -0.431 OA
ATOM     25  N   UNL     1      33.078 -22.824 -15.855  0.00  0.00    -0.206 NA
ATOM     26  C   UNL     1      32.756 -22.046 -16.864  0.00  0.00    +0.230 C 
ATOM     27  C   UNL     1      30.870 -22.406 -15.922  0.00  0.00    +0.202 C 
ATOM     28  C   UNL     1      31.872 -23.059 -15.248  0.00  0.00    +0.143 C 
ENDBRANCH  23  26
ENDBRANCH  17  18
ENDBRANCH  16  17
ENDBRANCH  10  11
ENDBRANCH   1  10
BRANCH   2  29
ATOM     29  C   UNL     1      31.174 -11.267 -19.886  0.00  0.00    -0.050 C 
BRANCH  29  30
ATOM     30  C   UNL     1      31.515  -9.880 -20.360  0.00  0.00    -0.043 C 
ATOM     31  C   UNL     1      32.117  -8.972 -19.487  0.00  0.00    -0.006 C 
ATOM     32  C   UNL     1      31.230  -9.501 -21.672  0.00  0.00    -0.006 C 
ATOM     33  C   UNL     1      32.431  -7.687 -19.927  0.00  0.00    +0.006 C 
ATOM     34  C   UNL     1      31.544  -8.215 -22.111  0.00  0.00    +0.006 C 
ATOM     35  C   UNL     1      32.147  -7.308 -21.239  0.00  0.00    +0.075 C 
BRANCH  35  37
ATOM     36  O   UNL     1      32.624  -5.630 -22.875  0.00  0.00    -0.245 OA
ATOM     37  C   UNL     1      32.476  -5.968 -21.696  0.00  0.00    +0.338 C 
BRANCH  37  38
ATOM     38  O   UNL     1      32.609  -5.085 -20.669  0.00  0.00    -0.477 OA
ATOM     39  H   UNL     1      32.141  -4.274 -20.684  0.00  0.00    +0.295 HD
ENDBRANCH  37  38
ENDBRANCH  35  37
ENDBRANCH  29  30
ENDBRANCH   2  29
TORSDOF 9
ENDMDL
MODEL 4
REMARK VINA RESULT:     -11.2      2.831     12.554
REMARK  Name = 68488178
REMARK  9 active torsions:
REMARK  status: ('A' for Active; 'I' for Inactive)
REMARK    1  A    between atoms: N_1  and  C_10
REMARK    2  A    between atoms: N_2  and  C_29
REMARK    3  A    between atoms: C_10  and  C_11
REMARK    4  A    between atoms: C_16  and  O_17
REMARK    5  A    between atoms: O_17  and  C_18
REMARK    6  A    between atoms: C_23  and  C_26
REMARK    7  A    between atoms: C_29  and  C_30
REMARK    8  A    between atoms: C_35  and  C_37
REMARK    9  A    between atoms: C_37  and  O_38
REMARK                            x       y       z     vdW  Elec       q    Type
REMARK                         _______ _______ _______ _____ _____    ______ ____
ROOT
ATOM      1  N   UNL     1      35.174 -16.507 -21.446  0.00  0.00    +0.388 N 
ATOM      2  N   UNL     1      35.431 -19.124 -20.477  0.00  0.00    +0.388 N 
ATOM      3  C   UNL     1      35.743 -17.607 -22.261  0.00  0.00    -0.081 C 
ATOM      4  C   UNL     1      36.465 -18.085 -20.253  0.00  0.00    -0.081 C 
ATOM      5  C   UNL     1      37.091 -17.885 -21.621  0.00  0.00    -0.046 C 
ATOM      6  C   UNL     1      35.711 -16.753 -20.083  0.00  0.00    -0.098 C 
ATOM      7  C   UNL     1      34.971 -18.880 -21.868  0.00  0.00    -0.098 C 
ATOM      8  H   UNL     1      34.154 -16.504 -21.468  0.00  0.00    -0.079 HD
ATOM      9  H   UNL     1      34.671 -19.059 -19.799  0.00  0.00    -0.079 HD
ENDROOT
BRANCH   1  10
ATOM     10  C   UNL     1      35.539 -15.188 -21.949  0.00  0.00    -0.050 C 
BRANCH  10  11
ATOM     11  C   UNL     1      34.399 -14.211 -21.840  0.00  0.00    -0.043 C 
ATOM     12  C   UNL     1      33.826 -13.945 -20.596  0.00  0.00    -0.003 C 
ATOM     13  C   UNL     1      33.916 -13.572 -22.982  0.00  0.00    -0.003 C 
ATOM     14  C   UNL     1      32.769 -13.040 -20.495  0.00  0.00    +0.037 C 
ATOM     15  C   UNL     1      32.860 -12.666 -22.881  0.00  0.00    +0.037 C 
ATOM     16  C   UNL     1      32.286 -12.400 -21.637  0.00  0.00    +0.145 C 
BRANCH  16  17
ATOM     17  O   UNL     1      31.255 -11.518 -21.538  0.00  0.00    -0.453 OA
BRANCH  17  18
ATOM     18  C   UNL     1      31.532 -10.258 -21.032  0.00  0.00    +0.145 C 
ATOM     19  C   UNL     1      31.720 -10.085 -19.661  0.00  0.00    +0.038 C 
ATOM     20  C   UNL     1      31.621  -9.165 -21.892  0.00  0.00    +0.038 C 
ATOM     21  C   UNL     1      31.995  -8.816 -19.150  0.00  0.00    +0.008 C 
ATOM     22  C   UNL     1      31.896  -7.896 -21.382  0.00  0.00    +0.008 C 
ATOM     23  C   UNL     1      32.084  -7.722 -20.010  0.00  0.00    +0.054 C 
BRANCH  23  26
ATOM     24  O   UNL     1      32.454  -5.418 -20.411  0.00  0.00    -0.431 OA
ATOM     25  N   UNL     1      32.557  -6.035 -18.237  0.00  0.00    -0.206 NA
ATOM     26  C   UNL     1      32.369  -6.410 -19.482  0.00  0.00    +0.230 C 
ATOM     27  C   UNL     1      32.725  -4.309 -19.668  0.00  0.00    +0.202 C 
ATOM     28  C   UNL     1      32.785  -4.688 -18.350  0.00  0.00    +0.143 C 
ENDBRANCH  23  26
ENDBRANCH  17  18
ENDBRANCH  16  17
ENDBRANCH  10  11
ENDBRANCH   1  10
BRANCH   2  29
ATOM     29  C   UNL     1      35.945 -20.477 -20.298  0.00  0.00    -0.050 C 
BRANCH  29  30
ATOM     30  C   UNL     1      35.598 -21.034 -18.944  0.00  0.00    -0.043 C 
ATOM     31  C   UNL     1      36.551 -21.036 -17.926  0.00  0.00    -0.006 C 
ATOM     32  C   UNL     1      34.323 -21.550 -18.708  0.00  0.00    -0.006 C 
ATOM     33  C   UNL     1      36.229 -21.554 -16.672  0.00  0.00    +0.006 C 
ATOM     34  C   UNL     1      34.002 -22.067 -17.454  0.00  0.00    +0.006 C 
ATOM     35  C   UNL     1      34.955 -22.069 -16.434  0.00  0.00    +0.075 C 
BRANCH  35  37
ATOM     36  O   UNL     1      33.804 -23.509 -14.911  0.00  0.00    -0.245 OA
ATOM     37  C   UNL     1      34.620 -22.607 -15.126  0.00  0.00    +0.338 C 
BRANCH  37  38
ATOM     38  O   UNL     1      35.314 -22.005 -14.122  0.00  0.00    -0.477 OA
ATOM     39  H   UNL     1      35.199 -21.089 -13.956  0.00  0.00    +0.295 HD
ENDBRANCH  37  38
ENDBRANCH  35  37
ENDBRANCH  29  30
ENDBRANCH   2  29
TORSDOF 9
ENDMDL
MODEL 5
REMARK VINA RESULT:     -11.0      3.535      7.057
REMARK  Name = 68488178
REMARK  9 active torsions:
REMARK  status: ('A' for Active; 'I' for Inactive)
REMARK    1  A    between atoms: N_1  and  C_10
REMARK    2  A    between atoms: N_2  and  C_29
REMARK    3  A    between atoms: C_10  and  C_11
REMARK    4  A    between atoms: C_16  and  O_17
REMARK    5  A    between atoms: O_17  and  C_18
REMARK    6  A    between atoms: C_23  and  C_26
REMARK    7  A    between atoms: C_29  and  C_30
REMARK    8  A    between atoms: C_35  and  C_37
REMARK    9  A    between atoms: C_37  and  O_38
REMARK                            x       y       z     vdW  Elec       q    Type
REMARK                         _______ _______ _______ _____ _____    ______ ____
ROOT
ATOM      1  N   UNL     1      34.932 -18.502 -21.030  0.00  0.00    +0.388 N 
ATOM      2  N   UNL     1      34.862 -15.834 -21.883  0.00  0.00    +0.388 N 
ATOM      3  C   UNL     1      35.991 -17.525 -20.680  0.00  0.00    -0.081 C 
ATOM      4  C   UNL     1      35.441 -16.922 -22.710  0.00  0.00    -0.081 C 
ATOM      5  C   UNL     1      36.725 -17.291 -21.988  0.00  0.00    -0.046 C 
ATOM      6  C   UNL     1      34.588 -18.174 -22.436  0.00  0.00    -0.098 C 
ATOM      7  C   UNL     1      35.286 -16.169 -20.500  0.00  0.00    -0.098 C 
ATOM      8  H   UNL     1      34.128 -18.433 -20.405  0.00  0.00    -0.079 HD
ATOM      9  H   UNL     1      33.847 -15.781 -21.978  0.00  0.00    -0.079 HD
ENDROOT
BRANCH   1  10
ATOM     10  C   UNL     1      35.372 -19.884 -20.881  0.00  0.00    -0.050 C 
BRANCH  10  11
ATOM     11  C   UNL     1      34.642 -20.588 -19.768  0.00  0.00    -0.043 C 
ATOM     12  C   UNL     1      33.347 -20.198 -19.427  0.00  0.00    -0.003 C 
ATOM     13  C   UNL     1      35.262 -21.631 -19.078  0.00  0.00    -0.003 C 
ATOM     14  C   UNL     1      32.671 -20.850 -18.396  0.00  0.00    +0.037 C 
ATOM     15  C   UNL     1      34.585 -22.283 -18.047  0.00  0.00    +0.037 C 
ATOM     16  C   UNL     1      33.290 -21.892 -17.706  0.00  0.00    +0.145 C 
BRANCH  16  17
ATOM     17  O   UNL     1      32.630 -22.528 -16.699  0.00  0.00    -0.453 OA
BRANCH  17  18
ATOM     18  C   UNL     1      33.316 -22.741 -15.514  0.00  0.00    +0.145 C 
ATOM     19  C   UNL     1      32.641 -23.232 -14.397  0.00  0.00    +0.038 C 
ATOM     20  C   UNL     1      34.681 -22.464 -15.439  0.00  0.00    +0.038 C 
ATOM     21  C   UNL     1      33.330 -23.444 -13.203  0.00  0.00    +0.008 C 
ATOM     22  C   UNL     1      35.370 -22.676 -14.245  0.00  0.00    +0.008 C 
ATOM     23  C   UNL     1      34.695 -23.167 -13.127  0.00  0.00    +0.054 C 
BRANCH  23  26
ATOM     24  O   UNL     1      36.531 -22.634 -11.731  0.00  0.00    -0.431 OA
ATOM     25  N   UNL     1      35.131 -24.205 -10.903  0.00  0.00    -0.206 NA
ATOM     26  C   UNL     1      35.408 -23.386 -11.892  0.00  0.00    +0.230 C 
ATOM     27  C   UNL     1      37.004 -23.025 -10.515  0.00  0.00    +0.202 C 
ATOM     28  C   UNL     1      36.151 -23.977 -10.016  0.00  0.00    +0.143 C 
ENDBRANCH  23  26
ENDBRANCH  17  18
ENDBRANCH  16  17
ENDBRANCH  10  11
ENDBRANCH   1  10
BRANCH   2  29
ATOM     29  C   UNL     1      35.322 -14.512 -22.293  0.00  0.00    -0.050 C 
BRANCH  29  30
ATOM     30  C   UNL     1      34.311 -13.443 -21.972  0.00  0.00    -0.043 C 
ATOM     31  C   UNL     1      34.139 -12.364 -22.840  0.00  0.00    -0.006 C 
ATOM     32  C   UNL     1      33.548 -13.531 -20.807  0.00  0.00    -0.006 C 
ATOM     33  C   UNL     1      33.204 -11.374 -22.542  0.00  0.00    +0.006 C 
ATOM     34  C   UNL     1      32.614 -12.540 -20.510  0.00  0.00    +0.006 C 
ATOM     35  C   UNL     1      32.440 -11.461 -21.378  0.00  0.00    +0.075 C 
BRANCH  35  37
ATOM     36  O   UNL     1      31.566  -9.235 -21.368  0.00  0.00    -0.245 OA
ATOM     37  C   UNL     1      31.465 -10.429 -21.068  0.00  0.00    +0.338 C 
BRANCH  37  38
ATOM     38  O   UNL     1      30.388 -10.916 -20.393  0.00  0.00    -0.477 OA
ATOM     39  H   UNL     1      30.450 -11.734 -19.939  0.00  0.00    +0.295 HD
ENDBRANCH  37  38
ENDBRANCH  35  37
ENDBRANCH  29  30
ENDBRANCH   2  29
TORSDOF 9
ENDMDL
MODEL 6
REMARK VINA RESULT:     -11.0      2.820     12.820
REMARK  Name = 68488178
REMARK  9 active torsions:
REMARK  status: ('A' for Active; 'I' for Inactive)
REMARK    1  A    between atoms: N_1  and  C_10
REMARK    2  A    between atoms: N_2  and  C_29
REMARK    3  A    between atoms: C_10  and  C_11
REMARK    4  A    between atoms: C_16  and  O_17
REMARK    5  A    between atoms: O_17  and  C_18
REMARK    6  A    between atoms: C_23  and  C_26
REMARK    7  A    between atoms: C_29  and  C_30
REMARK    8  A    between atoms: C_35  and  C_37
REMARK    9  A    between atoms: C_37  and  O_38
REMARK                            x       y       z     vdW  Elec       q    Type
REMARK                         _______ _______ _______ _____ _____    ______ ____
ROOT
ATOM      1  N   UNL     1      34.881 -16.277 -21.557  0.00  0.00    +0.388 N 
ATOM      2  N   UNL     1      35.294 -18.886 -20.623  0.00  0.00    +0.388 N 
ATOM      3  C   UNL     1      35.449 -17.349 -22.410  0.00  0.00    -0.081 C 
ATOM      4  C   UNL     1      36.297 -17.807 -20.446  0.00  0.00    -0.081 C 
ATOM      5  C   UNL     1      36.839 -17.575 -21.845  0.00  0.00    -0.046 C 
ATOM      6  C   UNL     1      35.500 -16.508 -20.227  0.00  0.00    -0.098 C 
ATOM      7  C   UNL     1      34.751 -18.654 -21.985  0.00  0.00    -0.098 C 
ATOM      8  H   UNL     1      33.861 -16.315 -21.524  0.00  0.00    -0.079 HD
ATOM      9  H   UNL     1      34.570 -18.856 -19.904  0.00  0.00    -0.079 HD
ENDROOT
BRANCH   1  10
ATOM     10  C   UNL     1      35.165 -14.942 -22.070  0.00  0.00    -0.050 C 
BRANCH  10  11
ATOM     11  C   UNL     1      34.176 -13.925 -21.565  0.00  0.00    -0.043 C 
ATOM     12  C   UNL     1      33.861 -12.812 -22.346  0.00  0.00    -0.003 C 
ATOM     13  C   UNL     1      33.576 -14.095 -20.317  0.00  0.00    -0.003 C 
ATOM     14  C   UNL     1      32.945 -11.869 -21.879  0.00  0.00    +0.037 C 
ATOM     15  C   UNL     1      32.660 -13.152 -19.850  0.00  0.00    +0.037 C 
ATOM     16  C   UNL     1      32.345 -12.039 -20.631  0.00  0.00    +0.145 C 
BRANCH  16  17
ATOM     17  O   UNL     1      31.451 -11.119 -20.175  0.00  0.00    -0.453 OA
BRANCH  17  18
ATOM     18  C   UNL     1      31.611  -9.807 -20.588  0.00  0.00    +0.145 C 
ATOM     19  C   UNL     1      32.171  -8.867 -19.723  0.00  0.00    +0.038 C 
ATOM     20  C   UNL     1      31.212  -9.425 -21.869  0.00  0.00    +0.038 C 
ATOM     21  C   UNL     1      32.329  -7.545 -20.137  0.00  0.00    +0.008 C 
ATOM     22  C   UNL     1      31.370  -8.103 -22.283  0.00  0.00    +0.008 C 
ATOM     23  C   UNL     1      31.929  -7.162 -21.418  0.00  0.00    +0.054 C 
BRANCH  23  26
ATOM     24  O   UNL     1      32.065  -5.603 -23.194  0.00  0.00    -0.431 OA
ATOM     25  N   UNL     1      32.264  -4.710 -21.126  0.00  0.00    -0.206 NA
ATOM     26  C   UNL     1      32.093  -5.795 -21.847  0.00  0.00    +0.230 C 
ATOM     27  C   UNL     1      32.237  -4.258 -23.328  0.00  0.00    +0.202 C 
ATOM     28  C   UNL     1      32.357  -3.721 -22.071  0.00  0.00    +0.143 C 
ENDBRANCH  23  26
ENDBRANCH  17  18
ENDBRANCH  16  17
ENDBRANCH  10  11
ENDBRANCH   1  10
BRANCH   2  29
ATOM     29  C   UNL     1      35.871 -20.218 -20.482  0.00  0.00    -0.050 C 
BRANCH  29  30
ATOM     30  C   UNL     1      35.458 -20.874 -19.191  0.00  0.00    -0.043 C 
ATOM     31  C   UNL     1      36.366 -20.970 -18.136  0.00  0.00    -0.006 C 
ATOM     32  C   UNL     1      34.168 -21.388 -19.051  0.00  0.00    -0.006 C 
ATOM     33  C   UNL     1      35.983 -21.578 -16.942  0.00  0.00    +0.006 C 
ATOM     34  C   UNL     1      33.786 -21.997 -17.857  0.00  0.00    +0.006 C 
ATOM     35  C   UNL     1      34.693 -22.091 -16.800  0.00  0.00    +0.075 C 
BRANCH  35  37
ATOM     36  O   UNL     1      33.349 -22.373 -14.842  0.00  0.00    -0.245 OA
ATOM     37  C   UNL     1      34.295 -22.725 -15.555  0.00  0.00    +0.338 C 
BRANCH  37  38
ATOM     38  O   UNL     1      35.088 -23.784 -15.232  0.00  0.00    -0.477 OA
ATOM     39  H   UNL     1      35.182 -24.043 -14.336  0.00  0.00    +0.295 HD
ENDBRANCH  37  38
ENDBRANCH  35  37
ENDBRANCH  29  30
ENDBRANCH   2  29
TORSDOF 9
ENDMDL
MODEL 7
REMARK VINA RESULT:     -10.9      3.775     12.436
REMARK  Name = 68488178
REMARK  9 active torsions:
REMARK  status: ('A' for Active; 'I' for Inactive)
REMARK    1  A    between atoms: N_1  and  C_10
REMARK    2  A    between atoms: N_2  and  C_29
REMARK    3  A    between atoms: C_10  and  C_11
REMARK    4  A    between atoms: C_16  and  O_17
REMARK    5  A    between atoms: O_17  and  C_18
REMARK    6  A    between atoms: C_23  and  C_26
REMARK    7  A    between atoms: C_29  and  C_30
REMARK    8  A    between atoms: C_35  and  C_37
REMARK    9  A    between atoms: C_37  and  O_38
REMARK                            x       y       z     vdW  Elec       q    Type
REMARK                         _______ _______ _______ _____ _____    ______ ____
ROOT
ATOM      1  N   UNL     1      34.572 -21.419 -17.902  0.00  0.00    +0.388 N 
ATOM      2  N   UNL     1      32.840 -22.177 -15.834  0.00  0.00    +0.388 N 
ATOM      3  C   UNL     1      33.476 -22.398 -18.099  0.00  0.00    -0.081 C 
ATOM      4  C   UNL     1      34.147 -22.840 -16.064  0.00  0.00    -0.081 C 
ATOM      5  C   UNL     1      33.940 -23.631 -17.344  0.00  0.00    -0.046 C 
ATOM      6  C   UNL     1      35.108 -21.742 -16.556  0.00  0.00    -0.098 C 
ATOM      7  C   UNL     1      32.315 -21.933 -17.202  0.00  0.00    -0.098 C 
ATOM      8  H   UNL     1      34.240 -20.456 -17.969  0.00  0.00    -0.079 HD
ATOM      9  H   UNL     1      32.938 -21.316 -15.295  0.00  0.00    -0.079 HD
ENDROOT
BRANCH   1  10
ATOM     10  C   UNL     1      35.596 -21.507 -18.936  0.00  0.00    -0.050 C 
BRANCH  10  11
ATOM     11  C   UNL     1      35.727 -20.222 -19.708  0.00  0.00    -0.043 C 
ATOM     12  C   UNL     1      36.950 -19.551 -19.743  0.00  0.00    -0.003 C 
ATOM     13  C   UNL     1      34.625 -19.701 -20.388  0.00  0.00    -0.003 C 
ATOM     14  C   UNL     1      37.071 -18.359 -20.458  0.00  0.00    +0.037 C 
ATOM     15  C   UNL     1      34.747 -18.509 -21.103  0.00  0.00    +0.037 C 
ATOM     16  C   UNL     1      35.970 -17.838 -21.138  0.00  0.00    +0.145 C 
BRANCH  16  17
ATOM     17  O   UNL     1      36.088 -16.675 -21.835  0.00  0.00    -0.453 OA
BRANCH  17  18
ATOM     18  C   UNL     1      35.247 -15.630 -21.490  0.00  0.00    +0.145 C 
ATOM     19  C   UNL     1      34.991 -15.355 -20.147  0.00  0.00    +0.038 C 
ATOM     20  C   UNL     1      34.656 -14.853 -22.486  0.00  0.00    +0.038 C 
ATOM     21  C   UNL     1      34.142 -14.305 -19.800  0.00  0.00    +0.008 C 
ATOM     22  C   UNL     1      33.807 -13.802 -22.139  0.00  0.00    +0.008 C 
ATOM     23  C   UNL     1      33.550 -13.527 -20.795  0.00  0.00    +0.054 C 
BRANCH  23  26
ATOM     24  O   UNL     1      32.630 -11.412 -21.325  0.00  0.00    -0.431 OA
ATOM     25  N   UNL     1      31.907 -12.303 -19.376  0.00  0.00    -0.206 NA
ATOM     26  C   UNL     1      32.671 -12.441 -20.436  0.00  0.00    +0.230 C 
ATOM     27  C   UNL     1      31.749 -10.539 -20.762  0.00  0.00    +0.202 C 
ATOM     28  C   UNL     1      31.312 -11.084 -19.581  0.00  0.00    +0.143 C 
ENDBRANCH  23  26
ENDBRANCH  17  18
ENDBRANCH  16  17
ENDBRANCH  10  11
ENDBRANCH   1  10
BRANCH   2  29
ATOM     29  C   UNL     1      31.930 -22.990 -15.035  0.00  0.00    -0.050 C 
BRANCH  29  30
ATOM     30  C   UNL     1      30.493 -22.596 -15.247  0.00  0.00    -0.043 C 
ATOM     31  C   UNL     1      29.873 -21.716 -14.358  0.00  0.00    -0.006 C 
ATOM     32  C   UNL     1      29.781 -23.111 -16.330  0.00  0.00    -0.006 C 
ATOM     33  C   UNL     1      28.541 -21.353 -14.555  0.00  0.00    +0.006 C 
ATOM     34  C   UNL     1      28.449 -22.747 -16.525  0.00  0.00    +0.006 C 
ATOM     35  C   UNL     1      27.829 -21.866 -15.638  0.00  0.00    +0.075 C 
BRANCH  35  37
ATOM     36  O   UNL     1      25.972 -21.018 -16.885  0.00  0.00    -0.245 OA
ATOM     37  C   UNL     1      26.441 -21.486 -15.842  0.00  0.00    +0.338 C 
BRANCH  37  38
ATOM     38  O   UNL     1      25.674 -21.703 -14.738  0.00  0.00    -0.477 OA
ATOM     39  H   UNL     1      24.759 -21.501 -14.756  0.00  0.00    +0.295 HD
ENDBRANCH  37  38
ENDBRANCH  35  37
ENDBRANCH  29  30
ENDBRANCH   2  29
TORSDOF 9
ENDMDL
MODEL 8
REMARK VINA RESULT:     -10.9      2.480     12.619
REMARK  Name = 68488178
REMARK  9 active torsions:
REMARK  status: ('A' for Active; 'I' for Inactive)
REMARK    1  A    between atoms: N_1  and  C_10
REMARK    2  A    between atoms: N_2  and  C_29
REMARK    3  A    between atoms: C_10  and  C_11
REMARK    4  A    between atoms: C_16  and  O_17
REMARK    5  A    between atoms: O_17  and  C_18
REMARK    6  A    between atoms: C_23  and  C_26
REMARK    7  A    between atoms: C_29  and  C_30
REMARK    8  A    between atoms: C_35  and  C_37
REMARK    9  A    between atoms: C_37  and  O_38
REMARK                            x       y       z     vdW  Elec       q    Type
REMARK                         _______ _______ _______ _____ _____    ______ ____
ROOT
ATOM      1  N   UNL     1      35.747 -18.707 -19.884  0.00  0.00    +0.388 N 
ATOM      2  N   UNL     1      34.453 -20.841 -18.611  0.00  0.00    +0.388 N 
ATOM      3  C   UNL     1      34.819 -19.617 -20.598  0.00  0.00    -0.081 C 
ATOM      4  C   UNL     1      35.814 -20.963 -19.190  0.00  0.00    -0.081 C 
ATOM      5  C   UNL     1      35.581 -20.926 -20.690  0.00  0.00    -0.046 C 
ATOM      6  C   UNL     1      36.501 -19.603 -18.971  0.00  0.00    -0.098 C 
ATOM      7  C   UNL     1      33.721 -19.994 -19.586  0.00  0.00    -0.098 C 
ATOM      8  H   UNL     1      35.249 -17.969 -19.383  0.00  0.00    -0.079 HD
ATOM      9  H   UNL     1      34.471 -20.432 -17.676  0.00  0.00    -0.079 HD
ENDROOT
BRANCH   1  10
ATOM     10  C   UNL     1      36.628 -17.980 -20.790  0.00  0.00    -0.050 C 
BRANCH  10  11
ATOM     11  C   UNL     1      35.873 -16.979 -21.624  0.00  0.00    -0.043 C 
ATOM     12  C   UNL     1      35.534 -17.285 -22.943  0.00  0.00    -0.003 C 
ATOM     13  C   UNL     1      35.513 -15.746 -21.079  0.00  0.00    -0.003 C 
ATOM     14  C   UNL     1      34.835 -16.358 -23.716  0.00  0.00    +0.037 C 
ATOM     15  C   UNL     1      34.814 -14.820 -21.852  0.00  0.00    +0.037 C 
ATOM     16  C   UNL     1      34.475 -15.126 -23.171  0.00  0.00    +0.145 C 
BRANCH  16  17
ATOM     17  O   UNL     1      33.794 -14.221 -23.926  0.00  0.00    -0.453 OA
BRANCH  17  18
ATOM     18  C   UNL     1      33.560 -12.970 -23.377  0.00  0.00    +0.145 C 
ATOM     19  C   UNL     1      32.777 -12.848 -22.230  0.00  0.00    +0.038 C 
ATOM     20  C   UNL     1      34.108 -11.834 -23.973  0.00  0.00    +0.038 C 
ATOM     21  C   UNL     1      32.539 -11.589 -21.679  0.00  0.00    +0.008 C 
ATOM     22  C   UNL     1      33.870 -10.575 -23.422  0.00  0.00    +0.008 C 
ATOM     23  C   UNL     1      33.086 -10.452 -22.274  0.00  0.00    +0.054 C 
BRANCH  23  26
ATOM     24  O   UNL     1      33.637  -8.152 -22.175  0.00  0.00    -0.431 OA
ATOM     25  N   UNL     1      31.959  -8.789 -20.800  0.00  0.00    -0.206 NA
ATOM     26  C   UNL     1      32.840  -9.150 -21.705  0.00  0.00    +0.230 C 
ATOM     27  C   UNL     1      33.210  -7.054 -21.492  0.00  0.00    +0.202 C 
ATOM     28  C   UNL     1      32.191  -7.445 -20.660  0.00  0.00    +0.143 C 
ENDBRANCH  23  26
ENDBRANCH  17  18
ENDBRANCH  16  17
ENDBRANCH  10  11
ENDBRANCH   1  10
BRANCH   2  29
ATOM     29  C   UNL     1      33.808 -22.134 -18.414  0.00  0.00    -0.050 C 
BRANCH  29  30
ATOM     30  C   UNL     1      33.412 -22.350 -16.978  0.00  0.00    -0.043 C 
ATOM     31  C   UNL     1      34.390 -22.605 -16.016  0.00  0.00    -0.006 C 
ATOM     32  C   UNL     1      32.068 -22.297 -16.609  0.00  0.00    -0.006 C 
ATOM     33  C   UNL     1      34.023 -22.806 -14.686  0.00  0.00    +0.006 C 
ATOM     34  C   UNL     1      31.701 -22.499 -15.279  0.00  0.00    +0.006 C 
ATOM     35  C   UNL     1      32.679 -22.752 -14.316  0.00  0.00    +0.075 C 
BRANCH  35  37
ATOM     36  O   UNL     1      31.197 -23.370 -12.543  0.00  0.00    -0.245 OA
ATOM     37  C   UNL     1      32.297 -22.961 -12.930  0.00  0.00    +0.338 C 
BRANCH  37  38
ATOM     38  O   UNL     1      33.300 -22.656 -12.061  0.00  0.00    -0.477 OA
ATOM     39  H   UNL     1      33.135 -22.646 -11.139  0.00  0.00    +0.295 HD
ENDBRANCH  37  38
ENDBRANCH  35  37
ENDBRANCH  29  30
ENDBRANCH   2  29
TORSDOF 9
ENDMDL
MODEL 9
REMARK VINA RESULT:     -10.8      3.459     14.066
REMARK  Name = 68488178
REMARK  9 active torsions:
REMARK  status: ('A' for Active; 'I' for Inactive)
REMARK    1  A    between atoms: N_1  and  C_10
REMARK    2  A    between atoms: N_2  and  C_29
REMARK    3  A    between atoms: C_10  and  C_11
REMARK    4  A    between atoms: C_16  and  O_17
REMARK    5  A    between atoms: O_17  and  C_18
REMARK    6  A    between atoms: C_23  and  C_26
REMARK    7  A    between atoms: C_29  and  C_30
REMARK    8  A    between atoms: C_35  and  C_37
REMARK    9  A    between atoms: C_37  and  O_38
REMARK                            x       y       z     vdW  Elec       q    Type
REMARK                         _______ _______ _______ _____ _____    ______ ____
ROOT
ATOM      1  N   UNL     1      33.518 -21.630 -17.214  0.00  0.00    +0.388 N 
ATOM      2  N   UNL     1      34.357 -22.431 -14.663  0.00  0.00    +0.388 N 
ATOM      3  C   UNL     1      32.931 -22.796 -16.511  0.00  0.00    -0.081 C 
ATOM      4  C   UNL     1      35.031 -22.886 -15.904  0.00  0.00    -0.081 C 
ATOM      5  C   UNL     1      34.034 -23.839 -16.538  0.00  0.00    -0.046 C 
ATOM      6  C   UNL     1      34.965 -21.704 -16.889  0.00  0.00    -0.098 C 
ATOM      7  C   UNL     1      32.914 -22.435 -15.014  0.00  0.00    -0.098 C 
ATOM      8  H   UNL     1      33.096 -20.751 -16.913  0.00  0.00    -0.079 HD
ATOM      9  H   UNL     1      34.683 -21.510 -14.366  0.00  0.00    -0.079 HD
ENDROOT
BRANCH   1  10
ATOM     10  C   UNL     1      33.276 -21.661 -18.651  0.00  0.00    -0.050 C 
BRANCH  10  11
ATOM     11  C   UNL     1      34.060 -20.599 -19.375  0.00  0.00    -0.043 C 
ATOM     12  C   UNL     1      33.405 -19.701 -20.218  0.00  0.00    -0.003 C 
ATOM     13  C   UNL     1      35.442 -20.513 -19.203  0.00  0.00    -0.003 C 
ATOM     14  C   UNL     1      34.131 -18.718 -20.889  0.00  0.00    +0.037 C 
ATOM     15  C   UNL     1      36.169 -19.529 -19.874  0.00  0.00    +0.037 C 
ATOM     16  C   UNL     1      35.513 -18.632 -20.717  0.00  0.00    +0.145 C 
BRANCH  16  17
ATOM     17  O   UNL     1      36.222 -17.672 -21.373  0.00  0.00    -0.453 OA
BRANCH  17  18
ATOM     18  C   UNL     1      35.628 -16.432 -21.536  0.00  0.00    +0.145 C 
ATOM     19  C   UNL     1      35.384 -15.939 -22.818  0.00  0.00    +0.038 C 
ATOM     20  C   UNL     1      35.276 -15.675 -20.419  0.00  0.00    +0.038 C 
ATOM     21  C   UNL     1      34.789 -14.688 -22.982  0.00  0.00    +0.008 C 
ATOM     22  C   UNL     1      34.681 -14.424 -20.583  0.00  0.00    +0.008 C 
ATOM     23  C   UNL     1      34.437 -13.930 -21.865  0.00  0.00    +0.054 C 
BRANCH  23  26
ATOM     24  O   UNL     1      34.473 -11.793 -22.883  0.00  0.00    -0.431 OA
ATOM     25  N   UNL     1      32.728 -12.156 -21.491  0.00  0.00    -0.206 NA
ATOM     26  C   UNL     1      33.822 -12.637 -22.035  0.00  0.00    +0.230 C 
ATOM     27  C   UNL     1      33.704 -10.669 -22.866  0.00  0.00    +0.202 C 
ATOM     28  C   UNL     1      32.646 -10.894 -22.020  0.00  0.00    +0.143 C 
ENDBRANCH  23  26
ENDBRANCH  17  18
ENDBRANCH  16  17
ENDBRANCH  10  11
ENDBRANCH   1  10
BRANCH   2  29
ATOM     29  C   UNL     1      34.645 -23.290 -13.520  0.00  0.00    -0.050 C 
BRANCH  29  30
ATOM     30  C   UNL     1      36.062 -23.799 -13.545  0.00  0.00    -0.043 C 
ATOM     31  C   UNL     1      37.066 -23.099 -12.876  0.00  0.00    -0.006 C 
ATOM     32  C   UNL     1      36.370 -24.970 -14.238  0.00  0.00    -0.006 C 
ATOM     33  C   UNL     1      38.378 -23.570 -12.901  0.00  0.00    +0.006 C 
ATOM     34  C   UNL     1      37.682 -25.441 -14.262  0.00  0.00    +0.006 C 
ATOM     35  C   UNL     1      38.687 -24.742 -13.592  0.00  0.00    +0.075 C 
BRANCH  35  37
ATOM     36  O   UNL     1      40.398 -26.385 -13.902  0.00  0.00    -0.245 OA
ATOM     37  C   UNL     1      40.055 -25.233 -13.617  0.00  0.00    +0.338 C 
BRANCH  37  38
ATOM     38  O   UNL     1      40.959 -24.271 -13.285  0.00  0.00    -0.477 OA
ATOM     39  H   UNL     1      41.008 -23.480 -13.786  0.00  0.00    +0.295 HD
ENDBRANCH  37  38
ENDBRANCH  35  37
ENDBRANCH  29  30
ENDBRANCH   2  29
TORSDOF 9
ENDMDL
