MODEL 1
REMARK VINA RESULT:     -11.7      0.000      0.000
REMARK  Name = 11659487
REMARK  5 active torsions:
REMARK  status: ('A' for Active; 'I' for Inactive)
REMARK    1  A    between atoms: C_1  and  C_15
REMARK    2  A    between atoms: C_2  and  C_7
REMARK    3  A    between atoms: C_10  and  O_13
REMARK    4  A    between atoms: C_15  and  C_16
REMARK    5  A    between atoms: C_16  and  C_18
REMARK                            x       y       z     vdW  Elec       q    Type
REMARK                         _______ _______ _______ _____ _____    ______ ____
ROOT
ATOM      1  C   UNL     1      34.418 -20.609 -19.016  0.00  0.00    -0.022 C 
ATOM      2  C   UNL     1      35.353 -19.088 -20.644  0.00  0.00    -0.000 C 
ATOM      3  C   UNL     1      34.245 -19.717 -20.074  0.00  0.00    -0.004 C 
ATOM      4  C   UNL     1      35.698 -20.875 -18.530  0.00  0.00    -0.004 C 
ATOM      5  C   UNL     1      36.633 -19.354 -20.158  0.00  0.00    -0.000 C 
ATOM      6  C   UNL     1      36.806 -20.248 -19.101  0.00  0.00    -0.000 C 
ENDROOT
BRANCH   2   7
ATOM      7  C   UNL     1      35.173 -18.161 -21.740  0.00  0.00    +0.003 C 
ATOM      8  C   UNL     1      35.492 -16.814 -21.574  0.00  0.00    +0.037 C 
ATOM      9  C   UNL     1      34.684 -18.615 -22.964  0.00  0.00    +0.000 C 
ATOM     10  C   UNL     1      35.319 -15.920 -22.631  0.00  0.00    +0.139 C 
ATOM     11  C   UNL     1      34.511 -17.722 -24.022  0.00  0.00    +0.003 C 
ATOM     12  C   UNL     1      34.829 -16.374 -23.855  0.00  0.00    +0.037 C 
BRANCH  10  13
ATOM     13  O   UNL     1      35.630 -14.604 -22.468  0.00  0.00    -0.471 OA
ATOM     14  C   UNL     1      34.554 -13.670 -22.529  0.00  0.00    +0.252 C 
ENDBRANCH  10  13
ENDBRANCH   2   7
BRANCH   1  15
ATOM     15  C   UNL     1      33.235 -21.281 -18.405  0.00  0.00    +0.034 C 
BRANCH  15  16
ATOM     16  C   UNL     1      33.584 -22.234 -17.245  0.00  0.00    +0.064 C 
BRANCH  16  18
ATOM     17  N   UNL     1      31.224 -22.167 -16.702  0.00  0.00    -0.396 NA
ATOM     18  C   UNL     1      32.468 -22.377 -16.237  0.00  0.00    +0.110 C 
ATOM     19  C   UNL     1      32.788 -22.706 -14.938  0.00  0.00    +0.023 C 
ATOM     20  C   UNL     1      31.738 -22.830 -14.035  0.00  0.00    -0.015 C 
ATOM     21  C   UNL     1      30.230 -22.295 -15.797  0.00  0.00    +0.158 C 
ATOM     22  C   UNL     1      30.432 -22.623 -14.465  0.00  0.00    +0.100 C 
ATOM     23  N   UNL     1      28.893 -22.088 -16.218  0.00  0.00    -0.336 N 
ATOM     24  H   UNL     1      28.704 -21.854 -17.155  0.00  0.00    +0.144 HD
ATOM     25  H   UNL     1      28.154 -22.177 -15.573  0.00  0.00    +0.144 HD
ENDBRANCH  16  18
ENDBRANCH  15  16
ENDBRANCH   1  15
TORSDOF 5
ENDMDL
MODEL 2
REMARK VINA RESULT:     -11.6      1.314      1.726
REMARK  Name = 11659487
REMARK  5 active torsions:
REMARK  status: ('A' for Active; 'I' for Inactive)
REMARK    1  A    between atoms: C_1  and  C_15
REMARK    2  A    between atoms: C_2  and  C_7
REMARK    3  A    between atoms: C_10  and  O_13
REMARK    4  A    between atoms: C_15  and  C_16
REMARK    5  A    between atoms: C_16  and  C_18
REMARK                            x       y       z     vdW  Elec       q    Type
REMARK                         _______ _______ _______ _____ _____    ______ ____
ROOT
ATOM      1  C   UNL     1      34.473 -20.629 -18.983  0.00  0.00    -0.022 C 
ATOM      2  C   UNL     1      35.383 -19.079 -20.597  0.00  0.00    -0.000 C 
ATOM      3  C   UNL     1      34.285 -19.725 -20.028  0.00  0.00    -0.004 C 
ATOM      4  C   UNL     1      35.759 -20.890 -18.509  0.00  0.00    -0.004 C 
ATOM      5  C   UNL     1      36.669 -19.338 -20.123  0.00  0.00    -0.000 C 
ATOM      6  C   UNL     1      36.857 -20.244 -19.078  0.00  0.00    -0.000 C 
ENDROOT
BRANCH   2   7
ATOM      7  C   UNL     1      35.188 -18.139 -21.680  0.00  0.00    +0.003 C 
ATOM      8  C   UNL     1      35.480 -16.788 -21.492  0.00  0.00    +0.037 C 
ATOM      9  C   UNL     1      34.710 -18.584 -22.912  0.00  0.00    +0.000 C 
ATOM     10  C   UNL     1      35.292 -15.883 -22.537  0.00  0.00    +0.139 C 
ATOM     11  C   UNL     1      34.521 -17.679 -23.956  0.00  0.00    +0.003 C 
ATOM     12  C   UNL     1      34.813 -16.328 -23.769  0.00  0.00    +0.037 C 
BRANCH  10  13
ATOM     13  O   UNL     1      35.576 -14.563 -22.354  0.00  0.00    -0.471 OA
ATOM     14  C   UNL     1      34.578 -13.623 -22.744  0.00  0.00    +0.252 C 
ENDBRANCH  10  13
ENDBRANCH   2   7
BRANCH   1  15
ATOM     15  C   UNL     1      33.300 -21.321 -18.374  0.00  0.00    +0.034 C 
BRANCH  15  16
ATOM     16  C   UNL     1      33.668 -22.564 -17.540  0.00  0.00    +0.064 C 
BRANCH  16  18
ATOM     17  N   UNL     1      33.807 -22.841 -15.138  0.00  0.00    -0.396 NA
ATOM     18  C   UNL     1      33.002 -22.589 -16.185  0.00  0.00    +0.110 C 
ATOM     19  C   UNL     1      31.646 -22.359 -16.110  0.00  0.00    +0.023 C 
ATOM     20  C   UNL     1      31.064 -22.388 -14.847  0.00  0.00    -0.015 C 
ATOM     21  C   UNL     1      33.206 -22.863 -13.928  0.00  0.00    +0.158 C 
ATOM     22  C   UNL     1      31.851 -22.645 -13.731  0.00  0.00    +0.100 C 
ATOM     23  N   UNL     1      33.995 -23.121 -12.780  0.00  0.00    -0.336 N 
ATOM     24  H   UNL     1      34.961 -23.282 -12.873  0.00  0.00    +0.144 HD
ATOM     25  H   UNL     1      33.576 -23.141 -11.889  0.00  0.00    +0.144 HD
ENDBRANCH  16  18
ENDBRANCH  15  16
ENDBRANCH   1  15
TORSDOF 5
ENDMDL
MODEL 3
REMARK VINA RESULT:     -11.4      4.480      8.458
REMARK  Name = 11659487
REMARK  5 active torsions:
REMARK  status: ('A' for Active; 'I' for Inactive)
REMARK    1  A    between atoms: C_1  and  C_15
REMARK    2  A    between atoms: C_2  and  C_7
REMARK    3  A    between atoms: C_10  and  O_13
REMARK    4  A    between atoms: C_15  and  C_16
REMARK    5  A    between atoms: C_16  and  C_18
REMARK                            x       y       z     vdW  Elec       q    Type
REMARK                         _______ _______ _______ _____ _____    ______ ____
ROOT
ATOM      1  C   UNL     1      35.106 -15.952 -21.969  0.00  0.00    -0.022 C 
ATOM      2  C   UNL     1      35.116 -18.284 -21.335  0.00  0.00    -0.000 C 
ATOM      3  C   UNL     1      35.192 -16.936 -20.983  0.00  0.00    -0.004 C 
ATOM      4  C   UNL     1      34.946 -16.317 -23.306  0.00  0.00    -0.004 C 
ATOM      5  C   UNL     1      34.955 -18.648 -22.671  0.00  0.00    -0.000 C 
ATOM      6  C   UNL     1      34.871 -17.665 -23.657  0.00  0.00    -0.000 C 
ENDROOT
BRANCH   2   7
ATOM      7  C   UNL     1      35.203 -19.304 -20.313  0.00  0.00    +0.003 C 
ATOM      8  C   UNL     1      34.046 -19.929 -19.850  0.00  0.00    +0.037 C 
ATOM      9  C   UNL     1      36.445 -19.663 -19.791  0.00  0.00    +0.000 C 
ATOM     10  C   UNL     1      34.130 -20.913 -18.865  0.00  0.00    +0.139 C 
ATOM     11  C   UNL     1      36.531 -20.647 -18.806  0.00  0.00    +0.003 C 
ATOM     12  C   UNL     1      35.372 -21.272 -18.343  0.00  0.00    +0.037 C 
BRANCH  10  13
ATOM     13  O   UNL     1      33.000 -21.523 -18.412  0.00  0.00    -0.471 OA
ATOM     14  C   UNL     1      33.099 -22.252 -17.191  0.00  0.00    +0.252 C 
ENDBRANCH  10  13
ENDBRANCH   2   7
BRANCH   1  15
ATOM     15  C   UNL     1      35.186 -14.511 -21.594  0.00  0.00    +0.034 C 
BRANCH  15  16
ATOM     16  C   UNL     1      34.214 -13.604 -22.374  0.00  0.00    +0.064 C 
BRANCH  16  18
ATOM     17  N   UNL     1      32.854 -11.645 -21.951  0.00  0.00    -0.396 NA
ATOM     18  C   UNL     1      33.274 -12.833 -21.479  0.00  0.00    +0.110 C 
ATOM     19  C   UNL     1      32.916 -13.380 -20.267  0.00  0.00    +0.023 C 
ATOM     20  C   UNL     1      32.048 -12.644 -19.467  0.00  0.00    -0.015 C 
ATOM     21  C   UNL     1      32.014 -10.959 -21.146  0.00  0.00    +0.158 C 
ATOM     22  C   UNL     1      31.584 -11.409 -19.907  0.00  0.00    +0.100 C 
ATOM     23  N   UNL     1      31.530  -9.699 -21.581  0.00  0.00    -0.336 N 
ATOM     24  H   UNL     1      31.809  -9.340 -22.453  0.00  0.00    +0.144 HD
ATOM     25  H   UNL     1      30.917  -9.183 -21.009  0.00  0.00    +0.144 HD
ENDBRANCH  16  18
ENDBRANCH  15  16
ENDBRANCH   1  15
TORSDOF 5
ENDMDL
MODEL 4
REMARK VINA RESULT:     -11.4      4.043      5.178
REMARK  Name = 11659487
REMARK  5 active torsions:
REMARK  status: ('A' for Active; 'I' for Inactive)
REMARK    1  A    between atoms: C_1  and  C_15
REMARK    2  A    between atoms: C_2  and  C_7
REMARK    3  A    between atoms: C_10  and  O_13
REMARK    4  A    between atoms: C_15  and  C_16
REMARK    5  A    between atoms: C_16  and  C_18
REMARK                            x       y       z     vdW  Elec       q    Type
REMARK                         _______ _______ _______ _____ _____    ______ ____
ROOT
ATOM      1  C   UNL     1      36.132 -21.372 -17.240  0.00  0.00    -0.022 C 
ATOM      2  C   UNL     1      35.385 -20.254 -19.247  0.00  0.00    -0.000 C 
ATOM      3  C   UNL     1      36.387 -20.517 -18.312  0.00  0.00    -0.004 C 
ATOM      4  C   UNL     1      34.876 -21.962 -17.102  0.00  0.00    -0.004 C 
ATOM      5  C   UNL     1      34.130 -20.844 -19.110  0.00  0.00    -0.000 C 
ATOM      6  C   UNL     1      33.874 -21.699 -18.037  0.00  0.00    -0.000 C 
ENDROOT
BRANCH   2   7
ATOM      7  C   UNL     1      35.650 -19.369 -20.360  0.00  0.00    +0.003 C 
ATOM      8  C   UNL     1      34.722 -19.251 -21.394  0.00  0.00    +0.037 C 
ATOM      9  C   UNL     1      36.833 -18.631 -20.399  0.00  0.00    +0.000 C 
ATOM     10  C   UNL     1      34.977 -18.396 -22.467  0.00  0.00    +0.139 C 
ATOM     11  C   UNL     1      37.089 -17.777 -21.471  0.00  0.00    +0.003 C 
ATOM     12  C   UNL     1      36.161 -17.659 -22.505  0.00  0.00    +0.037 C 
BRANCH  10  13
ATOM     13  O   UNL     1      34.071 -18.281 -23.477  0.00  0.00    -0.471 OA
ATOM     14  C   UNL     1      34.280 -17.233 -24.421  0.00  0.00    +0.252 C 
ENDBRANCH  10  13
ENDBRANCH   2   7
BRANCH   1  15
ATOM     15  C   UNL     1      37.202 -21.654 -16.240  0.00  0.00    +0.034 C 
BRANCH  15  16
ATOM     16  C   UNL     1      36.678 -22.206 -14.899  0.00  0.00    +0.064 C 
BRANCH  16  18
ATOM     17  N   UNL     1      38.590 -23.518 -14.198  0.00  0.00    -0.396 NA
ATOM     18  C   UNL     1      37.285 -23.537 -14.525  0.00  0.00    +0.110 C 
ATOM     19  C   UNL     1      36.486 -24.658 -14.544  0.00  0.00    +0.023 C 
ATOM     20  C   UNL     1      37.076 -25.868 -14.195  0.00  0.00    -0.015 C 
ATOM     21  C   UNL     1      39.128 -24.711 -13.866  0.00  0.00    +0.158 C 
ATOM     22  C   UNL     1      38.422 -25.904 -13.848  0.00  0.00    +0.100 C 
ATOM     23  N   UNL     1      40.499 -24.764 -13.509  0.00  0.00    -0.336 N 
ATOM     24  H   UNL     1      41.039 -23.942 -13.508  0.00  0.00    +0.144 HD
ATOM     25  H   UNL     1      40.911 -25.624 -13.263  0.00  0.00    +0.144 HD
ENDBRANCH  16  18
ENDBRANCH  15  16
ENDBRANCH   1  15
TORSDOF 5
ENDMDL
MODEL 5
REMARK VINA RESULT:     -11.0      4.886      9.465
REMARK  Name = 11659487
REMARK  5 active torsions:
REMARK  status: ('A' for Active; 'I' for Inactive)
REMARK    1  A    between atoms: C_1  and  C_15
REMARK    2  A    between atoms: C_2  and  C_7
REMARK    3  A    between atoms: C_10  and  O_13
REMARK    4  A    between atoms: C_15  and  C_16
REMARK    5  A    between atoms: C_16  and  C_18
REMARK                            x       y       z     vdW  Elec       q    Type
REMARK                         _______ _______ _______ _____ _____    ______ ____
ROOT
ATOM      1  C   UNL     1      33.489 -22.712 -15.723  0.00  0.00    -0.022 C 
ATOM      2  C   UNL     1      34.751 -23.612 -13.869  0.00  0.00    -0.000 C 
ATOM      3  C   UNL     1      34.688 -23.197 -15.200  0.00  0.00    -0.004 C 
ATOM      4  C   UNL     1      32.354 -22.643 -14.916  0.00  0.00    -0.004 C 
ATOM      5  C   UNL     1      33.616 -23.542 -13.062  0.00  0.00    -0.000 C 
ATOM      6  C   UNL     1      32.417 -23.058 -13.585  0.00  0.00    -0.000 C 
ENDROOT
BRANCH   2   7
ATOM      7  C   UNL     1      35.995 -24.113 -13.327  0.00  0.00    +0.003 C 
ATOM      8  C   UNL     1      36.975 -24.619 -14.180  0.00  0.00    +0.037 C 
ATOM      9  C   UNL     1      36.215 -24.090 -11.950  0.00  0.00    +0.000 C 
ATOM     10  C   UNL     1      38.174 -25.102 -13.657  0.00  0.00    +0.139 C 
ATOM     11  C   UNL     1      37.413 -24.573 -11.426  0.00  0.00    +0.003 C 
ATOM     12  C   UNL     1      38.394 -25.079 -12.280  0.00  0.00    +0.037 C 
BRANCH  10  13
ATOM     13  O   UNL     1      39.131 -25.596 -14.490  0.00  0.00    -0.471 OA
ATOM     14  C   UNL     1      40.491 -25.390 -14.112  0.00  0.00    +0.252 C 
ENDBRANCH  10  13
ENDBRANCH   2   7
BRANCH   1  15
ATOM     15  C   UNL     1      33.420 -22.268 -17.145  0.00  0.00    +0.034 C 
BRANCH  15  16
ATOM     16  C   UNL     1      34.789 -21.910 -17.758  0.00  0.00    +0.064 C 
BRANCH  16  18
ATOM     17  N   UNL     1      35.862 -20.224 -19.126  0.00  0.00    -0.396 NA
ATOM     18  C   UNL     1      34.705 -20.831 -18.811  0.00  0.00    +0.110 C 
ATOM     19  C   UNL     1      33.477 -20.543 -19.367  0.00  0.00    +0.023 C 
ATOM     20  C   UNL     1      33.434 -19.545 -20.333  0.00  0.00    -0.015 C 
ATOM     21  C   UNL     1      35.781 -19.259 -20.068  0.00  0.00    +0.158 C 
ATOM     22  C   UNL     1      34.603 -18.885 -20.696  0.00  0.00    +0.100 C 
ATOM     23  N   UNL     1      36.964 -18.578 -20.450  0.00  0.00    -0.336 N 
ATOM     24  H   UNL     1      37.822 -18.810 -20.029  0.00  0.00    +0.144 HD
ATOM     25  H   UNL     1      36.926 -17.871 -21.134  0.00  0.00    +0.144 HD
ENDBRANCH  16  18
ENDBRANCH  15  16
ENDBRANCH   1  15
TORSDOF 5
ENDMDL
MODEL 6
REMARK VINA RESULT:     -10.8      4.552      9.503
REMARK  Name = 11659487
REMARK  5 active torsions:
REMARK  status: ('A' for Active; 'I' for Inactive)
REMARK    1  A    between atoms: C_1  and  C_15
REMARK    2  A    between atoms: C_2  and  C_7
REMARK    3  A    between atoms: C_10  and  O_13
REMARK    4  A    between atoms: C_15  and  C_16
REMARK    5  A    between atoms: C_16  and  C_18
REMARK                            x       y       z     vdW  Elec       q    Type
REMARK                         _______ _______ _______ _____ _____    ______ ____
ROOT
ATOM      1  C   UNL     1      35.080 -15.950 -22.274  0.00  0.00    -0.022 C 
ATOM      2  C   UNL     1      35.086 -18.256 -21.552  0.00  0.00    -0.000 C 
ATOM      3  C   UNL     1      35.166 -16.895 -21.252  0.00  0.00    -0.004 C 
ATOM      4  C   UNL     1      34.917 -16.365 -23.596  0.00  0.00    -0.004 C 
ATOM      5  C   UNL     1      34.923 -18.671 -22.873  0.00  0.00    -0.000 C 
ATOM      6  C   UNL     1      34.838 -17.725 -23.896  0.00  0.00    -0.000 C 
ENDROOT
BRANCH   2   7
ATOM      7  C   UNL     1      35.173 -19.236 -20.492  0.00  0.00    +0.003 C 
ATOM      8  C   UNL     1      34.016 -19.849 -20.012  0.00  0.00    +0.037 C 
ATOM      9  C   UNL     1      36.414 -19.570 -19.951  0.00  0.00    +0.000 C 
ATOM     10  C   UNL     1      34.101 -20.795 -18.990  0.00  0.00    +0.139 C 
ATOM     11  C   UNL     1      36.499 -20.515 -18.929  0.00  0.00    +0.003 C 
ATOM     12  C   UNL     1      35.342 -21.128 -18.449  0.00  0.00    +0.037 C 
BRANCH  10  13
ATOM     13  O   UNL     1      32.971 -21.393 -18.521  0.00  0.00    -0.471 OA
ATOM     14  C   UNL     1      33.080 -22.121 -17.299  0.00  0.00    +0.252 C 
ENDBRANCH  10  13
ENDBRANCH   2   7
BRANCH   1  15
ATOM     15  C   UNL     1      35.165 -14.496 -21.955  0.00  0.00    +0.034 C 
BRANCH  15  16
ATOM     16  C   UNL     1      33.840 -13.732 -22.148  0.00  0.00    +0.064 C 
BRANCH  16  18
ATOM     17  N   UNL     1      33.895 -12.981 -24.450  0.00  0.00    -0.396 NA
ATOM     18  C   UNL     1      33.940 -12.614 -23.157  0.00  0.00    +0.110 C 
ATOM     19  C   UNL     1      34.069 -11.320 -22.700  0.00  0.00    +0.023 C 
ATOM     20  C   UNL     1      34.158 -10.313 -23.655  0.00  0.00    -0.015 C 
ATOM     21  C   UNL     1      33.986 -11.976 -25.348  0.00  0.00    +0.158 C 
ATOM     22  C   UNL     1      34.117 -10.639 -25.006  0.00  0.00    +0.100 C 
ATOM     23  N   UNL     1      33.945 -12.291 -26.729  0.00  0.00    -0.336 N 
ATOM     24  H   UNL     1      33.853 -13.227 -27.018  0.00  0.00    +0.144 HD
ATOM     25  H   UNL     1      34.009 -11.572 -27.400  0.00  0.00    +0.144 HD
ENDBRANCH  16  18
ENDBRANCH  15  16
ENDBRANCH   1  15
TORSDOF 5
ENDMDL
MODEL 7
REMARK VINA RESULT:     -10.8      3.630      8.546
REMARK  Name = 11659487
REMARK  5 active torsions:
REMARK  status: ('A' for Active; 'I' for Inactive)
REMARK    1  A    between atoms: C_1  and  C_15
REMARK    2  A    between atoms: C_2  and  C_7
REMARK    3  A    between atoms: C_10  and  O_13
REMARK    4  A    between atoms: C_15  and  C_16
REMARK    5  A    between atoms: C_16  and  C_18
REMARK                            x       y       z     vdW  Elec       q    Type
REMARK                         _______ _______ _______ _____ _____    ______ ____
ROOT
ATOM      1  C   UNL     1      34.534 -21.890 -17.541  0.00  0.00    -0.022 C 
ATOM      2  C   UNL     1      32.831 -22.558 -15.963  0.00  0.00    -0.000 C 
ATOM      3  C   UNL     1      33.197 -22.160 -17.250  0.00  0.00    -0.004 C 
ATOM      4  C   UNL     1      35.504 -22.015 -16.546  0.00  0.00    -0.004 C 
ATOM      5  C   UNL     1      33.800 -22.684 -14.969  0.00  0.00    -0.000 C 
ATOM      6  C   UNL     1      35.137 -22.412 -15.260  0.00  0.00    -0.000 C 
ENDROOT
BRANCH   2   7
ATOM      7  C   UNL     1      31.444 -22.841 -15.661  0.00  0.00    +0.003 C 
ATOM      8  C   UNL     1      30.439 -22.010 -16.155  0.00  0.00    +0.037 C 
ATOM      9  C   UNL     1      31.112 -23.945 -14.877  0.00  0.00    +0.000 C 
ATOM     10  C   UNL     1      29.103 -22.283 -15.864  0.00  0.00    +0.139 C 
ATOM     11  C   UNL     1      29.776 -24.218 -14.585  0.00  0.00    +0.003 C 
ATOM     12  C   UNL     1      28.771 -23.387 -15.080  0.00  0.00    +0.037 C 
BRANCH  10  13
ATOM     13  O   UNL     1      28.121 -21.471 -16.347  0.00  0.00    -0.471 OA
ATOM     14  C   UNL     1      26.861 -21.509 -15.680  0.00  0.00    +0.252 C 
ENDBRANCH  10  13
ENDBRANCH   2   7
BRANCH   1  15
ATOM     15  C   UNL     1      34.927 -21.465 -18.915  0.00  0.00    +0.034 C 
BRANCH  15  16
ATOM     16  C   UNL     1      34.131 -20.258 -19.451  0.00  0.00    +0.064 C 
BRANCH  16  18
ATOM     17  N   UNL     1      34.332 -19.023 -21.525  0.00  0.00    -0.396 NA
ATOM     18  C   UNL     1      34.936 -19.379 -20.378  0.00  0.00    +0.110 C 
ATOM     19  C   UNL     1      36.207 -19.007 -19.999  0.00  0.00    +0.023 C 
ATOM     20  C   UNL     1      36.922 -18.197 -20.875  0.00  0.00    -0.015 C 
ATOM     21  C   UNL     1      35.057 -18.237 -22.351  0.00  0.00    +0.158 C 
ATOM     22  C   UNL     1      36.343 -17.801 -22.075  0.00  0.00    +0.100 C 
ATOM     23  N   UNL     1      34.481 -17.824 -23.578  0.00  0.00    -0.336 N 
ATOM     24  H   UNL     1      33.570 -18.110 -23.815  0.00  0.00    +0.144 HD
ATOM     25  H   UNL     1      34.993 -17.251 -24.194  0.00  0.00    +0.144 HD
ENDBRANCH  16  18
ENDBRANCH  15  16
ENDBRANCH   1  15
TORSDOF 5
ENDMDL
MODEL 8
REMARK VINA RESULT:     -10.8      2.854      3.956
REMARK  Name = 11659487
REMARK  5 active torsions:
REMARK  status: ('A' for Active; 'I' for Inactive)
REMARK    1  A    between atoms: C_1  and  C_15
REMARK    2  A    between atoms: C_2  and  C_7
REMARK    3  A    between atoms: C_10  and  O_13
REMARK    4  A    between atoms: C_15  and  C_16
REMARK    5  A    between atoms: C_16  and  C_18
REMARK                            x       y       z     vdW  Elec       q    Type
REMARK                         _______ _______ _______ _____ _____    ______ ____
ROOT
ATOM      1  C   UNL     1      35.767 -20.709 -18.741  0.00  0.00    -0.022 C 
ATOM      2  C   UNL     1      34.795 -19.242 -20.396  0.00  0.00    -0.000 C 
ATOM      3  C   UNL     1      35.906 -19.686 -19.678  0.00  0.00    -0.004 C 
ATOM      4  C   UNL     1      34.516 -21.287 -18.519  0.00  0.00    -0.004 C 
ATOM      5  C   UNL     1      33.545 -19.819 -20.175  0.00  0.00    -0.000 C 
ATOM      6  C   UNL     1      33.405 -20.842 -19.236  0.00  0.00    -0.000 C 
ENDROOT
BRANCH   2   7
ATOM      7  C   UNL     1      34.939 -18.182 -21.370  0.00  0.00    +0.003 C 
ATOM      8  C   UNL     1      34.543 -18.389 -22.691  0.00  0.00    +0.037 C 
ATOM      9  C   UNL     1      35.474 -16.952 -20.987  0.00  0.00    +0.000 C 
ATOM     10  C   UNL     1      34.682 -17.366 -23.629  0.00  0.00    +0.139 C 
ATOM     11  C   UNL     1      35.614 -15.929 -21.925  0.00  0.00    +0.003 C 
ATOM     12  C   UNL     1      35.217 -16.136 -23.247  0.00  0.00    +0.037 C 
BRANCH  10  13
ATOM     13  O   UNL     1      34.295 -17.568 -24.919  0.00  0.00    -0.471 OA
ATOM     14  C   UNL     1      33.076 -18.277 -25.128  0.00  0.00    +0.252 C 
ENDBRANCH  10  13
ENDBRANCH   2   7
BRANCH   1  15
ATOM     15  C   UNL     1      36.954 -21.185 -17.973  0.00  0.00    +0.034 C 
BRANCH  15  16
ATOM     16  C   UNL     1      36.887 -20.884 -16.463  0.00  0.00    +0.064 C 
BRANCH  16  18
ATOM     17  N   UNL     1      35.709 -22.665 -15.321  0.00  0.00    -0.396 NA
ATOM     18  C   UNL     1      36.907 -22.128 -15.607  0.00  0.00    +0.110 C 
ATOM     19  C   UNL     1      38.122 -22.620 -15.184  0.00  0.00    +0.023 C 
ATOM     20  C   UNL     1      38.107 -23.767 -14.398  0.00  0.00    -0.015 C 
ATOM     21  C   UNL     1      35.733 -23.778 -14.555  0.00  0.00    +0.158 C 
ATOM     22  C   UNL     1      36.893 -24.363 -14.073  0.00  0.00    +0.100 C 
ATOM     23  N   UNL     1      34.505 -24.398 -14.215  0.00  0.00    -0.336 N 
ATOM     24  H   UNL     1      33.656 -24.017 -14.535  0.00  0.00    +0.144 HD
ATOM     25  H   UNL     1      34.501 -25.210 -13.658  0.00  0.00    +0.144 HD
ENDBRANCH  16  18
ENDBRANCH  15  16
ENDBRANCH   1  15
TORSDOF 5
ENDMDL
MODEL 9
REMARK VINA RESULT:     -10.7      4.445      8.853
REMARK  Name = 11659487
REMARK  5 active torsions:
REMARK  status: ('A' for Active; 'I' for Inactive)
REMARK    1  A    between atoms: C_1  and  C_15
REMARK    2  A    between atoms: C_2  and  C_7
REMARK    3  A    between atoms: C_10  and  O_13
REMARK    4  A    between atoms: C_15  and  C_16
REMARK    5  A    between atoms: C_16  and  C_18
REMARK                            x       y       z     vdW  Elec       q    Type
REMARK                         _______ _______ _______ _____ _____    ______ ____
ROOT
ATOM      1  C   UNL     1      35.242 -19.452 -20.293  0.00  0.00    -0.022 C 
ATOM      2  C   UNL     1      35.085 -20.827 -18.313  0.00  0.00    -0.000 C 
ATOM      3  C   UNL     1      35.846 -20.054 -19.190  0.00  0.00    -0.004 C 
ATOM      4  C   UNL     1      33.876 -19.625 -20.520  0.00  0.00    -0.004 C 
ATOM      5  C   UNL     1      33.720 -21.000 -18.540  0.00  0.00    -0.000 C 
ATOM      6  C   UNL     1      33.115 -20.398 -19.644  0.00  0.00    -0.000 C 
ENDROOT
BRANCH   2   7
ATOM      7  C   UNL     1      35.712 -21.450 -17.167  0.00  0.00    +0.003 C 
ATOM      8  C   UNL     1      34.981 -22.318 -16.357  0.00  0.00    +0.037 C 
ATOM      9  C   UNL     1      37.049 -21.184 -16.874  0.00  0.00    +0.000 C 
ATOM     10  C   UNL     1      35.586 -22.919 -15.254  0.00  0.00    +0.139 C 
ATOM     11  C   UNL     1      37.655 -21.784 -15.771  0.00  0.00    +0.003 C 
ATOM     12  C   UNL     1      36.923 -22.652 -14.960  0.00  0.00    +0.037 C 
BRANCH  10  13
ATOM     13  O   UNL     1      34.872 -23.766 -14.462  0.00  0.00    -0.471 OA
ATOM     14  C   UNL     1      35.064 -23.657 -13.053  0.00  0.00    +0.252 C 
ENDBRANCH  10  13
ENDBRANCH   2   7
BRANCH   1  15
ATOM     15  C   UNL     1      36.054 -18.625 -21.231  0.00  0.00    +0.034 C 
BRANCH  15  16
ATOM     16  C   UNL     1      35.382 -18.383 -22.598  0.00  0.00    +0.064 C 
BRANCH  16  18
ATOM     17  N   UNL     1      34.536 -16.647 -24.059  0.00  0.00    -0.396 NA
ATOM     18  C   UNL     1      35.082 -16.927 -22.863  0.00  0.00    +0.110 C 
ATOM     19  C   UNL     1      35.381 -16.001 -21.888  0.00  0.00    +0.023 C 
ATOM     20  C   UNL     1      35.092 -14.669 -22.163  0.00  0.00    -0.015 C 
ATOM     21  C   UNL     1      34.270 -15.343 -24.292  0.00  0.00    +0.158 C 
ATOM     22  C   UNL     1      34.526 -14.325 -23.386  0.00  0.00    +0.100 C 
ATOM     23  N   UNL     1      33.692 -14.976 -25.533  0.00  0.00    -0.336 N 
ATOM     24  H   UNL     1      33.494 -15.666 -26.206  0.00  0.00    +0.144 HD
ATOM     25  H   UNL     1      33.491 -14.031 -25.722  0.00  0.00    +0.144 HD
ENDBRANCH  16  18
ENDBRANCH  15  16
ENDBRANCH   1  15
TORSDOF 5
ENDMDL
