MODEL 1
REMARK VINA RESULT:     -12.0      0.000      0.000
REMARK  Name = 25118925
REMARK  3 active torsions:
REMARK  status: ('A' for Active; 'I' for Inactive)
REMARK    1  A    between atoms: C_3  and  C_12
REMARK    2  A    between atoms: C_5  and  C_24
REMARK    3  A    between atoms: C_27  and  C_33
REMARK                            x       y       z     vdW  Elec       q    Type
REMARK                         _______ _______ _______ _____ _____    ______ ____
ROOT
ATOM      1  N   UNL     1      33.919 -11.984 -24.395  0.00  0.00    -0.279 N 
ATOM      2  N   UNL     1      33.761 -12.172 -22.187  0.00  0.00    -0.394 NA
ATOM      3  C   UNL     1      33.544 -11.389 -23.222  0.00  0.00    +0.160 C 
ATOM      4  C   UNL     1      34.406 -13.224 -24.089  0.00  0.00    +0.152 C 
ATOM      5  C   UNL     1      34.298 -13.317 -22.722  0.00  0.00    +0.130 C 
ATOM      6  C   UNL     1      33.826 -11.420 -25.720  0.00  0.00    +0.115 C 
ENDROOT
BRANCH   3  12
ATOM      7  N   UNL     1      32.723  -7.267 -22.228  0.00  0.00    -0.296 N 
ATOM      8  N   UNL     1      32.430  -4.961 -22.765  0.00  0.00    -0.233 NA
ATOM      9  N   UNL     1      32.486  -4.152 -18.824  0.00  0.00    -0.223 N 
ATOM     10  N   UNL     1      32.291  -3.228 -21.054  0.00  0.00    -0.232 NA
ATOM     11  N   UNL     1      32.651  -5.341 -18.214  0.00  0.00    -0.183 NA
ATOM     12  C   UNL     1      32.955  -9.993 -23.175  0.00  0.00    +0.070 C 
ATOM     13  C   UNL     1      33.983  -8.918 -23.555  0.00  0.00    +0.030 C 
ATOM     14  C   UNL     1      32.354  -9.665 -21.800  0.00  0.00    +0.030 C 
ATOM     15  C   UNL     1      33.361  -7.522 -23.528  0.00  0.00    +0.092 C 
ATOM     16  C   UNL     1      31.745  -8.263 -21.776  0.00  0.00    +0.092 C 
ATOM     17  C   UNL     1      32.581  -5.932 -21.832  0.00  0.00    +0.118 C 
ATOM     18  C   UNL     1      32.590  -5.581 -20.486  0.00  0.00    +0.152 C 
ATOM     19  C   UNL     1      32.444  -4.239 -20.184  0.00  0.00    +0.133 C 
ATOM     20  C   UNL     1      32.713  -6.207 -19.231  0.00  0.00    +0.105 C 
ATOM     21  C   UNL     1      32.296  -3.687 -22.324  0.00  0.00    +0.252 C 
ATOM     22  H   UNL     1      32.404  -3.302 -18.336  0.00  0.00    +0.176 HD
ENDBRANCH   3  12
BRANCH   5  24
ATOM     23  F   UNL     1      35.829 -17.722 -19.695  0.00  0.00    -0.204 F 
ATOM     24  C   UNL     1      34.691 -14.452 -21.946  0.00  0.00    +0.027 C 
ATOM     25  C   UNL     1      35.042 -15.644 -22.580  0.00  0.00    +0.008 C 
ATOM     26  C   UNL     1      34.727 -14.366 -20.554  0.00  0.00    +0.005 C 
ATOM     27  C   UNL     1      35.426 -16.750 -21.823  0.00  0.00    +0.099 C 
ATOM     28  C   UNL     1      35.111 -15.472 -19.796  0.00  0.00    +0.030 C 
ATOM     29  C   UNL     1      35.461 -16.664 -20.432  0.00  0.00    +0.144 C 
BRANCH  27  33
ATOM     30  F   UNL     1      35.309 -19.138 -21.883  0.00  0.00    -0.166 F 
ATOM     31  F   UNL     1      35.352 -18.107 -23.791  0.00  0.00    -0.166 F 
ATOM     32  F   UNL     1      37.150 -18.207 -22.571  0.00  0.00    -0.166 F 
ATOM     33  C   UNL     1      35.799 -18.024 -22.503  0.00  0.00    +0.421 C 
ENDBRANCH  27  33
ENDBRANCH   5  24
TORSDOF 3
ENDMDL
MODEL 2
REMARK VINA RESULT:     -11.8      2.397      3.638
REMARK  Name = 25118925
REMARK  3 active torsions:
REMARK  status: ('A' for Active; 'I' for Inactive)
REMARK    1  A    between atoms: C_3  and  C_12
REMARK    2  A    between atoms: C_5  and  C_24
REMARK    3  A    between atoms: C_27  and  C_33
REMARK                            x       y       z     vdW  Elec       q    Type
REMARK                         _______ _______ _______ _____ _____    ______ ____
ROOT
ATOM      1  N   UNL     1      34.416 -15.351 -24.047  0.00  0.00    -0.279 N 
ATOM      2  N   UNL     1      34.489 -15.349 -21.827  0.00  0.00    -0.394 NA
ATOM      3  C   UNL     1      34.122 -14.676 -22.895  0.00  0.00    +0.160 C 
ATOM      4  C   UNL     1      35.008 -16.530 -23.691  0.00  0.00    +0.152 C 
ATOM      5  C   UNL     1      35.043 -16.506 -22.317  0.00  0.00    +0.130 C 
ATOM      6  C   UNL     1      34.156 -14.913 -25.398  0.00  0.00    +0.115 C 
ENDROOT
BRANCH   3  12
ATOM      7  N   UNL     1      32.980 -10.611 -21.984  0.00  0.00    -0.296 N 
ATOM      8  N   UNL     1      32.606  -8.322 -22.547  0.00  0.00    -0.233 NA
ATOM      9  N   UNL     1      32.254  -7.530 -18.619  0.00  0.00    -0.223 N 
ATOM     10  N   UNL     1      32.212  -6.608 -20.857  0.00  0.00    -0.232 NA
ATOM     11  N   UNL     1      32.428  -8.710 -17.995  0.00  0.00    -0.183 NA
ATOM     12  C   UNL     1      33.452 -13.315 -22.903  0.00  0.00    +0.070 C 
ATOM     13  C   UNL     1      34.448 -12.181 -23.188  0.00  0.00    +0.030 C 
ATOM     14  C   UNL     1      32.710 -13.028 -21.590  0.00  0.00    +0.030 C 
ATOM     15  C   UNL     1      33.748 -10.823 -23.219  0.00  0.00    +0.092 C 
ATOM     16  C   UNL     1      32.022 -11.662 -21.624  0.00  0.00    +0.092 C 
ATOM     17  C   UNL     1      32.726  -9.288 -21.604  0.00  0.00    +0.118 C 
ATOM     18  C   UNL     1      32.591  -8.943 -20.263  0.00  0.00    +0.152 C 
ATOM     19  C   UNL     1      32.342  -7.613 -19.977  0.00  0.00    +0.133 C 
ATOM     20  C   UNL     1      32.634  -9.567 -19.002  0.00  0.00    +0.105 C 
ATOM     21  C   UNL     1      32.360  -7.061 -22.121  0.00  0.00    +0.252 C 
ATOM     22  H   UNL     1      32.079  -6.688 -18.141  0.00  0.00    +0.176 HD
ENDBRANCH   3  12
BRANCH   5  24
ATOM     23  F   UNL     1      37.153 -20.539 -19.124  0.00  0.00    -0.204 F 
ATOM     24  C   UNL     1      35.582 -17.544 -21.495  0.00  0.00    +0.027 C 
ATOM     25  C   UNL     1      34.729 -18.430 -20.838  0.00  0.00    +0.008 C 
ATOM     26  C   UNL     1      36.964 -17.672 -21.351  0.00  0.00    +0.005 C 
ATOM     27  C   UNL     1      35.255 -19.442 -20.036  0.00  0.00    +0.099 C 
ATOM     28  C   UNL     1      37.492 -18.683 -20.550  0.00  0.00    +0.030 C 
ATOM     29  C   UNL     1      36.637 -19.569 -19.892  0.00  0.00    +0.144 C 
BRANCH  27  33
ATOM     30  F   UNL     1      34.323 -21.639 -19.881  0.00  0.00    -0.166 F 
ATOM     31  F   UNL     1      34.656 -20.578 -18.019  0.00  0.00    -0.166 F 
ATOM     32  F   UNL     1      33.042 -19.967 -19.343  0.00  0.00    -0.166 F 
ATOM     33  C   UNL     1      34.340 -20.387 -19.334  0.00  0.00    +0.421 C 
ENDBRANCH  27  33
ENDBRANCH   5  24
TORSDOF 3
ENDMDL
MODEL 3
REMARK VINA RESULT:     -11.4      1.423      2.869
REMARK  Name = 25118925
REMARK  3 active torsions:
REMARK  status: ('A' for Active; 'I' for Inactive)
REMARK    1  A    between atoms: C_3  and  C_12
REMARK    2  A    between atoms: C_5  and  C_24
REMARK    3  A    between atoms: C_27  and  C_33
REMARK                            x       y       z     vdW  Elec       q    Type
REMARK                         _______ _______ _______ _____ _____    ______ ____
ROOT
ATOM      1  N   UNL     1      33.818 -11.997 -24.799  0.00  0.00    -0.279 N 
ATOM      2  N   UNL     1      34.207 -13.057 -22.886  0.00  0.00    -0.394 NA
ATOM      3  C   UNL     1      33.968 -11.891 -23.444  0.00  0.00    +0.160 C 
ATOM      4  C   UNL     1      33.971 -13.316 -25.126  0.00  0.00    +0.152 C 
ATOM      5  C   UNL     1      34.210 -13.949 -23.929  0.00  0.00    +0.130 C 
ATOM      6  C   UNL     1      33.549 -10.926 -25.728  0.00  0.00    +0.115 C 
ENDROOT
BRANCH   3  12
ATOM      7  N   UNL     1      32.821  -7.903 -22.244  0.00  0.00    -0.296 N 
ATOM      8  N   UNL     1      32.049  -6.290 -20.664  0.00  0.00    -0.233 NA
ATOM      9  N   UNL     1      31.568  -3.705 -23.710  0.00  0.00    -0.223 N 
ATOM     10  N   UNL     1      31.361  -4.043 -21.321  0.00  0.00    -0.232 NA
ATOM     11  N   UNL     1      31.948  -4.373 -24.814  0.00  0.00    -0.183 NA
ATOM     12  C   UNL     1      33.862 -10.562 -22.720  0.00  0.00    +0.070 C 
ATOM     13  C   UNL     1      32.465 -10.339 -22.122  0.00  0.00    +0.030 C 
ATOM     14  C   UNL     1      34.226  -9.378 -23.629  0.00  0.00    +0.030 C 
ATOM     15  C   UNL     1      32.388  -9.008 -21.375  0.00  0.00    +0.092 C 
ATOM     16  C   UNL     1      34.136  -8.049 -22.877  0.00  0.00    +0.092 C 
ATOM     17  C   UNL     1      32.338  -6.624 -21.945  0.00  0.00    +0.118 C 
ATOM     18  C   UNL     1      32.149  -5.680 -22.950  0.00  0.00    +0.152 C 
ATOM     19  C   UNL     1      31.667  -4.440 -22.566  0.00  0.00    +0.133 C 
ATOM     20  C   UNL     1      32.301  -5.575 -24.345  0.00  0.00    +0.105 C 
ATOM     21  C   UNL     1      31.586  -5.038 -20.435  0.00  0.00    +0.252 C 
ATOM     22  H   UNL     1      31.249  -2.774 -23.725  0.00  0.00    +0.176 HD
ENDBRANCH   3  12
BRANCH   5  24
ATOM     23  F   UNL     1      35.078 -19.411 -23.352  0.00  0.00    -0.204 F 
ATOM     24  C   UNL     1      34.436 -15.353 -23.778  0.00  0.00    +0.027 C 
ATOM     25  C   UNL     1      35.113 -15.836 -22.659  0.00  0.00    +0.008 C 
ATOM     26  C   UNL     1      33.975 -16.242 -24.751  0.00  0.00    +0.005 C 
ATOM     27  C   UNL     1      35.332 -17.205 -22.512  0.00  0.00    +0.099 C 
ATOM     28  C   UNL     1      34.193 -17.611 -24.605  0.00  0.00    +0.030 C 
ATOM     29  C   UNL     1      34.872 -18.093 -23.485  0.00  0.00    +0.144 C 
BRANCH  27  33
ATOM     30  F   UNL     1      35.592 -18.922 -20.867  0.00  0.00    -0.166 F 
ATOM     31  F   UNL     1      37.393 -17.911 -21.526  0.00  0.00    -0.166 F 
ATOM     32  F   UNL     1      35.973 -16.874 -20.246  0.00  0.00    -0.166 F 
ATOM     33  C   UNL     1      36.058 -17.719 -21.315  0.00  0.00    +0.421 C 
ENDBRANCH  27  33
ENDBRANCH   5  24
TORSDOF 3
ENDMDL
MODEL 4
REMARK VINA RESULT:     -10.6      9.133     14.271
REMARK  Name = 25118925
REMARK  3 active torsions:
REMARK  status: ('A' for Active; 'I' for Inactive)
REMARK    1  A    between atoms: C_3  and  C_12
REMARK    2  A    between atoms: C_5  and  C_24
REMARK    3  A    between atoms: C_27  and  C_33
REMARK                            x       y       z     vdW  Elec       q    Type
REMARK                         _______ _______ _______ _____ _____    ______ ____
ROOT
ATOM      1  N   UNL     1      33.795 -21.090 -18.258  0.00  0.00    -0.279 N 
ATOM      2  N   UNL     1      35.750 -20.392 -19.048  0.00  0.00    -0.394 NA
ATOM      3  C   UNL     1      35.156 -21.216 -18.213  0.00  0.00    +0.160 C 
ATOM      4  C   UNL     1      33.503 -20.124 -19.180  0.00  0.00    +0.152 C 
ATOM      5  C   UNL     1      34.725 -19.709 -19.654  0.00  0.00    +0.130 C 
ATOM      6  C   UNL     1      32.830 -21.831 -17.481  0.00  0.00    +0.115 C 
ENDROOT
BRANCH   3  12
ATOM      7  N   UNL     1      36.507 -23.401 -14.741  0.00  0.00    -0.296 N 
ATOM      8  N   UNL     1      36.844 -25.394 -13.472  0.00  0.00    -0.233 NA
ATOM      9  N   UNL     1      37.780 -23.088 -10.311  0.00  0.00    -0.223 N 
ATOM     10  N   UNL     1      37.516 -25.353 -11.128  0.00  0.00    -0.232 NA
ATOM     11  N   UNL     1      37.672 -21.819 -10.745  0.00  0.00    -0.183 NA
ATOM     12  C   UNL     1      35.847 -22.203 -17.292  0.00  0.00    +0.070 C 
ATOM     13  C   UNL     1      34.845 -23.085 -16.533  0.00  0.00    +0.030 C 
ATOM     14  C   UNL     1      36.778 -21.505 -16.290  0.00  0.00    +0.030 C 
ATOM     15  C   UNL     1      35.563 -24.090 -15.633  0.00  0.00    +0.092 C 
ATOM     16  C   UNL     1      37.483 -22.516 -15.385  0.00  0.00    +0.092 C 
ATOM     17  C   UNL     1      36.842 -24.041 -13.542  0.00  0.00    +0.118 C 
ATOM     18  C   UNL     1      37.177 -23.305 -12.409  0.00  0.00    +0.152 C 
ATOM     19  C   UNL     1      37.494 -24.018 -11.267  0.00  0.00    +0.133 C 
ATOM     20  C   UNL     1      37.304 -21.957 -12.024  0.00  0.00    +0.105 C 
ATOM     21  C   UNL     1      37.177 -25.957 -12.287  0.00  0.00    +0.252 C 
ATOM     22  H   UNL     1      38.041 -23.324  -9.392  0.00  0.00    +0.176 HD
ENDBRANCH   3  12
BRANCH   5  24
ATOM     23  F   UNL     1      35.471 -15.768 -23.504  0.00  0.00    -0.204 F 
ATOM     24  C   UNL     1      34.916 -18.697 -20.647  0.00  0.00    +0.027 C 
ATOM     25  C   UNL     1      34.545 -18.938 -21.969  0.00  0.00    +0.008 C 
ATOM     26  C   UNL     1      35.473 -17.468 -20.291  0.00  0.00    +0.005 C 
ATOM     27  C   UNL     1      34.731 -17.951 -22.937  0.00  0.00    +0.099 C 
ATOM     28  C   UNL     1      35.659 -16.481 -21.258  0.00  0.00    +0.030 C 
ATOM     29  C   UNL     1      35.288 -16.723 -22.581  0.00  0.00    +0.144 C 
BRANCH  27  33
ATOM     30  F   UNL     1      32.981 -18.240 -24.542  0.00  0.00    -0.166 F 
ATOM     31  F   UNL     1      34.797 -17.274 -25.229  0.00  0.00    -0.166 F 
ATOM     32  F   UNL     1      34.795 -19.409 -24.814  0.00  0.00    -0.166 F 
ATOM     33  C   UNL     1      34.334 -18.211 -24.351  0.00  0.00    +0.421 C 
ENDBRANCH  27  33
ENDBRANCH   5  24
TORSDOF 3
ENDMDL
MODEL 5
REMARK VINA RESULT:     -10.5      2.059      3.869
REMARK  Name = 25118925
REMARK  3 active torsions:
REMARK  status: ('A' for Active; 'I' for Inactive)
REMARK    1  A    between atoms: C_3  and  C_12
REMARK    2  A    between atoms: C_5  and  C_24
REMARK    3  A    between atoms: C_27  and  C_33
REMARK                            x       y       z     vdW  Elec       q    Type
REMARK                         _______ _______ _______ _____ _____    ______ ____
ROOT
ATOM      1  N   UNL     1      32.049 -10.995 -20.890  0.00  0.00    -0.279 N 
ATOM      2  N   UNL     1      33.392 -11.052 -22.658  0.00  0.00    -0.394 NA
ATOM      3  C   UNL     1      32.729 -10.274 -21.832  0.00  0.00    +0.160 C 
ATOM      4  C   UNL     1      32.294 -12.318 -21.131  0.00  0.00    +0.152 C 
ATOM      5  C   UNL     1      33.125 -12.328 -22.227  0.00  0.00    +0.130 C 
ATOM      6  C   UNL     1      31.220 -10.473 -19.830  0.00  0.00    +0.115 C 
ENDROOT
BRANCH   3  12
ATOM      7  N   UNL     1      32.510  -6.167 -23.153  0.00  0.00    -0.296 N 
ATOM      8  N   UNL     1      31.583  -3.969 -23.141  0.00  0.00    -0.233 NA
ATOM      9  N   UNL     1      33.753  -3.157 -26.430  0.00  0.00    -0.223 N 
ATOM     10  N   UNL     1      32.164  -2.296 -24.819  0.00  0.00    -0.232 NA
ATOM     11  N   UNL     1      34.432  -4.287 -26.702  0.00  0.00    -0.183 NA
ATOM     12  C   UNL     1      32.689  -8.758 -21.874  0.00  0.00    +0.070 C 
ATOM     13  C   UNL     1      31.364  -8.230 -22.444  0.00  0.00    +0.030 C 
ATOM     14  C   UNL     1      33.861  -8.171 -22.673  0.00  0.00    +0.030 C 
ATOM     15  C   UNL     1      31.334  -6.702 -22.452  0.00  0.00    +0.092 C 
ATOM     16  C   UNL     1      33.818  -6.642 -22.687  0.00  0.00    +0.092 C 
ATOM     17  C   UNL     1      32.400  -4.888 -23.709  0.00  0.00    +0.118 C 
ATOM     18  C   UNL     1      33.123  -4.539 -24.846  0.00  0.00    +0.152 C 
ATOM     19  C   UNL     1      32.954  -3.253 -25.330  0.00  0.00    +0.133 C 
ATOM     20  C   UNL     1      34.044  -5.124 -25.734  0.00  0.00    +0.105 C 
ATOM     21  C   UNL     1      31.517  -2.747 -23.722  0.00  0.00    +0.252 C 
ATOM     22  H   UNL     1      33.826  -2.340 -26.973  0.00  0.00    +0.176 HD
ENDBRANCH   3  12
BRANCH   5  24
ATOM     23  F   UNL     1      35.154 -16.906 -24.643  0.00  0.00    -0.204 F 
ATOM     24  C   UNL     1      33.649 -13.506 -22.845  0.00  0.00    +0.027 C 
ATOM     25  C   UNL     1      34.303 -14.467 -22.075  0.00  0.00    +0.008 C 
ATOM     26  C   UNL     1      33.502 -13.695 -24.220  0.00  0.00    +0.005 C 
ATOM     27  C   UNL     1      34.813 -15.617 -22.679  0.00  0.00    +0.099 C 
ATOM     28  C   UNL     1      34.012 -14.844 -24.824  0.00  0.00    +0.030 C 
ATOM     29  C   UNL     1      34.667 -15.805 -24.053  0.00  0.00    +0.144 C 
BRANCH  27  33
ATOM     30  F   UNL     1      34.868 -17.846 -21.816  0.00  0.00    -0.166 F 
ATOM     31  F   UNL     1      36.774 -16.928 -22.292  0.00  0.00    -0.166 F 
ATOM     32  F   UNL     1      35.654 -16.262 -20.551  0.00  0.00    -0.166 F 
ATOM     33  C   UNL     1      35.513 -16.643 -21.854  0.00  0.00    +0.421 C 
ENDBRANCH  27  33
ENDBRANCH   5  24
TORSDOF 3
ENDMDL
MODEL 6
REMARK VINA RESULT:     -10.2      5.560     10.886
REMARK  Name = 25118925
REMARK  3 active torsions:
REMARK  status: ('A' for Active; 'I' for Inactive)
REMARK    1  A    between atoms: C_3  and  C_12
REMARK    2  A    between atoms: C_5  and  C_24
REMARK    3  A    between atoms: C_27  and  C_33
REMARK                            x       y       z     vdW  Elec       q    Type
REMARK                         _______ _______ _______ _____ _____    ______ ____
ROOT
ATOM      1  N   UNL     1      34.128 -14.116 -23.857  0.00  0.00    -0.279 N 
ATOM      2  N   UNL     1      34.878 -12.620 -22.396  0.00  0.00    -0.394 NA
ATOM      3  C   UNL     1      34.797 -13.901 -22.684  0.00  0.00    +0.160 C 
ATOM      4  C   UNL     1      33.759 -12.895 -24.348  0.00  0.00    +0.152 C 
ATOM      5  C   UNL     1      34.233 -11.988 -23.430  0.00  0.00    +0.130 C 
ATOM      6  C   UNL     1      33.853 -15.390 -24.476  0.00  0.00    +0.115 C 
ENDROOT
BRANCH   3  12
ATOM      7  N   UNL     1      35.444 -17.733 -20.800  0.00  0.00    -0.296 N 
ATOM      8  N   UNL     1      36.759 -19.649 -20.257  0.00  0.00    -0.233 NA
ATOM      9  N   UNL     1      33.419 -21.407 -18.865  0.00  0.00    -0.223 N 
ATOM     10  N   UNL     1      35.801 -21.645 -19.234  0.00  0.00    -0.232 NA
ATOM     11  N   UNL     1      32.434 -20.508 -19.048  0.00  0.00    -0.183 NA
ATOM     12  C   UNL     1      35.359 -15.038 -21.852  0.00  0.00    +0.070 C 
ATOM     13  C   UNL     1      35.796 -16.228 -22.720  0.00  0.00    +0.030 C 
ATOM     14  C   UNL     1      34.366 -15.518 -20.784  0.00  0.00    +0.030 C 
ATOM     15  C   UNL     1      36.383 -17.350 -21.865  0.00  0.00    +0.092 C 
ATOM     16  C   UNL     1      34.956 -16.649 -19.941  0.00  0.00    +0.092 C 
ATOM     17  C   UNL     1      35.555 -19.028 -20.281  0.00  0.00    +0.118 C 
ATOM     18  C   UNL     1      34.440 -19.695 -19.781  0.00  0.00    +0.152 C 
ATOM     19  C   UNL     1      34.640 -20.972 -19.287  0.00  0.00    +0.133 C 
ATOM     20  C   UNL     1      33.063 -19.468 -19.606  0.00  0.00    +0.105 C 
ATOM     21  C   UNL     1      36.806 -20.901 -19.743  0.00  0.00    +0.252 C 
ATOM     22  H   UNL     1      33.273 -22.294 -18.465  0.00  0.00    +0.176 HD
ENDBRANCH   3  12
BRANCH   5  24
ATOM     23  F   UNL     1      33.643  -6.473 -23.814  0.00  0.00    -0.204 F 
ATOM     24  C   UNL     1      34.078 -10.570 -23.527  0.00  0.00    +0.027 C 
ATOM     25  C   UNL     1      33.194  -9.904 -22.678  0.00  0.00    +0.008 C 
ATOM     26  C   UNL     1      34.814  -9.851 -24.469  0.00  0.00    +0.005 C 
ATOM     27  C   UNL     1      33.044  -8.521 -22.772  0.00  0.00    +0.099 C 
ATOM     28  C   UNL     1      34.665  -8.468 -24.565  0.00  0.00    +0.030 C 
ATOM     29  C   UNL     1      33.780  -7.803 -23.716  0.00  0.00    +0.144 C 
BRANCH  27  33
ATOM     30  F   UNL     1      31.520  -8.625 -20.932  0.00  0.00    -0.166 F 
ATOM     31  F   UNL     1      32.679  -6.804 -21.148  0.00  0.00    -0.166 F 
ATOM     32  F   UNL     1      31.060  -7.231 -22.537  0.00  0.00    -0.166 F 
ATOM     33  C   UNL     1      32.098  -7.811 -21.865  0.00  0.00    +0.421 C 
ENDBRANCH  27  33
ENDBRANCH   5  24
TORSDOF 3
ENDMDL
MODEL 7
REMARK VINA RESULT:     -10.1      2.120      3.328
REMARK  Name = 25118925
REMARK  3 active torsions:
REMARK  status: ('A' for Active; 'I' for Inactive)
REMARK    1  A    between atoms: C_3  and  C_12
REMARK    2  A    between atoms: C_5  and  C_24
REMARK    3  A    between atoms: C_27  and  C_33
REMARK                            x       y       z     vdW  Elec       q    Type
REMARK                         _______ _______ _______ _____ _____    ______ ____
ROOT
ATOM      1  N   UNL     1      33.998 -11.157 -24.311  0.00  0.00    -0.279 N 
ATOM      2  N   UNL     1      34.163 -11.369 -22.106  0.00  0.00    -0.394 NA
ATOM      3  C   UNL     1      33.943 -10.532 -23.097  0.00  0.00    +0.160 C 
ATOM      4  C   UNL     1      34.271 -12.477 -24.081  0.00  0.00    +0.152 C 
ATOM      5  C   UNL     1      34.368 -12.583 -22.713  0.00  0.00    +0.130 C 
ATOM      6  C   UNL     1      33.808 -10.552 -25.607  0.00  0.00    +0.115 C 
ENDROOT
BRANCH   3  12
ATOM      7  N   UNL     1      33.037  -6.392 -23.932  0.00  0.00    -0.296 N 
ATOM      8  N   UNL     1      31.768  -4.389 -23.663  0.00  0.00    -0.233 NA
ATOM      9  N   UNL     1      33.709  -2.867 -26.842  0.00  0.00    -0.223 N 
ATOM     10  N   UNL     1      32.036  -2.464 -25.138  0.00  0.00    -0.232 NA
ATOM     11  N   UNL     1      34.555  -3.833 -27.245  0.00  0.00    -0.183 NA
ATOM     12  C   UNL     1      33.658  -9.048 -22.963  0.00  0.00    +0.070 C 
ATOM     13  C   UNL     1      32.253  -8.681 -23.464  0.00  0.00    +0.030 C 
ATOM     14  C   UNL     1      34.703  -8.191 -23.692  0.00  0.00    +0.030 C 
ATOM     15  C   UNL     1      31.978  -7.188 -23.295  0.00  0.00    +0.092 C 
ATOM     16  C   UNL     1      34.414  -6.698 -23.528  0.00  0.00    +0.092 C 
ATOM     17  C   UNL     1      32.711  -5.093 -24.337  0.00  0.00    +0.118 C 
ATOM     18  C   UNL     1      33.343  -4.504 -25.427  0.00  0.00    +0.152 C 
ATOM     19  C   UNL     1      32.959  -3.216 -25.758  0.00  0.00    +0.133 C 
ATOM     20  C   UNL     1      34.328  -4.827 -26.380  0.00  0.00    +0.105 C 
ATOM     21  C   UNL     1      31.494  -3.137 -24.099  0.00  0.00    +0.252 C 
ATOM     22  H   UNL     1      33.637  -1.992 -27.286  0.00  0.00    +0.176 HD
ENDBRANCH   3  12
BRANCH   5  24
ATOM     23  F   UNL     1      35.455 -17.281 -19.947  0.00  0.00    -0.204 F 
ATOM     24  C   UNL     1      34.647 -13.793 -22.005  0.00  0.00    +0.027 C 
ATOM     25  C   UNL     1      34.905 -14.970 -22.707  0.00  0.00    +0.008 C 
ATOM     26  C   UNL     1      34.664 -13.795 -20.610  0.00  0.00    +0.005 C 
ATOM     27  C   UNL     1      35.178 -16.150 -22.016  0.00  0.00    +0.099 C 
ATOM     28  C   UNL     1      34.937 -14.975 -19.917  0.00  0.00    +0.030 C 
ATOM     29  C   UNL     1      35.194 -16.152 -20.621  0.00  0.00    +0.144 C 
BRANCH  27  33
ATOM     30  F   UNL     1      36.727 -17.871 -22.613  0.00  0.00    -0.166 F 
ATOM     31  F   UNL     1      34.648 -18.449 -22.403  0.00  0.00    -0.166 F 
ATOM     32  F   UNL     1      35.277 -17.263 -24.114  0.00  0.00    -0.166 F 
ATOM     33  C   UNL     1      35.452 -17.407 -22.768  0.00  0.00    +0.421 C 
ENDBRANCH  27  33
ENDBRANCH   5  24
TORSDOF 3
ENDMDL
MODEL 8
REMARK VINA RESULT:     -10.1      7.621     13.024
REMARK  Name = 25118925
REMARK  3 active torsions:
REMARK  status: ('A' for Active; 'I' for Inactive)
REMARK    1  A    between atoms: C_3  and  C_12
REMARK    2  A    between atoms: C_5  and  C_24
REMARK    3  A    between atoms: C_27  and  C_33
REMARK                            x       y       z     vdW  Elec       q    Type
REMARK                         _______ _______ _______ _____ _____    ______ ____
ROOT
ATOM      1  N   UNL     1      36.108 -19.633 -19.958  0.00  0.00    -0.279 N 
ATOM      2  N   UNL     1      34.152 -18.988 -20.790  0.00  0.00    -0.394 NA
ATOM      3  C   UNL     1      34.758 -19.846 -20.000  0.00  0.00    +0.160 C 
ATOM      4  C   UNL     1      36.380 -18.570 -20.774  0.00  0.00    +0.152 C 
ATOM      5  C   UNL     1      35.158 -18.189 -21.276  0.00  0.00    +0.130 C 
ATOM      6  C   UNL     1      37.081 -20.382 -19.200  0.00  0.00    +0.115 C 
ENDROOT
BRANCH   3  12
ATOM      7  N   UNL     1      33.190 -22.299 -16.809  0.00  0.00    -0.296 N 
ATOM      8  N   UNL     1      31.452 -23.497 -15.696  0.00  0.00    -0.233 NA
ATOM      9  N   UNL     1      33.891 -23.857 -12.517  0.00  0.00    -0.223 N 
ATOM     10  N   UNL     1      31.707 -24.366 -13.431  0.00  0.00    -0.232 NA
ATOM     11  N   UNL     1      35.033 -23.234 -12.864  0.00  0.00    -0.183 NA
ATOM     12  C   UNL     1      34.091 -20.955 -19.210  0.00  0.00    +0.070 C 
ATOM     13  C   UNL     1      32.884 -20.447 -18.407  0.00  0.00    +0.030 C 
ATOM     14  C   UNL     1      35.072 -21.666 -18.266  0.00  0.00    +0.030 C 
ATOM     15  C   UNL     1      32.210 -21.585 -17.640  0.00  0.00    +0.092 C 
ATOM     16  C   UNL     1      34.388 -22.795 -17.495  0.00  0.00    +0.092 C 
ATOM     17  C   UNL     1      32.706 -22.981 -15.687  0.00  0.00    +0.118 C 
ATOM     18  C   UNL     1      33.496 -23.144 -14.554  0.00  0.00    +0.152 C 
ATOM     19  C   UNL     1      32.937 -23.832 -13.490  0.00  0.00    +0.133 C 
ATOM     20  C   UNL     1      34.786 -22.802 -14.106  0.00  0.00    +0.105 C 
ATOM     21  C   UNL     1      31.037 -24.147 -14.583  0.00  0.00    +0.252 C 
ATOM     22  H   UNL     1      33.757 -24.289 -11.643  0.00  0.00    +0.176 HD
ENDBRANCH   3  12
BRANCH   5  24
ATOM     23  F   UNL     1      34.348 -13.986 -24.824  0.00  0.00    -0.204 F 
ATOM     24  C   UNL     1      34.949 -17.106 -22.186  0.00  0.00    +0.027 C 
ATOM     25  C   UNL     1      34.803 -15.806 -21.702  0.00  0.00    +0.008 C 
ATOM     26  C   UNL     1      34.893 -17.350 -23.558  0.00  0.00    +0.005 C 
ATOM     27  C   UNL     1      34.600 -14.750 -22.590  0.00  0.00    +0.099 C 
ATOM     28  C   UNL     1      34.689 -16.295 -24.447  0.00  0.00    +0.030 C 
ATOM     29  C   UNL     1      34.543 -14.995 -23.962  0.00  0.00    +0.144 C 
BRANCH  27  33
ATOM     30  F   UNL     1      34.988 -12.409 -22.886  0.00  0.00    -0.166 F 
ATOM     31  F   UNL     1      33.142 -12.984 -21.903  0.00  0.00    -0.166 F 
ATOM     32  F   UNL     1      35.038 -13.184 -20.855  0.00  0.00    -0.166 F 
ATOM     33  C   UNL     1      34.444 -13.361 -22.071  0.00  0.00    +0.421 C 
ENDBRANCH  27  33
ENDBRANCH   5  24
TORSDOF 3
ENDMDL
MODEL 9
REMARK VINA RESULT:     -10.1      8.018     12.359
REMARK  Name = 25118925
REMARK  3 active torsions:
REMARK  status: ('A' for Active; 'I' for Inactive)
REMARK    1  A    between atoms: C_3  and  C_12
REMARK    2  A    between atoms: C_5  and  C_24
REMARK    3  A    between atoms: C_27  and  C_33
REMARK                            x       y       z     vdW  Elec       q    Type
REMARK                         _______ _______ _______ _____ _____    ______ ____
ROOT
ATOM      1  N   UNL     1      33.288 -22.535 -16.346  0.00  0.00    -0.279 N 
ATOM      2  N   UNL     1      35.509 -22.497 -16.378  0.00  0.00    -0.394 NA
ATOM      3  C   UNL     1      34.415 -22.187 -17.039  0.00  0.00    +0.160 C 
ATOM      4  C   UNL     1      33.689 -23.102 -15.169  0.00  0.00    +0.152 C 
ATOM      5  C   UNL     1      35.063 -23.068 -15.212  0.00  0.00    +0.130 C 
ATOM      6  C   UNL     1      31.920 -22.345 -16.766  0.00  0.00    +0.115 C 
ENDROOT
BRANCH   3  12
ATOM      7  N   UNL     1      34.894 -19.448 -20.343  0.00  0.00    -0.296 N 
ATOM      8  N   UNL     1      35.546 -18.881 -22.568  0.00  0.00    -0.233 NA
ATOM      9  N   UNL     1      35.040 -15.007 -21.608  0.00  0.00    -0.223 N 
ATOM     10  N   UNL     1      35.660 -16.573 -23.348  0.00  0.00    -0.232 NA
ATOM     11  N   UNL     1      34.645 -15.002 -20.322  0.00  0.00    -0.183 NA
ATOM     12  C   UNL     1      34.355 -21.527 -18.403  0.00  0.00    +0.070 C 
ATOM     13  C   UNL     1      35.750 -21.340 -19.017  0.00  0.00    +0.030 C 
ATOM     14  C   UNL     1      33.628 -20.174 -18.359  0.00  0.00    +0.030 C 
ATOM     15  C   UNL     1      35.664 -20.698 -20.401  0.00  0.00    +0.092 C 
ATOM     16  C   UNL     1      33.557 -19.533 -19.745  0.00  0.00    +0.092 C 
ATOM     17  C   UNL     1      35.146 -18.491 -21.333  0.00  0.00    +0.118 C 
ATOM     18  C   UNL     1      34.990 -17.133 -21.070  0.00  0.00    +0.152 C 
ATOM     19  C   UNL     1      35.261 -16.256 -22.106  0.00  0.00    +0.133 C 
ATOM     20  C   UNL     1      34.616 -16.300 -20.000  0.00  0.00    +0.105 C 
ATOM     21  C   UNL     1      35.775 -17.911 -23.485  0.00  0.00    +0.252 C 
ATOM     22  H   UNL     1      35.158 -14.187 -22.140  0.00  0.00    +0.176 HD
ENDBRANCH   3  12
BRANCH   5  24
ATOM     23  F   UNL     1      38.408 -24.977 -11.202  0.00  0.00    -0.204 F 
ATOM     24  C   UNL     1      35.925 -23.560 -14.183  0.00  0.00    +0.027 C 
ATOM     25  C   UNL     1      37.251 -23.877 -14.476  0.00  0.00    +0.008 C 
ATOM     26  C   UNL     1      35.441 -23.720 -12.884  0.00  0.00    +0.005 C 
ATOM     27  C   UNL     1      38.092 -24.357 -13.472  0.00  0.00    +0.099 C 
ATOM     28  C   UNL     1      36.280 -24.199 -11.880  0.00  0.00    +0.030 C 
ATOM     29  C   UNL     1      37.607 -24.517 -12.174  0.00  0.00    +0.144 C 
BRANCH  27  33
ATOM     30  F   UNL     1      39.944 -24.180 -14.975  0.00  0.00    -0.166 F 
ATOM     31  F   UNL     1      40.400 -24.245 -12.856  0.00  0.00    -0.166 F 
ATOM     32  F   UNL     1      39.719 -26.043 -13.875  0.00  0.00    -0.166 F 
ATOM     33  C   UNL     1      39.509 -24.697 -13.787  0.00  0.00    +0.421 C 
ENDBRANCH  27  33
ENDBRANCH   5  24
TORSDOF 3
ENDMDL
