MODEL 1
REMARK VINA RESULT:     -12.1      0.000      0.000
REMARK  Name = 216210
REMARK  9 active torsions:
REMARK  status: ('A' for Active; 'I' for Inactive)
REMARK    1  A    between atoms: C_4  and  C_26
REMARK    2  A    between atoms: C_6  and  C_13
REMARK    3  A    between atoms: N_12  and  C_20
REMARK    4  A    between atoms: C_20  and  C_21
REMARK    5  A    between atoms: C_21  and  C_23
REMARK    6  A    between atoms: C_23  and  O_24
REMARK    7  A    between atoms: C_26  and  N_27
REMARK    8  A    between atoms: N_27  and  C_29
REMARK    9  A    between atoms: C_34  and  C_37
REMARK                            x       y       z     vdW  Elec       q    Type
REMARK                         _______ _______ _______ _____ _____    ______ ____
ROOT
ATOM      1  N   UNL     1      34.388 -16.533 -23.950  0.00  0.00    -0.261 N 
ATOM      2  N   UNL     1      35.362 -15.756 -22.110  0.00  0.00    -0.388 NA
ATOM      3  C   UNL     1      34.230 -15.167 -23.881  0.00  0.00    +0.079 C 
ATOM      4  C   UNL     1      35.069 -16.852 -22.873  0.00  0.00    +0.184 C 
ATOM      5  C   UNL     1      34.833 -14.657 -22.735  0.00  0.00    +0.146 C 
ATOM      6  C   UNL     1      34.179 -12.439 -23.297  0.00  0.00    +0.039 C 
ATOM      7  C   UNL     1      34.830 -13.300 -22.407  0.00  0.00    +0.034 C 
ATOM      8  C   UNL     1      33.580 -14.288 -24.764  0.00  0.00    -0.004 C 
ATOM      9  C   UNL     1      33.565 -12.922 -24.455  0.00  0.00    +0.058 C 
ATOM     10  C   UNL     1      33.899 -17.401 -24.994  0.00  0.00    +0.120 C 
ENDROOT
BRANCH   6  13
ATOM     11  O   UNL     1      35.172 -10.378 -23.282  0.00  0.00    -0.270 OA
ATOM     12  N   UNL     1      32.961 -10.454 -22.454  0.00  0.00    -0.240 N 
ATOM     13  C   UNL     1      34.143 -11.013 -23.009  0.00  0.00    +0.250 C 
ATOM     14  N   UNL     1      33.429  -8.358 -23.544  0.00  0.00    -0.229 NA
ATOM     15  C   UNL     1      32.610  -9.077 -22.745  0.00  0.00    +0.138 C 
ATOM     16  C   UNL     1      31.448  -8.581 -22.178  0.00  0.00    +0.035 C 
ATOM     17  C   UNL     1      31.103  -7.261 -22.449  0.00  0.00    +0.004 C 
ATOM     18  C   UNL     1      33.063  -7.079 -23.786  0.00  0.00    +0.100 C 
ATOM     19  C   UNL     1      31.920  -6.490 -23.268  0.00  0.00    +0.021 C 
BRANCH  12  20
ATOM     20  C   UNL     1      32.090 -11.262 -21.586  0.00  0.00    +0.112 C 
BRANCH  20  21
ATOM     21  C   UNL     1      32.502 -11.175 -20.122  0.00  0.00    +0.131 C 
BRANCH  21  23
ATOM     22  O   UNL     1      31.420 -10.673 -17.996  0.00  0.00    -0.250 OA
ATOM     23  C   UNL     1      31.338 -10.889 -19.197  0.00  0.00    +0.316 C 
BRANCH  23  24
ATOM     24  O   UNL     1      30.158 -10.891 -19.871  0.00  0.00    -0.480 OA
ATOM     25  H   UNL     1      29.357 -11.056 -19.413  0.00  0.00    +0.295 HD
ENDBRANCH  23  24
ENDBRANCH  21  23
ENDBRANCH  20  21
ENDBRANCH  12  20
ENDBRANCH   6  13
BRANCH   4  26
ATOM     26  C   UNL     1      35.464 -18.238 -22.549  0.00  0.00    +0.164 C 
BRANCH  26  27
ATOM     27  N   UNL     1      35.916 -18.450 -21.179  0.00  0.00    -0.326 N 
ATOM     28  H   UNL     1      36.693 -17.938 -20.858  0.00  0.00    +0.147 HD
BRANCH  27  29
ATOM     29  C   UNL     1      35.310 -19.333 -20.312  0.00  0.00    +0.045 C 
ATOM     30  C   UNL     1      36.088 -20.169 -19.510  0.00  0.00    +0.014 C 
ATOM     31  C   UNL     1      33.918 -19.395 -20.239  0.00  0.00    +0.014 C 
ATOM     32  C   UNL     1      35.474 -21.064 -18.635  0.00  0.00    +0.004 C 
ATOM     33  C   UNL     1      33.305 -20.290 -19.363  0.00  0.00    +0.004 C 
ATOM     34  C   UNL     1      34.083 -21.125 -18.561  0.00  0.00    +0.031 C 
BRANCH  34  37
ATOM     35  N   UNL     1      32.101 -21.922 -17.294  0.00  0.00    -0.343 N 
ATOM     36  N   UNL     1      34.137 -23.056 -17.133  0.00  0.00    -0.285 NA
ATOM     37  C   UNL     1      33.442 -22.058 -17.648  0.00  0.00    +0.117 C 
ATOM     38  H   UNL     1      31.687 -22.565 -16.674  0.00  0.00    +0.144 HD
ATOM     39  H   UNL     1      31.567 -21.182 -17.665  0.00  0.00    +0.144 HD
ATOM     40  H   UNL     1      33.706 -23.689 -16.515  0.00  0.00    +0.188 HD
ENDBRANCH  34  37
ENDBRANCH  27  29
ENDBRANCH  26  27
ENDBRANCH   4  26
TORSDOF 9
ENDMDL
MODEL 2
REMARK VINA RESULT:     -11.4      1.660      3.110
REMARK  Name = 216210
REMARK  9 active torsions:
REMARK  status: ('A' for Active; 'I' for Inactive)
REMARK    1  A    between atoms: C_4  and  C_26
REMARK    2  A    between atoms: C_6  and  C_13
REMARK    3  A    between atoms: N_12  and  C_20
REMARK    4  A    between atoms: C_20  and  C_21
REMARK    5  A    between atoms: C_21  and  C_23
REMARK    6  A    between atoms: C_23  and  O_24
REMARK    7  A    between atoms: C_26  and  N_27
REMARK    8  A    between atoms: N_27  and  C_29
REMARK    9  A    between atoms: C_34  and  C_37
REMARK                            x       y       z     vdW  Elec       q    Type
REMARK                         _______ _______ _______ _____ _____    ______ ____
ROOT
ATOM      1  N   UNL     1      34.946 -15.569 -22.783  0.00  0.00    -0.261 N 
ATOM      2  N   UNL     1      35.000 -15.045 -20.624  0.00  0.00    -0.388 NA
ATOM      3  C   UNL     1      34.260 -14.395 -22.572  0.00  0.00    +0.079 C 
ATOM      4  C   UNL     1      35.375 -15.931 -21.595  0.00  0.00    +0.184 C 
ATOM      5  C   UNL     1      34.280 -14.045 -21.225  0.00  0.00    +0.146 C 
ATOM      6  C   UNL     1      32.999 -12.084 -21.645  0.00  0.00    +0.039 C 
ATOM      7  C   UNL     1      33.662 -12.900 -20.721  0.00  0.00    +0.034 C 
ATOM      8  C   UNL     1      33.588 -13.565 -23.486  0.00  0.00    -0.004 C 
ATOM      9  C   UNL     1      32.962 -12.409 -23.003  0.00  0.00    +0.058 C 
ATOM     10  C   UNL     1      35.138 -16.235 -24.049  0.00  0.00    +0.120 C 
ENDROOT
BRANCH   6  13
ATOM     11  O   UNL     1      31.500 -11.028 -20.277  0.00  0.00    -0.270 OA
ATOM     12  N   UNL     1      32.682  -9.631 -21.771  0.00  0.00    -0.240 N 
ATOM     13  C   UNL     1      32.336 -10.875 -21.180  0.00  0.00    +0.250 C 
ATOM     14  N   UNL     1      32.185  -8.501 -19.703  0.00  0.00    -0.229 NA
ATOM     15  C   UNL     1      32.597  -8.413 -20.987  0.00  0.00    +0.138 C 
ATOM     16  C   UNL     1      32.947  -7.226 -21.611  0.00  0.00    +0.035 C 
ATOM     17  C   UNL     1      32.868  -6.053 -20.869  0.00  0.00    +0.004 C 
ATOM     18  C   UNL     1      32.120  -7.340 -19.013  0.00  0.00    +0.100 C 
ATOM     19  C   UNL     1      32.448  -6.103 -19.544  0.00  0.00    +0.021 C 
BRANCH  12  20
ATOM     20  C   UNL     1      33.127  -9.568 -23.172  0.00  0.00    +0.112 C 
BRANCH  20  21
ATOM     21  C   UNL     1      34.623  -9.306 -23.286  0.00  0.00    +0.131 C 
BRANCH  21  23
ATOM     22  O   UNL     1      34.595 -10.336 -25.496  0.00  0.00    -0.250 OA
ATOM     23  C   UNL     1      35.196  -9.723 -24.624  0.00  0.00    +0.316 C 
BRANCH  23  24
ATOM     24  O   UNL     1      36.488  -9.321 -24.756  0.00  0.00    -0.480 OA
ATOM     25  H   UNL     1      36.907  -8.857 -24.059  0.00  0.00    +0.295 HD
ENDBRANCH  23  24
ENDBRANCH  21  23
ENDBRANCH  20  21
ENDBRANCH  12  20
ENDBRANCH   6  13
BRANCH   4  26
ATOM     26  C   UNL     1      36.170 -17.154 -21.363  0.00  0.00    +0.164 C 
BRANCH  26  27
ATOM     27  N   UNL     1      35.478 -18.406 -21.640  0.00  0.00    -0.326 N 
ATOM     28  H   UNL     1      35.313 -18.653 -22.579  0.00  0.00    +0.147 HD
BRANCH  27  29
ATOM     29  C   UNL     1      35.040 -19.262 -20.652  0.00  0.00    +0.045 C 
ATOM     30  C   UNL     1      35.963 -19.967 -19.880  0.00  0.00    +0.014 C 
ATOM     31  C   UNL     1      33.673 -19.426 -20.427  0.00  0.00    +0.014 C 
ATOM     32  C   UNL     1      35.520 -20.834 -18.882  0.00  0.00    +0.004 C 
ATOM     33  C   UNL     1      33.230 -20.293 -19.429  0.00  0.00    +0.004 C 
ATOM     34  C   UNL     1      34.153 -20.998 -18.657  0.00  0.00    +0.031 C 
BRANCH  34  37
ATOM     35  N   UNL     1      32.335 -22.036 -17.323  0.00  0.00    -0.343 N 
ATOM     36  N   UNL     1      34.564 -22.613 -16.926  0.00  0.00    -0.285 NA
ATOM     37  C   UNL     1      33.691 -21.902 -17.616  0.00  0.00    +0.117 C 
ATOM     38  H   UNL     1      32.043 -22.655 -16.614  0.00  0.00    +0.144 HD
ATOM     39  H   UNL     1      31.668 -21.513 -17.824  0.00  0.00    +0.144 HD
ATOM     40  H   UNL     1      34.253 -23.225 -16.221  0.00  0.00    +0.188 HD
ENDBRANCH  34  37
ENDBRANCH  27  29
ENDBRANCH  26  27
ENDBRANCH   4  26
TORSDOF 9
ENDMDL
MODEL 3
REMARK VINA RESULT:     -11.3      5.493     12.579
REMARK  Name = 216210
REMARK  9 active torsions:
REMARK  status: ('A' for Active; 'I' for Inactive)
REMARK    1  A    between atoms: C_4  and  C_26
REMARK    2  A    between atoms: C_6  and  C_13
REMARK    3  A    between atoms: N_12  and  C_20
REMARK    4  A    between atoms: C_20  and  C_21
REMARK    5  A    between atoms: C_21  and  C_23
REMARK    6  A    between atoms: C_23  and  O_24
REMARK    7  A    between atoms: C_26  and  N_27
REMARK    8  A    between atoms: N_27  and  C_29
REMARK    9  A    between atoms: C_34  and  C_37
REMARK                            x       y       z     vdW  Elec       q    Type
REMARK                         _______ _______ _______ _____ _____    ______ ____
ROOT
ATOM      1  N   UNL     1      34.039 -20.298 -19.391  0.00  0.00    -0.261 N 
ATOM      2  N   UNL     1      36.172 -20.196 -18.775  0.00  0.00    -0.388 NA
ATOM      3  C   UNL     1      34.254 -21.132 -18.317  0.00  0.00    +0.079 C 
ATOM      4  C   UNL     1      35.209 -19.754 -19.639  0.00  0.00    +0.184 C 
ATOM      5  C   UNL     1      35.585 -21.085 -17.913  0.00  0.00    +0.146 C 
ATOM      6  C   UNL     1      35.181 -22.656 -16.170  0.00  0.00    +0.039 C 
ATOM      7  C   UNL     1      36.088 -21.831 -16.845  0.00  0.00    +0.034 C 
ATOM      8  C   UNL     1      33.357 -21.966 -17.628  0.00  0.00    -0.004 C 
ATOM      9  C   UNL     1      33.839 -22.723 -16.553  0.00  0.00    +0.058 C 
ATOM     10  C   UNL     1      32.786 -20.085 -20.075  0.00  0.00    +0.120 C 
ENDROOT
BRANCH   6  13
ATOM     11  O   UNL     1      36.522 -24.296 -15.308  0.00  0.00    -0.270 OA
ATOM     12  N   UNL     1      35.086 -23.231 -13.764  0.00  0.00    -0.240 N 
ATOM     13  C   UNL     1      35.646 -23.457 -15.049  0.00  0.00    +0.250 C 
ATOM     14  N   UNL     1      37.157 -23.902 -12.733  0.00  0.00    -0.229 NA
ATOM     15  C   UNL     1      35.887 -23.468 -12.577  0.00  0.00    +0.138 C 
ATOM     16  C   UNL     1      35.292 -23.232 -11.348  0.00  0.00    +0.035 C 
ATOM     17  C   UNL     1      36.051 -23.457 -10.204  0.00  0.00    +0.004 C 
ATOM     18  C   UNL     1      37.864 -24.111 -11.600  0.00  0.00    +0.100 C 
ATOM     19  C   UNL     1      37.362 -23.904 -10.324  0.00  0.00    +0.021 C 
BRANCH  12  20
ATOM     20  C   UNL     1      33.699 -22.758 -13.626  0.00  0.00    +0.112 C 
BRANCH  20  21
ATOM     21  C   UNL     1      32.716 -23.910 -13.464  0.00  0.00    +0.131 C 
BRANCH  21  23
ATOM     22  O   UNL     1      30.729 -22.518 -13.704  0.00  0.00    -0.250 OA
ATOM     23  C   UNL     1      31.308 -23.445 -13.156  0.00  0.00    +0.316 C 
BRANCH  23  24
ATOM     24  O   UNL     1      30.739 -24.202 -12.181  0.00  0.00    -0.480 OA
ATOM     25  H   UNL     1      31.229 -24.421 -11.413  0.00  0.00    +0.295 HD
ENDBRANCH  23  24
ENDBRANCH  21  23
ENDBRANCH  20  21
ENDBRANCH  12  20
ENDBRANCH   6  13
BRANCH   4  26
ATOM     26  C   UNL     1      35.432 -18.780 -20.727  0.00  0.00    +0.164 C 
BRANCH  26  27
ATOM     27  N   UNL     1      35.942 -17.483 -20.302  0.00  0.00    -0.326 N 
ATOM     28  H   UNL     1      36.680 -17.460 -19.651  0.00  0.00    +0.147 HD
BRANCH  27  29
ATOM     29  C   UNL     1      35.442 -16.286 -20.767  0.00  0.00    +0.045 C 
ATOM     30  C   UNL     1      34.957 -15.336 -19.868  0.00  0.00    +0.014 C 
ATOM     31  C   UNL     1      35.418 -16.025 -22.138  0.00  0.00    +0.014 C 
ATOM     32  C   UNL     1      34.448 -14.126 -20.339  0.00  0.00    +0.004 C 
ATOM     33  C   UNL     1      34.910 -14.815 -22.608  0.00  0.00    +0.004 C 
ATOM     34  C   UNL     1      34.425 -13.865 -21.709  0.00  0.00    +0.031 C 
BRANCH  34  37
ATOM     35  N   UNL     1      32.647 -12.133 -21.793  0.00  0.00    -0.343 N 
ATOM     36  N   UNL     1      34.598 -11.881 -23.054  0.00  0.00    -0.285 NA
ATOM     37  C   UNL     1      33.895 -12.603 -22.201  0.00  0.00    +0.117 C 
ATOM     38  H   UNL     1      32.307 -11.275 -22.138  0.00  0.00    +0.144 HD
ATOM     39  H   UNL     1      32.106 -12.657 -21.160  0.00  0.00    +0.144 HD
ATOM     40  H   UNL     1      34.242 -11.027 -23.388  0.00  0.00    +0.188 HD
ENDBRANCH  34  37
ENDBRANCH  27  29
ENDBRANCH  26  27
ENDBRANCH   4  26
TORSDOF 9
ENDMDL
MODEL 4
REMARK VINA RESULT:     -10.9      5.448     12.428
REMARK  Name = 216210
REMARK  9 active torsions:
REMARK  status: ('A' for Active; 'I' for Inactive)
REMARK    1  A    between atoms: C_4  and  C_26
REMARK    2  A    between atoms: C_6  and  C_13
REMARK    3  A    between atoms: N_12  and  C_20
REMARK    4  A    between atoms: C_20  and  C_21
REMARK    5  A    between atoms: C_21  and  C_23
REMARK    6  A    between atoms: C_23  and  O_24
REMARK    7  A    between atoms: C_26  and  N_27
REMARK    8  A    between atoms: N_27  and  C_29
REMARK    9  A    between atoms: C_34  and  C_37
REMARK                            x       y       z     vdW  Elec       q    Type
REMARK                         _______ _______ _______ _____ _____    ______ ____
ROOT
ATOM      1  N   UNL     1      34.490 -20.163 -19.707  0.00  0.00    -0.261 N 
ATOM      2  N   UNL     1      36.651 -19.795 -19.344  0.00  0.00    -0.388 NA
ATOM      3  C   UNL     1      34.885 -20.810 -18.558  0.00  0.00    +0.079 C 
ATOM      4  C   UNL     1      35.572 -19.566 -20.152  0.00  0.00    +0.184 C 
ATOM      5  C   UNL     1      36.237 -20.594 -18.309  0.00  0.00    +0.146 C 
ATOM      6  C   UNL     1      36.155 -21.921 -16.335  0.00  0.00    +0.039 C 
ATOM      7  C   UNL     1      36.909 -21.131 -17.210  0.00  0.00    +0.034 C 
ATOM      8  C   UNL     1      34.143 -21.607 -17.670  0.00  0.00    -0.004 C 
ATOM      9  C   UNL     1      34.796 -22.155 -16.559  0.00  0.00    +0.058 C 
ATOM     10  C   UNL     1      33.163 -20.159 -20.276  0.00  0.00    +0.120 C 
ENDROOT
BRANCH   6  13
ATOM     11  O   UNL     1      38.036 -22.425 -15.136  0.00  0.00    -0.270 OA
ATOM     12  N   UNL     1      35.993 -23.117 -14.173  0.00  0.00    -0.240 N 
ATOM     13  C   UNL     1      36.800 -22.507 -15.170  0.00  0.00    +0.250 C 
ATOM     14  N   UNL     1      37.613 -22.527 -12.490  0.00  0.00    -0.229 NA
ATOM     15  C   UNL     1      36.434 -23.115 -12.790  0.00  0.00    +0.138 C 
ATOM     16  C   UNL     1      35.610 -23.723 -11.857  0.00  0.00    +0.035 C 
ATOM     17  C   UNL     1      36.023 -23.727 -10.529  0.00  0.00    +0.004 C 
ATOM     18  C   UNL     1      37.983 -22.551 -11.190  0.00  0.00    +0.100 C 
ATOM     19  C   UNL     1      37.231 -23.132 -10.181  0.00  0.00    +0.021 C 
BRANCH  12  20
ATOM     20  C   UNL     1      34.714 -23.750 -14.530  0.00  0.00    +0.112 C 
BRANCH  20  21
ATOM     21  C   UNL     1      33.523 -23.004 -13.944  0.00  0.00    +0.131 C 
BRANCH  21  23
ATOM     22  O   UNL     1      31.356 -23.949 -14.538  0.00  0.00    -0.250 OA
ATOM     23  C   UNL     1      32.303 -23.883 -13.767  0.00  0.00    +0.316 C 
BRANCH  23  24
ATOM     24  O   UNL     1      32.384 -24.619 -12.628  0.00  0.00    -0.480 OA
ATOM     25  H   UNL     1      31.625 -25.058 -12.298  0.00  0.00    +0.295 HD
ENDBRANCH  23  24
ENDBRANCH  21  23
ENDBRANCH  20  21
ENDBRANCH  12  20
ENDBRANCH   6  13
BRANCH   4  26
ATOM     26  C   UNL     1      35.595 -18.747 -21.381  0.00  0.00    +0.164 C 
BRANCH  26  27
ATOM     27  N   UNL     1      35.929 -17.342 -21.183  0.00  0.00    -0.326 N 
ATOM     28  H   UNL     1      36.571 -17.108 -20.473  0.00  0.00    +0.147 HD
BRANCH  27  29
ATOM     29  C   UNL     1      35.391 -16.324 -21.939  0.00  0.00    +0.045 C 
ATOM     30  C   UNL     1      35.063 -15.107 -21.340  0.00  0.00    +0.014 C 
ATOM     31  C   UNL     1      35.170 -16.511 -23.304  0.00  0.00    +0.014 C 
ATOM     32  C   UNL     1      34.515 -14.079 -22.105  0.00  0.00    +0.004 C 
ATOM     33  C   UNL     1      34.623 -15.481 -24.069  0.00  0.00    +0.004 C 
ATOM     34  C   UNL     1      34.295 -14.265 -23.470  0.00  0.00    +0.031 C 
BRANCH  34  37
ATOM     35  N   UNL     1      32.938 -13.461 -25.388  0.00  0.00    -0.343 N 
ATOM     36  N   UNL     1      33.951 -11.934 -23.938  0.00  0.00    -0.285 NA
ATOM     37  C   UNL     1      33.724 -13.192 -24.268  0.00  0.00    +0.117 C 
ATOM     38  H   UNL     1      32.561 -12.719 -25.915  0.00  0.00    +0.144 HD
ATOM     39  H   UNL     1      32.759 -14.392 -25.652  0.00  0.00    +0.144 HD
ATOM     40  H   UNL     1      33.566 -11.206 -24.477  0.00  0.00    +0.188 HD
ENDBRANCH  34  37
ENDBRANCH  27  29
ENDBRANCH  26  27
ENDBRANCH   4  26
TORSDOF 9
ENDMDL
MODEL 5
REMARK VINA RESULT:     -10.1      3.880      7.418
REMARK  Name = 216210
REMARK  9 active torsions:
REMARK  status: ('A' for Active; 'I' for Inactive)
REMARK    1  A    between atoms: C_4  and  C_26
REMARK    2  A    between atoms: C_6  and  C_13
REMARK    3  A    between atoms: N_12  and  C_20
REMARK    4  A    between atoms: C_20  and  C_21
REMARK    5  A    between atoms: C_21  and  C_23
REMARK    6  A    between atoms: C_23  and  O_24
REMARK    7  A    between atoms: C_26  and  N_27
REMARK    8  A    between atoms: N_27  and  C_29
REMARK    9  A    between atoms: C_34  and  C_37
REMARK                            x       y       z     vdW  Elec       q    Type
REMARK                         _______ _______ _______ _____ _____    ______ ____
ROOT
ATOM      1  N   UNL     1      35.307 -21.309 -17.626  0.00  0.00    -0.261 N 
ATOM      2  N   UNL     1      33.369 -21.080 -18.690  0.00  0.00    -0.388 NA
ATOM      3  C   UNL     1      35.490 -20.568 -18.772  0.00  0.00    +0.079 C 
ATOM      4  C   UNL     1      34.025 -21.598 -17.609  0.00  0.00    +0.184 C 
ATOM      5  C   UNL     1      34.289 -20.411 -19.456  0.00  0.00    +0.146 C 
ATOM      6  C   UNL     1      35.351 -19.137 -21.164  0.00  0.00    +0.039 C 
ATOM      7  C   UNL     1      34.177 -19.704 -20.654  0.00  0.00    +0.034 C 
ATOM      8  C   UNL     1      36.660 -19.994 -19.298  0.00  0.00    -0.004 C 
ATOM      9  C   UNL     1      36.571 -19.279 -20.499  0.00  0.00    +0.058 C 
ATOM     10  C   UNL     1      36.322 -21.671 -16.667  0.00  0.00    +0.120 C 
ENDROOT
BRANCH   6  13
ATOM     11  O   UNL     1      35.237 -19.064 -23.447  0.00  0.00    -0.270 OA
ATOM     12  N   UNL     1      35.313 -16.969 -22.358  0.00  0.00    -0.240 N 
ATOM     13  C   UNL     1      35.297 -18.388 -22.409  0.00  0.00    +0.250 C 
ATOM     14  N   UNL     1      34.003 -16.873 -24.378  0.00  0.00    -0.229 NA
ATOM     15  C   UNL     1      34.635 -16.203 -23.388  0.00  0.00    +0.138 C 
ATOM     16  C   UNL     1      34.681 -14.822 -23.292  0.00  0.00    +0.035 C 
ATOM     17  C   UNL     1      34.036 -14.079 -24.274  0.00  0.00    +0.004 C 
ATOM     18  C   UNL     1      33.388 -16.118 -25.316  0.00  0.00    +0.100 C 
ATOM     19  C   UNL     1      33.374 -14.732 -25.309  0.00  0.00    +0.021 C 
BRANCH  12  20
ATOM     20  C   UNL     1      36.010 -16.268 -21.268  0.00  0.00    +0.112 C 
BRANCH  20  21
ATOM     21  C   UNL     1      35.098 -16.014 -20.076  0.00  0.00    +0.131 C 
BRANCH  21  23
ATOM     22  O   UNL     1      35.440 -13.600 -20.057  0.00  0.00    -0.250 OA
ATOM     23  C   UNL     1      34.692 -14.561 -19.941  0.00  0.00    +0.316 C 
BRANCH  23  24
ATOM     24  O   UNL     1      33.365 -14.440 -19.678  0.00  0.00    -0.480 OA
ATOM     25  H   UNL     1      32.854 -15.202 -19.487  0.00  0.00    +0.295 HD
ENDBRANCH  23  24
ENDBRANCH  21  23
ENDBRANCH  20  21
ENDBRANCH  12  20
ENDBRANCH   6  13
BRANCH   4  26
ATOM     26  C   UNL     1      33.391 -22.390 -16.535  0.00  0.00    +0.164 C 
BRANCH  26  27
ATOM     27  N   UNL     1      34.150 -23.553 -16.091  0.00  0.00    -0.326 N 
ATOM     28  H   UNL     1      34.290 -24.291 -16.728  0.00  0.00    +0.147 HD
BRANCH  27  29
ATOM     29  C   UNL     1      34.679 -23.671 -14.824  0.00  0.00    +0.045 C 
ATOM     30  C   UNL     1      33.999 -23.135 -13.731  0.00  0.00    +0.014 C 
ATOM     31  C   UNL     1      35.899 -24.323 -14.636  0.00  0.00    +0.014 C 
ATOM     32  C   UNL     1      34.536 -23.252 -12.450  0.00  0.00    +0.004 C 
ATOM     33  C   UNL     1      36.435 -24.440 -13.354  0.00  0.00    +0.004 C 
ATOM     34  C   UNL     1      35.754 -23.904 -12.261  0.00  0.00    +0.031 C 
BRANCH  34  37
ATOM     35  N   UNL     1      37.623 -23.633 -10.649  0.00  0.00    -0.343 N 
ATOM     36  N   UNL     1      35.580 -24.523  -9.946  0.00  0.00    -0.285 NA
ATOM     37  C   UNL     1      36.315 -24.027 -10.924  0.00  0.00    +0.117 C 
ATOM     38  H   UNL     1      37.983 -23.725  -9.736  0.00  0.00    +0.144 HD
ATOM     39  H   UNL     1      38.188 -23.263 -11.365  0.00  0.00    +0.144 HD
ATOM     40  H   UNL     1      35.957 -24.607  -9.040  0.00  0.00    +0.188 HD
ENDBRANCH  34  37
ENDBRANCH  27  29
ENDBRANCH  26  27
ENDBRANCH   4  26
TORSDOF 9
ENDMDL
MODEL 6
REMARK VINA RESULT:     -10.1      1.691      3.505
REMARK  Name = 216210
REMARK  9 active torsions:
REMARK  status: ('A' for Active; 'I' for Inactive)
REMARK    1  A    between atoms: C_4  and  C_26
REMARK    2  A    between atoms: C_6  and  C_13
REMARK    3  A    between atoms: N_12  and  C_20
REMARK    4  A    between atoms: C_20  and  C_21
REMARK    5  A    between atoms: C_21  and  C_23
REMARK    6  A    between atoms: C_23  and  O_24
REMARK    7  A    between atoms: C_26  and  N_27
REMARK    8  A    between atoms: N_27  and  C_29
REMARK    9  A    between atoms: C_34  and  C_37
REMARK                            x       y       z     vdW  Elec       q    Type
REMARK                         _______ _______ _______ _____ _____    ______ ____
ROOT
ATOM      1  N   UNL     1      34.941 -15.299 -20.785  0.00  0.00    -0.261 N 
ATOM      2  N   UNL     1      34.792 -14.785 -22.942  0.00  0.00    -0.388 NA
ATOM      3  C   UNL     1      34.268 -14.107 -20.933  0.00  0.00    +0.079 C 
ATOM      4  C   UNL     1      35.240 -15.676 -22.007  0.00  0.00    +0.184 C 
ATOM      5  C   UNL     1      34.162 -13.764 -22.278  0.00  0.00    +0.146 C 
ATOM      6  C   UNL     1      32.982 -11.767 -21.745  0.00  0.00    +0.039 C 
ATOM      7  C   UNL     1      33.527 -12.604 -22.725  0.00  0.00    +0.034 C 
ATOM      8  C   UNL     1      33.716 -13.255 -19.962  0.00  0.00    -0.004 C 
ATOM      9  C   UNL     1      33.073 -12.085 -20.388  0.00  0.00    +0.058 C 
ATOM     10  C   UNL     1      35.238 -15.967 -19.540  0.00  0.00    +0.120 C 
ENDROOT
BRANCH   6  13
ATOM     11  O   UNL     1      31.133 -10.421 -21.772  0.00  0.00    -0.270 OA
ATOM     12  N   UNL     1      33.019  -9.590 -22.925  0.00  0.00    -0.240 N 
ATOM     13  C   UNL     1      32.307 -10.543 -22.149  0.00  0.00    +0.250 C 
ATOM     14  N   UNL     1      31.722  -7.812 -21.948  0.00  0.00    -0.229 NA
ATOM     15  C   UNL     1      32.700  -8.180 -22.804  0.00  0.00    +0.138 C 
ATOM     16  C   UNL     1      33.424  -7.292 -23.583  0.00  0.00    +0.035 C 
ATOM     17  C   UNL     1      33.125  -5.938 -23.476  0.00  0.00    +0.004 C 
ATOM     18  C   UNL     1      31.458  -6.488 -21.870  0.00  0.00    +0.100 C 
ATOM     19  C   UNL     1      32.125  -5.520 -22.605  0.00  0.00    +0.021 C 
BRANCH  12  20
ATOM     20  C   UNL     1      34.080 -10.022 -23.850  0.00  0.00    +0.112 C 
BRANCH  20  21
ATOM     21  C   UNL     1      33.522 -10.442 -25.203  0.00  0.00    +0.131 C 
BRANCH  21  23
ATOM     22  O   UNL     1      35.608 -10.117 -26.422  0.00  0.00    -0.250 OA
ATOM     23  C   UNL     1      34.602 -10.780 -26.208  0.00  0.00    +0.316 C 
BRANCH  23  24
ATOM     24  O   UNL     1      34.327 -11.940 -26.859  0.00  0.00    -0.480 OA
ATOM     25  H   UNL     1      34.901 -12.676 -26.770  0.00  0.00    +0.295 HD
ENDBRANCH  23  24
ENDBRANCH  21  23
ENDBRANCH  20  21
ENDBRANCH  12  20
ENDBRANCH   6  13
BRANCH   4  26
ATOM     26  C   UNL     1      35.973 -16.922 -22.310  0.00  0.00    +0.164 C 
BRANCH  26  27
ATOM     27  N   UNL     1      35.146 -18.117 -22.418  0.00  0.00    -0.326 N 
ATOM     28  H   UNL     1      34.763 -18.344 -23.296  0.00  0.00    +0.147 HD
BRANCH  27  29
ATOM     29  C   UNL     1      34.871 -18.945 -21.350  0.00  0.00    +0.045 C 
ATOM     30  C   UNL     1      35.915 -19.535 -20.638  0.00  0.00    +0.014 C 
ATOM     31  C   UNL     1      33.548 -19.194 -20.984  0.00  0.00    +0.014 C 
ATOM     32  C   UNL     1      35.637 -20.374 -19.560  0.00  0.00    +0.004 C 
ATOM     33  C   UNL     1      33.270 -20.033 -19.905  0.00  0.00    +0.004 C 
ATOM     34  C   UNL     1      34.314 -20.623 -19.193  0.00  0.00    +0.031 C 
BRANCH  34  37
ATOM     35  N   UNL     1      32.713 -21.810 -17.712  0.00  0.00    -0.343 N 
ATOM     36  N   UNL     1      35.014 -22.009 -17.359  0.00  0.00    -0.285 NA
ATOM     37  C   UNL     1      34.024 -21.498 -18.068  0.00  0.00    +0.117 C 
ATOM     38  H   UNL     1      32.539 -22.405 -16.947  0.00  0.00    +0.144 HD
ATOM     39  H   UNL     1      31.961 -21.437 -18.226  0.00  0.00    +0.144 HD
ATOM     40  H   UNL     1      34.820 -22.601 -16.597  0.00  0.00    +0.188 HD
ENDBRANCH  34  37
ENDBRANCH  27  29
ENDBRANCH  26  27
ENDBRANCH   4  26
TORSDOF 9
ENDMDL
MODEL 7
REMARK VINA RESULT:      -9.7      2.756      4.770
REMARK  Name = 216210
REMARK  9 active torsions:
REMARK  status: ('A' for Active; 'I' for Inactive)
REMARK    1  A    between atoms: C_4  and  C_26
REMARK    2  A    between atoms: C_6  and  C_13
REMARK    3  A    between atoms: N_12  and  C_20
REMARK    4  A    between atoms: C_20  and  C_21
REMARK    5  A    between atoms: C_21  and  C_23
REMARK    6  A    between atoms: C_23  and  O_24
REMARK    7  A    between atoms: C_26  and  N_27
REMARK    8  A    between atoms: N_27  and  C_29
REMARK    9  A    between atoms: C_34  and  C_37
REMARK                            x       y       z     vdW  Elec       q    Type
REMARK                         _______ _______ _______ _____ _____    ______ ____
ROOT
ATOM      1  N   UNL     1      33.246 -12.327 -22.438  0.00  0.00    -0.261 N 
ATOM      2  N   UNL     1      34.209 -11.894 -24.394  0.00  0.00    -0.388 NA
ATOM      3  C   UNL     1      33.333 -10.966 -22.622  0.00  0.00    +0.079 C 
ATOM      4  C   UNL     1      33.780 -12.852 -23.518  0.00  0.00    +0.184 C 
ATOM      5  C   UNL     1      33.934 -10.669 -23.842  0.00  0.00    +0.146 C 
ATOM      6  C   UNL     1      33.735  -8.330 -23.448  0.00  0.00    +0.039 C 
ATOM      7  C   UNL     1      34.152  -9.366 -24.291  0.00  0.00    +0.034 C 
ATOM      8  C   UNL     1      32.921  -9.914 -21.787  0.00  0.00    -0.004 C 
ATOM      9  C   UNL     1      33.129  -8.597 -22.218  0.00  0.00    +0.058 C 
ATOM     10  C   UNL     1      32.682 -13.004 -21.295  0.00  0.00    +0.120 C 
ENDROOT
BRANCH   6  13
ATOM     11  O   UNL     1      35.018  -6.701 -24.413  0.00  0.00    -0.270 OA
ATOM     12  N   UNL     1      32.905  -6.003 -23.619  0.00  0.00    -0.240 N 
ATOM     13  C   UNL     1      33.935  -6.950 -23.862  0.00  0.00    +0.250 C 
ATOM     14  N   UNL     1      33.575  -4.761 -25.571  0.00  0.00    -0.229 NA
ATOM     15  C   UNL     1      32.736  -4.877 -24.518  0.00  0.00    +0.138 C 
ATOM     16  C   UNL     1      31.716  -3.983 -24.236  0.00  0.00    +0.035 C 
ATOM     17  C   UNL     1      31.546  -2.899 -25.090  0.00  0.00    +0.004 C 
ATOM     18  C   UNL     1      33.380  -3.695 -26.379  0.00  0.00    +0.100 C 
ATOM     19  C   UNL     1      32.390  -2.745 -26.185  0.00  0.00    +0.021 C 
BRANCH  12  20
ATOM     20  C   UNL     1      32.007  -6.156 -22.463  0.00  0.00    +0.112 C 
BRANCH  20  21
ATOM     21  C   UNL     1      32.589  -5.533 -21.201  0.00  0.00    +0.131 C 
BRANCH  21  23
ATOM     22  O   UNL     1      30.457  -4.412 -20.823  0.00  0.00    -0.250 OA
ATOM     23  C   UNL     1      31.586  -4.689 -20.443  0.00  0.00    +0.316 C 
BRANCH  23  24
ATOM     24  O   UNL     1      32.092  -4.269 -19.254  0.00  0.00    -0.480 OA
ATOM     25  H   UNL     1      32.902  -4.619 -18.940  0.00  0.00    +0.295 HD
ENDBRANCH  23  24
ENDBRANCH  21  23
ENDBRANCH  20  21
ENDBRANCH  12  20
ENDBRANCH   6  13
BRANCH   4  26
ATOM     26  C   UNL     1      33.890 -14.308 -23.738  0.00  0.00    +0.164 C 
BRANCH  26  27
ATOM     27  N   UNL     1      35.153 -14.905 -23.321  0.00  0.00    -0.326 N 
ATOM     28  H   UNL     1      35.991 -14.504 -23.648  0.00  0.00    +0.147 HD
BRANCH  27  29
ATOM     29  C   UNL     1      35.232 -16.004 -22.493  0.00  0.00    +0.045 C 
ATOM     30  C   UNL     1      35.181 -17.289 -23.033  0.00  0.00    +0.014 C 
ATOM     31  C   UNL     1      35.360 -15.830 -21.115  0.00  0.00    +0.014 C 
ATOM     32  C   UNL     1      35.259 -18.400 -22.195  0.00  0.00    +0.004 C 
ATOM     33  C   UNL     1      35.439 -16.942 -20.277  0.00  0.00    +0.004 C 
ATOM     34  C   UNL     1      35.388 -18.228 -20.816  0.00  0.00    +0.031 C 
BRANCH  34  37
ATOM     35  N   UNL     1      34.336 -20.131 -19.618  0.00  0.00    -0.343 N 
ATOM     36  N   UNL     1      36.633 -19.748 -19.435  0.00  0.00    -0.285 NA
ATOM     37  C   UNL     1      35.469 -19.387 -19.942  0.00  0.00    +0.117 C 
ATOM     38  H   UNL     1      34.413 -20.913 -19.024  0.00  0.00    +0.144 HD
ATOM     39  H   UNL     1      33.458 -19.877 -19.984  0.00  0.00    +0.144 HD
ATOM     40  H   UNL     1      36.691 -20.532 -18.842  0.00  0.00    +0.188 HD
ENDBRANCH  34  37
ENDBRANCH  27  29
ENDBRANCH  26  27
ENDBRANCH   4  26
TORSDOF 9
ENDMDL
MODEL 8
REMARK VINA RESULT:      -9.6      3.644      6.330
REMARK  Name = 216210
REMARK  9 active torsions:
REMARK  status: ('A' for Active; 'I' for Inactive)
REMARK    1  A    between atoms: C_4  and  C_26
REMARK    2  A    between atoms: C_6  and  C_13
REMARK    3  A    between atoms: N_12  and  C_20
REMARK    4  A    between atoms: C_20  and  C_21
REMARK    5  A    between atoms: C_21  and  C_23
REMARK    6  A    between atoms: C_23  and  O_24
REMARK    7  A    between atoms: C_26  and  N_27
REMARK    8  A    between atoms: N_27  and  C_29
REMARK    9  A    between atoms: C_34  and  C_37
REMARK                            x       y       z     vdW  Elec       q    Type
REMARK                         _______ _______ _______ _____ _____    ______ ____
ROOT
ATOM      1  N   UNL     1      35.132 -20.833 -18.703  0.00  0.00    -0.261 N 
ATOM      2  N   UNL     1      37.049 -19.742 -18.975  0.00  0.00    -0.388 NA
ATOM      3  C   UNL     1      35.001 -19.907 -19.713  0.00  0.00    +0.079 C 
ATOM      4  C   UNL     1      36.370 -20.706 -18.283  0.00  0.00    +0.184 C 
ATOM      5  C   UNL     1      36.191 -19.210 -19.902  0.00  0.00    +0.146 C 
ATOM      6  C   UNL     1      35.234 -17.916 -21.656  0.00  0.00    +0.039 C 
ATOM      7  C   UNL     1      36.349 -18.209 -20.862  0.00  0.00    +0.034 C 
ATOM      8  C   UNL     1      33.891 -19.599 -20.519  0.00  0.00    -0.004 C 
ATOM      9  C   UNL     1      34.027 -18.599 -21.489  0.00  0.00    +0.058 C 
ATOM     10  C   UNL     1      34.110 -21.736 -18.230  0.00  0.00    +0.120 C 
ENDROOT
BRANCH   6  13
ATOM     11  O   UNL     1      35.655 -17.268 -23.808  0.00  0.00    -0.270 OA
ATOM     12  N   UNL     1      35.070 -15.534 -22.314  0.00  0.00    -0.240 N 
ATOM     13  C   UNL     1      35.337 -16.882 -22.674  0.00  0.00    +0.250 C 
ATOM     14  N   UNL     1      34.285 -15.085 -24.546  0.00  0.00    -0.229 NA
ATOM     15  C   UNL     1      34.524 -14.620 -23.300  0.00  0.00    +0.138 C 
ATOM     16  C   UNL     1      34.282 -13.317 -22.897  0.00  0.00    +0.035 C 
ATOM     17  C   UNL     1      33.760 -12.432 -23.834  0.00  0.00    +0.004 C 
ATOM     18  C   UNL     1      33.778 -14.196 -25.431  0.00  0.00    +0.100 C 
ATOM     19  C   UNL     1      33.500 -12.873 -25.127  0.00  0.00    +0.021 C 
BRANCH  12  20
ATOM     20  C   UNL     1      35.341 -15.058 -20.948  0.00  0.00    +0.112 C 
BRANCH  20  21
ATOM     21  C   UNL     1      34.170 -15.317 -20.009  0.00  0.00    +0.131 C 
BRANCH  21  23
ATOM     22  O   UNL     1      33.601 -12.950 -20.143  0.00  0.00    -0.250 OA
ATOM     23  C   UNL     1      33.359 -14.072 -19.720  0.00  0.00    +0.316 C 
BRANCH  23  24
ATOM     24  O   UNL     1      32.295 -14.349 -18.921  0.00  0.00    -0.480 OA
ATOM     25  H   UNL     1      31.423 -14.261 -19.254  0.00  0.00    +0.295 HD
ENDBRANCH  23  24
ENDBRANCH  21  23
ENDBRANCH  20  21
ENDBRANCH  12  20
ENDBRANCH   6  13
BRANCH   4  26
ATOM     26  C   UNL     1      36.940 -21.524 -17.192  0.00  0.00    +0.164 C 
BRANCH  26  27
ATOM     27  N   UNL     1      36.439 -21.215 -15.859  0.00  0.00    -0.326 N 
ATOM     28  H   UNL     1      36.027 -20.333 -15.706  0.00  0.00    +0.147 HD
BRANCH  27  29
ATOM     29  C   UNL     1      36.516 -22.094 -14.801  0.00  0.00    +0.045 C 
ATOM     30  C   UNL     1      35.350 -22.544 -14.181  0.00  0.00    +0.014 C 
ATOM     31  C   UNL     1      37.761 -22.532 -14.347  0.00  0.00    +0.014 C 
ATOM     32  C   UNL     1      35.429 -23.431 -13.108  0.00  0.00    +0.004 C 
ATOM     33  C   UNL     1      37.839 -23.420 -13.275  0.00  0.00    +0.004 C 
ATOM     34  C   UNL     1      36.673 -23.870 -12.655  0.00  0.00    +0.031 C 
BRANCH  34  37
ATOM     35  N   UNL     1      37.581 -25.917 -11.584  0.00  0.00    -0.343 N 
ATOM     36  N   UNL     1      36.034 -24.582 -10.451  0.00  0.00    -0.285 NA
ATOM     37  C   UNL     1      36.755 -24.796 -11.536  0.00  0.00    +0.117 C 
ATOM     38  H   UNL     1      37.622 -26.532 -10.815  0.00  0.00    +0.144 HD
ATOM     39  H   UNL     1      38.125 -26.096 -12.385  0.00  0.00    +0.144 HD
ATOM     40  H   UNL     1      36.088 -25.208  -9.693  0.00  0.00    +0.188 HD
ENDBRANCH  34  37
ENDBRANCH  27  29
ENDBRANCH  26  27
ENDBRANCH   4  26
TORSDOF 9
ENDMDL
MODEL 9
REMARK VINA RESULT:      -9.3      2.796     11.200
REMARK  Name = 216210
REMARK  9 active torsions:
REMARK  status: ('A' for Active; 'I' for Inactive)
REMARK    1  A    between atoms: C_4  and  C_26
REMARK    2  A    between atoms: C_6  and  C_13
REMARK    3  A    between atoms: N_12  and  C_20
REMARK    4  A    between atoms: C_20  and  C_21
REMARK    5  A    between atoms: C_21  and  C_23
REMARK    6  A    between atoms: C_23  and  O_24
REMARK    7  A    between atoms: C_26  and  N_27
REMARK    8  A    between atoms: N_27  and  C_29
REMARK    9  A    between atoms: C_34  and  C_37
REMARK                            x       y       z     vdW  Elec       q    Type
REMARK                         _______ _______ _______ _____ _____    ______ ____
ROOT
ATOM      1  N   UNL     1      32.445 -10.315 -22.158  0.00  0.00    -0.261 N 
ATOM      2  N   UNL     1      34.221 -10.953 -23.330  0.00  0.00    -0.388 NA
ATOM      3  C   UNL     1      32.931 -11.501 -21.657  0.00  0.00    +0.079 C 
ATOM      4  C   UNL     1      33.241 -10.017 -23.160  0.00  0.00    +0.184 C 
ATOM      5  C   UNL     1      34.046 -11.922 -22.376  0.00  0.00    +0.146 C 
ATOM      6  C   UNL     1      34.276 -13.862 -21.017  0.00  0.00    +0.039 C 
ATOM      7  C   UNL     1      34.746 -13.095 -22.089  0.00  0.00    +0.034 C 
ATOM      8  C   UNL     1      32.472 -12.285 -20.584  0.00  0.00    -0.004 C 
ATOM      9  C   UNL     1      33.159 -13.466 -20.277  0.00  0.00    +0.058 C 
ATOM     10  C   UNL     1      31.304  -9.580 -21.667  0.00  0.00    +0.120 C 
ENDROOT
BRANCH   6  13
ATOM     11  O   UNL     1      35.285 -15.220 -19.478  0.00  0.00    -0.270 OA
ATOM     12  N   UNL     1      35.213 -16.055 -21.687  0.00  0.00    -0.240 N 
ATOM     13  C   UNL     1      34.964 -15.096 -20.669  0.00  0.00    +0.250 C 
ATOM     14  N   UNL     1      35.074 -17.828 -20.063  0.00  0.00    -0.229 NA
ATOM     15  C   UNL     1      35.265 -17.465 -21.350  0.00  0.00    +0.138 C 
ATOM     16  C   UNL     1      35.510 -18.359 -22.380  0.00  0.00    +0.035 C 
ATOM     17  C   UNL     1      35.563 -19.713 -22.068  0.00  0.00    +0.004 C 
ATOM     18  C   UNL     1      35.133 -19.152 -19.796  0.00  0.00    +0.100 C 
ATOM     19  C   UNL     1      35.372 -20.125 -20.754  0.00  0.00    +0.021 C 
BRANCH  12  20
ATOM     20  C   UNL     1      35.417 -15.629 -23.081  0.00  0.00    +0.112 C 
BRANCH  20  21
ATOM     21  C   UNL     1      34.485 -16.354 -24.043  0.00  0.00    +0.131 C 
BRANCH  21  23
ATOM     22  O   UNL     1      34.259 -14.297 -25.331  0.00  0.00    -0.250 OA
ATOM     23  C   UNL     1      33.893 -15.439 -25.094  0.00  0.00    +0.316 C 
BRANCH  23  24
ATOM     24  O   UNL     1      32.886 -16.051 -25.771  0.00  0.00    -0.480 OA
ATOM     25  H   UNL     1      32.193 -16.471 -25.301  0.00  0.00    +0.295 HD
ENDBRANCH  23  24
ENDBRANCH  21  23
ENDBRANCH  20  21
ENDBRANCH  12  20
ENDBRANCH   6  13
BRANCH   4  26
ATOM     26  C   UNL     1      33.076  -8.803 -23.987  0.00  0.00    +0.164 C 
BRANCH  26  27
ATOM     27  N   UNL     1      33.791  -7.626 -23.509  0.00  0.00    -0.326 N 
ATOM     28  H   UNL     1      34.775  -7.629 -23.546  0.00  0.00    +0.147 HD
BRANCH  27  29
ATOM     29  C   UNL     1      33.157  -6.510 -23.007  0.00  0.00    +0.045 C 
ATOM     30  C   UNL     1      32.657  -5.541 -23.877  0.00  0.00    +0.014 C 
ATOM     31  C   UNL     1      33.019  -6.348 -21.628  0.00  0.00    +0.014 C 
ATOM     32  C   UNL     1      32.018  -4.411 -23.368  0.00  0.00    +0.004 C 
ATOM     33  C   UNL     1      32.380  -5.218 -21.120  0.00  0.00    +0.004 C 
ATOM     34  C   UNL     1      31.879  -4.249 -21.990  0.00  0.00    +0.031 C 
BRANCH  34  37
ATOM     35  N   UNL     1      31.643  -1.786 -21.787  0.00  0.00    -0.343 N 
ATOM     36  N   UNL     1      30.182  -3.208 -20.646  0.00  0.00    -0.285 NA
ATOM     37  C   UNL     1      31.213  -3.070 -21.459  0.00  0.00    +0.117 C 
ATOM     38  H   UNL     1      31.177  -1.001 -21.416  0.00  0.00    +0.144 HD
ATOM     39  H   UNL     1      32.412  -1.662 -22.389  0.00  0.00    +0.144 HD
ATOM     40  H   UNL     1      29.729  -2.411 -20.285  0.00  0.00    +0.188 HD
ENDBRANCH  34  37
ENDBRANCH  27  29
ENDBRANCH  26  27
ENDBRANCH   4  26
TORSDOF 9
ENDMDL
