MODEL 1
REMARK VINA RESULT:     -11.0      0.000      0.000
REMARK  Name = 42608447
REMARK  9 active torsions:
REMARK  status: ('A' for Active; 'I' for Inactive)
REMARK    1  A    between atoms: C_3  and  C_8
REMARK    2  A    between atoms: C_7  and  C_23
REMARK    3  A    between atoms: C_8  and  N_10
REMARK    4  A    between atoms: C_11  and  C_13
REMARK    5  A    between atoms: C_16  and  S_19
REMARK    6  A    between atoms: C_23  and  C_24
REMARK    7  A    between atoms: C_24  and  N_25
REMARK    8  A    between atoms: C_24  and  C_29
REMARK    9  A    between atoms: C_29  and  C_31
REMARK                            x       y       z     vdW  Elec       q    Type
REMARK                         _______ _______ _______ _____ _____    ______ ____
ROOT
ATOM      1  O   UNL     1      34.639 -16.458 -24.531  0.00  0.00    -0.275 OA
ATOM      2  N   UNL     1      34.625 -15.115 -22.647  0.00  0.00    -0.280 N 
ATOM      3  C   UNL     1      33.640 -14.149 -23.138  0.00  0.00    +0.095 C 
ATOM      4  C   UNL     1      33.210 -13.394 -21.878  0.00  0.00    +0.023 C 
ATOM      5  C   UNL     1      34.461 -13.419 -21.007  0.00  0.00    +0.023 C 
ATOM      6  C   UNL     1      35.041 -14.799 -21.283  0.00  0.00    +0.093 C 
ATOM      7  C   UNL     1      35.013 -16.224 -23.380  0.00  0.00    +0.224 C 
ENDROOT
BRANCH   3   8
ATOM      8  C   UNL     1      34.246 -13.220 -24.188  0.00  0.00    +0.109 C 
BRANCH   8  10
ATOM      9  O   UNL     1      33.903 -10.792 -25.682  0.00  0.00    -0.270 OA
ATOM     10  N   UNL     1      34.359 -11.883 -23.686  0.00  0.00    -0.299 N 
ATOM     11  C   UNL     1      34.176 -10.757 -24.485  0.00  0.00    +0.246 C 
ATOM     12  H   UNL     1      34.575 -11.755 -22.735  0.00  0.00    +0.150 HD
BRANCH  11  13
ATOM     13  C   UNL     1      34.353  -9.441 -23.820  0.00  0.00    +0.055 C 
ATOM     14  C   UNL     1      33.501  -9.063 -22.782  0.00  0.00    +0.023 C 
ATOM     15  C   UNL     1      35.373  -8.583 -24.232  0.00  0.00    +0.005 C 
ATOM     16  C   UNL     1      33.667  -7.827 -22.158  0.00  0.00    +0.106 C 
ATOM     17  C   UNL     1      35.540  -7.347 -23.607  0.00  0.00    +0.001 C 
ATOM     18  C   UNL     1      34.687  -6.969 -22.570  0.00  0.00    +0.018 C 
BRANCH  16  19
ATOM     19  S   UNL     1      32.600  -7.353 -20.859  0.00  0.00    +0.010 S 
ATOM     20  O   UNL     1      33.394  -6.768 -19.787  0.00  0.00    -0.169 OA
ATOM     21  O   UNL     1      31.498  -6.598 -21.438  0.00  0.00    -0.169 OA
ATOM     22  C   UNL     1      31.947  -8.887 -20.241  0.00  0.00    +0.182 C 
ENDBRANCH  16  19
ENDBRANCH  11  13
ENDBRANCH   8  10
ENDBRANCH   3   8
BRANCH   7  23
ATOM     23  C   UNL     1      35.956 -17.169 -22.680  0.00  0.00    +0.064 C 
BRANCH  23  24
ATOM     24  C   UNL     1      35.336 -18.555 -22.496  0.00  0.00    -0.052 C 
BRANCH  24  25
ATOM     25  N   UNL     1      34.602 -18.869 -23.729  0.00  0.00    +0.382 N 
ATOM     26  H   UNL     1      34.202 -18.014 -24.114  0.00  0.00    -0.089 HD
ATOM     27  H   UNL     1      33.855 -19.531 -23.521  0.00  0.00    -0.089 HD
ATOM     28  H   UNL     1      35.241 -19.282 -24.410  0.00  0.00    -0.089 HD
ENDBRANCH  24  25
BRANCH  24  29
ATOM     29  C   UNL     1      34.352 -18.635 -21.308  0.00  0.00    +0.005 C 
BRANCH  29  31
ATOM     30 CL   UNL     1      33.020 -21.995 -17.550  0.00  0.00    -0.082 Cl
ATOM     31  C   UNL     1      34.776 -19.570 -20.202  0.00  0.00    -0.023 C 
ATOM     32  C   UNL     1      33.814 -20.269 -19.473  0.00  0.00    +0.007 C 
ATOM     33  C   UNL     1      36.129 -19.733 -19.908  0.00  0.00    -0.004 C 
ATOM     34  C   UNL     1      34.206 -21.132 -18.449  0.00  0.00    +0.057 C 
ATOM     35  C   UNL     1      36.521 -20.597 -18.884  0.00  0.00    +0.001 C 
ATOM     36  C   UNL     1      35.559 -21.296 -18.155  0.00  0.00    +0.011 C 
ENDBRANCH  29  31
ENDBRANCH  24  29
ENDBRANCH  23  24
ENDBRANCH   7  23
TORSDOF 9
ENDMDL
MODEL 2
REMARK VINA RESULT:     -11.0      2.564      3.452
REMARK  Name = 42608447
REMARK  9 active torsions:
REMARK  status: ('A' for Active; 'I' for Inactive)
REMARK    1  A    between atoms: C_3  and  C_8
REMARK    2  A    between atoms: C_7  and  C_23
REMARK    3  A    between atoms: C_8  and  N_10
REMARK    4  A    between atoms: C_11  and  C_13
REMARK    5  A    between atoms: C_16  and  S_19
REMARK    6  A    between atoms: C_23  and  C_24
REMARK    7  A    between atoms: C_24  and  N_25
REMARK    8  A    between atoms: C_24  and  C_29
REMARK    9  A    between atoms: C_29  and  C_31
REMARK                            x       y       z     vdW  Elec       q    Type
REMARK                         _______ _______ _______ _____ _____    ______ ____
ROOT
ATOM      1  O   UNL     1      35.163 -14.507 -21.122  0.00  0.00    -0.275 OA
ATOM      2  N   UNL     1      34.635 -14.791 -23.356  0.00  0.00    -0.280 N 
ATOM      3  C   UNL     1      34.039 -13.468 -23.556  0.00  0.00    +0.095 C 
ATOM      4  C   UNL     1      33.976 -13.324 -25.079  0.00  0.00    +0.023 C 
ATOM      5  C   UNL     1      33.784 -14.757 -25.562  0.00  0.00    +0.023 C 
ATOM      6  C   UNL     1      34.645 -15.560 -24.598  0.00  0.00    +0.093 C 
ATOM      7  C   UNL     1      35.191 -15.185 -22.150  0.00  0.00    +0.224 C 
ENDROOT
BRANCH   3   8
ATOM      8  C   UNL     1      32.658 -13.376 -22.911  0.00  0.00    +0.109 C 
BRANCH   8  10
ATOM      9  O   UNL     1      31.902 -13.333 -20.142  0.00  0.00    -0.270 OA
ATOM     10  N   UNL     1      32.560 -12.222 -22.069  0.00  0.00    -0.299 N 
ATOM     11  C   UNL     1      32.185 -12.292 -20.730  0.00  0.00    +0.246 C 
ATOM     12  H   UNL     1      32.769 -11.340 -22.454  0.00  0.00    +0.150 HD
BRANCH  11  13
ATOM     13  C   UNL     1      32.107 -11.001 -19.999  0.00  0.00    +0.055 C 
ATOM     14  C   UNL     1      32.297  -9.800 -20.681  0.00  0.00    +0.023 C 
ATOM     15  C   UNL     1      31.842 -10.990 -18.629  0.00  0.00    +0.005 C 
ATOM     16  C   UNL     1      32.224  -8.588 -19.995  0.00  0.00    +0.106 C 
ATOM     17  C   UNL     1      31.769  -9.778 -17.943  0.00  0.00    +0.001 C 
ATOM     18  C   UNL     1      31.959  -8.577 -18.625  0.00  0.00    +0.018 C 
BRANCH  16  19
ATOM     19  S   UNL     1      32.462  -7.084 -20.850  0.00  0.00    +0.010 S 
ATOM     20  O   UNL     1      33.858  -6.988 -21.255  0.00  0.00    -0.169 OA
ATOM     21  O   UNL     1      31.410  -6.966 -21.850  0.00  0.00    -0.169 OA
ATOM     22  C   UNL     1      32.192  -5.828 -19.621  0.00  0.00    +0.182 C 
ENDBRANCH  16  19
ENDBRANCH  11  13
ENDBRANCH   8  10
ENDBRANCH   3   8
BRANCH   7  23
ATOM     23  C   UNL     1      35.855 -16.539 -22.151  0.00  0.00    +0.064 C 
BRANCH  23  24
ATOM     24  C   UNL     1      35.274 -17.455 -21.073  0.00  0.00    -0.052 C 
BRANCH  24  25
ATOM     25  N   UNL     1      35.680 -16.907 -19.772  0.00  0.00    +0.382 N 
ATOM     26  H   UNL     1      35.459 -15.912 -19.738  0.00  0.00    -0.089 HD
ATOM     27  H   UNL     1      36.684 -17.038 -19.647  0.00  0.00    -0.089 HD
ATOM     28  H   UNL     1      35.180 -17.393 -19.027  0.00  0.00    -0.089 HD
ENDBRANCH  24  25
BRANCH  24  29
ATOM     29  C   UNL     1      35.778 -18.912 -21.168  0.00  0.00    +0.005 C 
BRANCH  29  31
ATOM     30 CL   UNL     1      37.157 -21.577 -16.904  0.00  0.00    -0.082 Cl
ATOM     31  C   UNL     1      35.377 -19.793 -20.011  0.00  0.00    -0.023 C 
ATOM     32  C   UNL     1      36.340 -20.226 -19.099  0.00  0.00    +0.007 C 
ATOM     33  C   UNL     1      34.046 -20.176 -19.854  0.00  0.00    -0.004 C 
ATOM     34  C   UNL     1      35.970 -21.042 -18.029  0.00  0.00    +0.057 C 
ATOM     35  C   UNL     1      33.676 -20.992 -18.784  0.00  0.00    +0.001 C 
ATOM     36  C   UNL     1      34.639 -21.425 -17.872  0.00  0.00    +0.011 C 
ENDBRANCH  29  31
ENDBRANCH  24  29
ENDBRANCH  23  24
ENDBRANCH   7  23
TORSDOF 9
ENDMDL
MODEL 3
REMARK VINA RESULT:     -11.0      8.687     13.745
REMARK  Name = 42608447
REMARK  9 active torsions:
REMARK  status: ('A' for Active; 'I' for Inactive)
REMARK    1  A    between atoms: C_3  and  C_8
REMARK    2  A    between atoms: C_7  and  C_23
REMARK    3  A    between atoms: C_8  and  N_10
REMARK    4  A    between atoms: C_11  and  C_13
REMARK    5  A    between atoms: C_16  and  S_19
REMARK    6  A    between atoms: C_23  and  C_24
REMARK    7  A    between atoms: C_24  and  N_25
REMARK    8  A    between atoms: C_24  and  C_29
REMARK    9  A    between atoms: C_29  and  C_31
REMARK                            x       y       z     vdW  Elec       q    Type
REMARK                         _______ _______ _______ _____ _____    ______ ____
ROOT
ATOM      1  O   UNL     1      34.362 -22.537 -15.942  0.00  0.00    -0.275 OA
ATOM      2  N   UNL     1      32.057 -22.583 -15.741  0.00  0.00    -0.280 N 
ATOM      3  C   UNL     1      32.020 -22.693 -14.280  0.00  0.00    +0.095 C 
ATOM      4  C   UNL     1      30.570 -22.349 -13.927  0.00  0.00    +0.023 C 
ATOM      5  C   UNL     1      29.785 -22.840 -15.137  0.00  0.00    +0.023 C 
ATOM      6  C   UNL     1      30.710 -22.511 -16.300  0.00  0.00    +0.093 C 
ATOM      7  C   UNL     1      33.241 -22.471 -16.451  0.00  0.00    +0.224 C 
ENDROOT
BRANCH   3   8
ATOM      8  C   UNL     1      32.409 -24.095 -13.817  0.00  0.00    +0.109 C 
BRANCH   8  10
ATOM      9  O   UNL     1      33.686 -22.684 -11.667  0.00  0.00    -0.270 OA
ATOM     10  N   UNL     1      33.795 -24.151 -13.460  0.00  0.00    -0.299 N 
ATOM     11  C   UNL     1      34.332 -23.431 -12.396  0.00  0.00    +0.246 C 
ATOM     12  H   UNL     1      34.393 -24.726 -13.990  0.00  0.00    +0.150 HD
BRANCH  11  13
ATOM     13  C   UNL     1      35.793 -23.578 -12.172  0.00  0.00    +0.055 C 
ATOM     14  C   UNL     1      36.627 -23.955 -13.225  0.00  0.00    +0.023 C 
ATOM     15  C   UNL     1      36.333 -23.340 -10.908  0.00  0.00    +0.005 C 
ATOM     16  C   UNL     1      37.998 -24.094 -13.014  0.00  0.00    +0.106 C 
ATOM     17  C   UNL     1      37.704 -23.478 -10.697  0.00  0.00    +0.001 C 
ATOM     18  C   UNL     1      38.538 -23.855 -11.750  0.00  0.00    +0.018 C 
BRANCH  16  19
ATOM     19  S   UNL     1      39.041 -24.566 -14.333  0.00  0.00    +0.010 S 
ATOM     20  O   UNL     1      38.477 -25.742 -14.982  0.00  0.00    -0.169 OA
ATOM     21  O   UNL     1      39.335 -23.376 -15.120  0.00  0.00    -0.169 OA
ATOM     22  C   UNL     1      40.548 -25.084 -13.543  0.00  0.00    +0.182 C 
ENDBRANCH  16  19
ENDBRANCH  11  13
ENDBRANCH   8  10
ENDBRANCH   3   8
BRANCH   7  23
ATOM     23  C   UNL     1      33.091 -22.261 -17.936  0.00  0.00    +0.064 C 
BRANCH  23  24
ATOM     24  C   UNL     1      33.810 -20.995 -18.405  0.00  0.00    -0.052 C 
BRANCH  24  25
ATOM     25  N   UNL     1      32.839 -20.203 -19.172  0.00  0.00    +0.382 N 
ATOM     26  H   UNL     1      31.899 -20.555 -18.996  0.00  0.00    -0.089 HD
ATOM     27  H   UNL     1      33.051 -20.278 -20.167  0.00  0.00    -0.089 HD
ATOM     28  H   UNL     1      32.896 -19.225 -18.886  0.00  0.00    -0.089 HD
ENDBRANCH  24  25
BRANCH  24  29
ATOM     29  C   UNL     1      35.030 -21.280 -19.307  0.00  0.00    +0.005 C 
BRANCH  29  31
ATOM     30 CL   UNL     1      34.504 -17.936 -23.273  0.00  0.00    -0.082 Cl
ATOM     31  C   UNL     1      35.548 -20.081 -20.062  0.00  0.00    -0.023 C 
ATOM     32  C   UNL     1      34.866 -19.616 -21.187  0.00  0.00    +0.007 C 
ATOM     33  C   UNL     1      36.710 -19.437 -19.637  0.00  0.00    -0.004 C 
ATOM     34  C   UNL     1      35.345 -18.508 -21.885  0.00  0.00    +0.057 C 
ATOM     35  C   UNL     1      37.189 -18.329 -20.335  0.00  0.00    +0.001 C 
ATOM     36  C   UNL     1      36.507 -17.865 -21.460  0.00  0.00    +0.011 C 
ENDBRANCH  29  31
ENDBRANCH  24  29
ENDBRANCH  23  24
ENDBRANCH   7  23
TORSDOF 9
ENDMDL
MODEL 4
REMARK VINA RESULT:     -10.8      3.870     10.201
REMARK  Name = 42608447
REMARK  9 active torsions:
REMARK  status: ('A' for Active; 'I' for Inactive)
REMARK    1  A    between atoms: C_3  and  C_8
REMARK    2  A    between atoms: C_7  and  C_23
REMARK    3  A    between atoms: C_8  and  N_10
REMARK    4  A    between atoms: C_11  and  C_13
REMARK    5  A    between atoms: C_16  and  S_19
REMARK    6  A    between atoms: C_23  and  C_24
REMARK    7  A    between atoms: C_24  and  N_25
REMARK    8  A    between atoms: C_24  and  C_29
REMARK    9  A    between atoms: C_29  and  C_31
REMARK                            x       y       z     vdW  Elec       q    Type
REMARK                         _______ _______ _______ _____ _____    ______ ____
ROOT
ATOM      1  O   UNL     1      34.389  -9.573 -24.656  0.00  0.00    -0.275 OA
ATOM      2  N   UNL     1      33.314 -10.584 -22.874  0.00  0.00    -0.280 N 
ATOM      3  C   UNL     1      34.154 -11.783 -22.830  0.00  0.00    +0.095 C 
ATOM      4  C   UNL     1      33.838 -12.399 -21.465  0.00  0.00    +0.023 C 
ATOM      5  C   UNL     1      32.386 -12.003 -21.226  0.00  0.00    +0.023 C 
ATOM      6  C   UNL     1      32.314 -10.600 -21.809  0.00  0.00    +0.093 C 
ATOM      7  C   UNL     1      33.534  -9.550 -23.769  0.00  0.00    +0.224 C 
ENDROOT
BRANCH   3   8
ATOM      8  C   UNL     1      33.830 -12.734 -23.980  0.00  0.00    +0.109 C 
BRANCH   8  10
ATOM      9  O   UNL     1      34.313 -14.922 -25.775  0.00  0.00    -0.270 OA
ATOM     10  N   UNL     1      34.108 -14.091 -23.618  0.00  0.00    -0.299 N 
ATOM     11  C   UNL     1      34.332 -15.094 -24.559  0.00  0.00    +0.246 C 
ATOM     12  H   UNL     1      34.145 -14.325 -22.663  0.00  0.00    +0.150 HD
BRANCH  11  13
ATOM     13  C   UNL     1      34.583 -16.456 -24.023  0.00  0.00    +0.055 C 
ATOM     14  C   UNL     1      35.239 -16.616 -22.802  0.00  0.00    +0.023 C 
ATOM     15  C   UNL     1      34.162 -17.577 -24.739  0.00  0.00    +0.005 C 
ATOM     16  C   UNL     1      35.475 -17.895 -22.298  0.00  0.00    +0.106 C 
ATOM     17  C   UNL     1      34.398 -18.856 -24.236  0.00  0.00    +0.001 C 
ATOM     18  C   UNL     1      35.054 -19.015 -23.015  0.00  0.00    +0.018 C 
BRANCH  16  19
ATOM     19  S   UNL     1      36.296 -18.095 -20.770  0.00  0.00    +0.010 S 
ATOM     20  O   UNL     1      37.722 -18.258 -21.019  0.00  0.00    -0.169 OA
ATOM     21  O   UNL     1      35.834 -17.045 -19.873  0.00  0.00    -0.169 OA
ATOM     22  C   UNL     1      35.698 -19.649 -20.146  0.00  0.00    +0.182 C 
ENDBRANCH  16  19
ENDBRANCH  11  13
ENDBRANCH   8  10
ENDBRANCH   3   8
BRANCH   7  23
ATOM     23  C   UNL     1      32.640  -8.347 -23.606  0.00  0.00    +0.064 C 
BRANCH  23  24
ATOM     24  C   UNL     1      33.445  -7.049 -23.527  0.00  0.00    -0.052 C 
BRANCH  24  25
ATOM     25  N   UNL     1      34.625  -7.320 -22.695  0.00  0.00    +0.382 N 
ATOM     26  H   UNL     1      35.305  -7.855 -23.233  0.00  0.00    -0.089 HD
ATOM     27  H   UNL     1      34.345  -7.854 -21.872  0.00  0.00    -0.089 HD
ATOM     28  H   UNL     1      35.043  -6.436 -22.400  0.00  0.00    -0.089 HD
ENDBRANCH  24  25
BRANCH  24  29
ATOM     29  C   UNL     1      32.661  -5.877 -22.898  0.00  0.00    +0.005 C 
BRANCH  29  31
ATOM     30 CL   UNL     1      32.290  -8.796 -18.593  0.00  0.00    -0.082 Cl
ATOM     31  C   UNL     1      32.513  -5.953 -21.398  0.00  0.00    -0.023 C 
ATOM     32  C   UNL     1      32.475  -7.194 -20.763  0.00  0.00    +0.007 C 
ATOM     33  C   UNL     1      32.413  -4.782 -20.647  0.00  0.00    -0.004 C 
ATOM     34  C   UNL     1      32.337  -7.265 -19.377  0.00  0.00    +0.057 C 
ATOM     35  C   UNL     1      32.275  -4.853 -19.261  0.00  0.00    +0.001 C 
ATOM     36  C   UNL     1      32.237  -6.095 -18.625  0.00  0.00    +0.011 C 
ENDBRANCH  29  31
ENDBRANCH  24  29
ENDBRANCH  23  24
ENDBRANCH   7  23
TORSDOF 9
ENDMDL
MODEL 5
REMARK VINA RESULT:     -10.7      2.056      3.007
REMARK  Name = 42608447
REMARK  9 active torsions:
REMARK  status: ('A' for Active; 'I' for Inactive)
REMARK    1  A    between atoms: C_3  and  C_8
REMARK    2  A    between atoms: C_7  and  C_23
REMARK    3  A    between atoms: C_8  and  N_10
REMARK    4  A    between atoms: C_11  and  C_13
REMARK    5  A    between atoms: C_16  and  S_19
REMARK    6  A    between atoms: C_23  and  C_24
REMARK    7  A    between atoms: C_24  and  N_25
REMARK    8  A    between atoms: C_24  and  C_29
REMARK    9  A    between atoms: C_29  and  C_31
REMARK                            x       y       z     vdW  Elec       q    Type
REMARK                         _______ _______ _______ _____ _____    ______ ____
ROOT
ATOM      1  O   UNL     1      35.663 -16.238 -19.853  0.00  0.00    -0.275 OA
ATOM      2  N   UNL     1      35.119 -16.564 -22.078  0.00  0.00    -0.280 N 
ATOM      3  C   UNL     1      35.332 -15.179 -22.506  0.00  0.00    +0.095 C 
ATOM      4  C   UNL     1      35.393 -15.276 -24.033  0.00  0.00    +0.023 C 
ATOM      5  C   UNL     1      34.474 -16.449 -24.350  0.00  0.00    +0.023 C 
ATOM      6  C   UNL     1      34.744 -17.414 -23.205  0.00  0.00    +0.093 C 
ATOM      7  C   UNL     1      35.347 -16.987 -20.779  0.00  0.00    +0.224 C 
ENDROOT
BRANCH   3   8
ATOM      8  C   UNL     1      34.202 -14.269 -22.031  0.00  0.00    +0.109 C 
BRANCH   8  10
ATOM      9  O   UNL     1      32.299 -12.124 -21.881  0.00  0.00    -0.270 OA
ATOM     10  N   UNL     1      34.377 -12.934 -22.519  0.00  0.00    -0.299 N 
ATOM     11  C   UNL     1      33.397 -11.951 -22.403  0.00  0.00    +0.246 C 
ATOM     12  H   UNL     1      35.229 -12.701 -22.954  0.00  0.00    +0.150 HD
BRANCH  11  13
ATOM     13  C   UNL     1      33.724 -10.623 -22.982  0.00  0.00    +0.055 C 
ATOM     14  C   UNL     1      33.069  -9.480 -22.523  0.00  0.00    +0.023 C 
ATOM     15  C   UNL     1      34.687 -10.518 -23.986  0.00  0.00    +0.005 C 
ATOM     16  C   UNL     1      33.376  -8.234 -23.067  0.00  0.00    +0.106 C 
ATOM     17  C   UNL     1      34.995  -9.271 -24.530  0.00  0.00    +0.001 C 
ATOM     18  C   UNL     1      34.339  -8.128 -24.071  0.00  0.00    +0.018 C 
BRANCH  16  19
ATOM     19  S   UNL     1      32.556  -6.803 -22.492  0.00  0.00    +0.010 S 
ATOM     20  O   UNL     1      31.128  -7.082 -22.404  0.00  0.00    -0.169 OA
ATOM     21  O   UNL     1      33.271  -6.317 -21.321  0.00  0.00    -0.169 OA
ATOM     22  C   UNL     1      32.771  -5.614 -23.797  0.00  0.00    +0.182 C 
ENDBRANCH  16  19
ENDBRANCH  11  13
ENDBRANCH   8  10
ENDBRANCH   3   8
BRANCH   7  23
ATOM     23  C   UNL     1      35.179 -18.466 -20.538  0.00  0.00    +0.064 C 
BRANCH  23  24
ATOM     24  C   UNL     1      36.385 -19.061 -19.808  0.00  0.00    -0.052 C 
BRANCH  24  25
ATOM     25  N   UNL     1      37.588 -18.611 -20.520  0.00  0.00    +0.382 N 
ATOM     26  H   UNL     1      37.860 -17.690 -20.179  0.00  0.00    -0.089 HD
ATOM     27  H   UNL     1      37.394 -18.561 -21.520  0.00  0.00    -0.089 HD
ATOM     28  H   UNL     1      38.348 -19.273 -20.355  0.00  0.00    -0.089 HD
ENDBRANCH  24  25
BRANCH  24  29
ATOM     29  C   UNL     1      36.383 -20.605 -19.779  0.00  0.00    +0.005 C 
BRANCH  29  31
ATOM     30 CL   UNL     1      36.412 -22.043 -14.766  0.00  0.00    -0.082 Cl
ATOM     31  C   UNL     1      35.654 -21.211 -18.605  0.00  0.00    -0.023 C 
ATOM     32  C   UNL     1      36.295 -21.332 -17.372  0.00  0.00    +0.007 C 
ATOM     33  C   UNL     1      34.339 -21.651 -18.753  0.00  0.00    -0.004 C 
ATOM     34  C   UNL     1      35.621 -21.893 -16.287  0.00  0.00    +0.057 C 
ATOM     35  C   UNL     1      33.665 -22.212 -17.668  0.00  0.00    +0.001 C 
ATOM     36  C   UNL     1      34.306 -22.333 -16.434  0.00  0.00    +0.011 C 
ENDBRANCH  29  31
ENDBRANCH  24  29
ENDBRANCH  23  24
ENDBRANCH   7  23
TORSDOF 9
ENDMDL
MODEL 6
REMARK VINA RESULT:     -10.7      5.687     11.445
REMARK  Name = 42608447
REMARK  9 active torsions:
REMARK  status: ('A' for Active; 'I' for Inactive)
REMARK    1  A    between atoms: C_3  and  C_8
REMARK    2  A    between atoms: C_7  and  C_23
REMARK    3  A    between atoms: C_8  and  N_10
REMARK    4  A    between atoms: C_11  and  C_13
REMARK    5  A    between atoms: C_16  and  S_19
REMARK    6  A    between atoms: C_23  and  C_24
REMARK    7  A    between atoms: C_24  and  N_25
REMARK    8  A    between atoms: C_24  and  C_29
REMARK    9  A    between atoms: C_29  and  C_31
REMARK                            x       y       z     vdW  Elec       q    Type
REMARK                         _______ _______ _______ _____ _____    ______ ____
ROOT
ATOM      1  O   UNL     1      34.231 -18.613 -22.810  0.00  0.00    -0.275 OA
ATOM      2  N   UNL     1      35.712 -18.857 -21.049  0.00  0.00    -0.280 N 
ATOM      3  C   UNL     1      35.247 -20.179 -20.622  0.00  0.00    +0.095 C 
ATOM      4  C   UNL     1      36.366 -20.678 -19.704  0.00  0.00    +0.023 C 
ATOM      5  C   UNL     1      36.915 -19.397 -19.087  0.00  0.00    +0.023 C 
ATOM      6  C   UNL     1      36.838 -18.404 -20.237  0.00  0.00    +0.093 C 
ATOM      7  C   UNL     1      35.183 -18.198 -22.147  0.00  0.00    +0.224 C 
ENDROOT
BRANCH   3   8
ATOM      8  C   UNL     1      33.905 -20.091 -19.900  0.00  0.00    +0.109 C 
BRANCH   8  10
ATOM      9  O   UNL     1      33.776 -22.851 -19.120  0.00  0.00    -0.270 OA
ATOM     10  N   UNL     1      34.003 -20.609 -18.568  0.00  0.00    -0.299 N 
ATOM     11  C   UNL     1      33.931 -21.970 -18.279  0.00  0.00    +0.246 C 
ATOM     12  H   UNL     1      34.129 -19.976 -17.826  0.00  0.00    +0.150 HD
BRANCH  11  13
ATOM     13  C   UNL     1      34.024 -22.344 -16.844  0.00  0.00    +0.055 C 
ATOM     14  C   UNL     1      35.267 -22.379 -16.212  0.00  0.00    +0.023 C 
ATOM     15  C   UNL     1      32.870 -22.661 -16.129  0.00  0.00    +0.005 C 
ATOM     16  C   UNL     1      35.355 -22.731 -14.865  0.00  0.00    +0.106 C 
ATOM     17  C   UNL     1      32.957 -23.013 -14.783  0.00  0.00    +0.001 C 
ATOM     18  C   UNL     1      34.200 -23.047 -14.150  0.00  0.00    +0.018 C 
BRANCH  16  19
ATOM     19  S   UNL     1      36.911 -22.774 -14.074  0.00  0.00    +0.010 S 
ATOM     20  O   UNL     1      37.844 -21.940 -14.821  0.00  0.00    -0.169 OA
ATOM     21  O   UNL     1      36.698 -22.527 -12.654  0.00  0.00    -0.169 OA
ATOM     22  C   UNL     1      37.457 -24.456 -14.260  0.00  0.00    +0.182 C 
ENDBRANCH  16  19
ENDBRANCH  11  13
ENDBRANCH   8  10
ENDBRANCH   3   8
BRANCH   7  23
ATOM     23  C   UNL     1      35.851 -16.895 -22.507  0.00  0.00    +0.064 C 
BRANCH  23  24
ATOM     24  C   UNL     1      34.847 -15.876 -23.049  0.00  0.00    -0.052 C 
BRANCH  24  25
ATOM     25  N   UNL     1      34.867 -15.983 -24.514  0.00  0.00    +0.382 N 
ATOM     26  H   UNL     1      35.826 -15.890 -24.848  0.00  0.00    -0.089 HD
ATOM     27  H   UNL     1      34.293 -15.243 -24.917  0.00  0.00    -0.089 HD
ATOM     28  H   UNL     1      34.496 -16.892 -24.794  0.00  0.00    -0.089 HD
ENDBRANCH  24  25
BRANCH  24  29
ATOM     29  C   UNL     1      35.182 -14.418 -22.662  0.00  0.00    +0.005 C 
BRANCH  29  31
ATOM     30 CL   UNL     1      32.030 -10.389 -21.655  0.00  0.00    -0.082 Cl
ATOM     31  C   UNL     1      34.176 -13.763 -21.748  0.00  0.00    -0.023 C 
ATOM     32  C   UNL     1      33.631 -12.524 -22.085  0.00  0.00    +0.007 C 
ATOM     33  C   UNL     1      33.791 -14.396 -20.567  0.00  0.00    -0.004 C 
ATOM     34  C   UNL     1      32.701 -11.918 -21.240  0.00  0.00    +0.057 C 
ATOM     35  C   UNL     1      32.861 -13.790 -19.721  0.00  0.00    +0.001 C 
ATOM     36  C   UNL     1      32.316 -12.550 -20.059  0.00  0.00    +0.011 C 
ENDBRANCH  29  31
ENDBRANCH  24  29
ENDBRANCH  23  24
ENDBRANCH   7  23
TORSDOF 9
ENDMDL
MODEL 7
REMARK VINA RESULT:     -10.7      4.946     10.679
REMARK  Name = 42608447
REMARK  9 active torsions:
REMARK  status: ('A' for Active; 'I' for Inactive)
REMARK    1  A    between atoms: C_3  and  C_8
REMARK    2  A    between atoms: C_7  and  C_23
REMARK    3  A    between atoms: C_8  and  N_10
REMARK    4  A    between atoms: C_11  and  C_13
REMARK    5  A    between atoms: C_16  and  S_19
REMARK    6  A    between atoms: C_23  and  C_24
REMARK    7  A    between atoms: C_24  and  N_25
REMARK    8  A    between atoms: C_24  and  C_29
REMARK    9  A    between atoms: C_29  and  C_31
REMARK                            x       y       z     vdW  Elec       q    Type
REMARK                         _______ _______ _______ _____ _____    ______ ____
ROOT
ATOM      1  O   UNL     1      35.075 -15.472 -19.546  0.00  0.00    -0.275 OA
ATOM      2  N   UNL     1      35.043 -15.319 -21.854  0.00  0.00    -0.280 N 
ATOM      3  C   UNL     1      35.109 -16.759 -22.118  0.00  0.00    +0.095 C 
ATOM      4  C   UNL     1      34.710 -16.878 -23.590  0.00  0.00    +0.023 C 
ATOM      5  C   UNL     1      35.211 -15.573 -24.199  0.00  0.00    +0.023 C 
ATOM      6  C   UNL     1      34.946 -14.558 -23.097  0.00  0.00    +0.093 C 
ATOM      7  C   UNL     1      34.990 -14.796 -20.573  0.00  0.00    +0.224 C 
ENDROOT
BRANCH   3   8
ATOM      8  C   UNL     1      36.508 -17.310 -21.853  0.00  0.00    +0.109 C 
BRANCH   8  10
ATOM      9  O   UNL     1      34.912 -19.669 -21.488  0.00  0.00    -0.270 OA
ATOM     10  N   UNL     1      36.511 -18.177 -20.714  0.00  0.00    -0.299 N 
ATOM     11  C   UNL     1      35.701 -19.306 -20.619  0.00  0.00    +0.246 C 
ATOM     12  H   UNL     1      37.114 -17.966 -19.965  0.00  0.00    +0.150 HD
BRANCH  11  13
ATOM     13  C   UNL     1      35.804 -20.088 -19.360  0.00  0.00    +0.055 C 
ATOM     14  C   UNL     1      34.722 -20.851 -18.921  0.00  0.00    +0.023 C 
ATOM     15  C   UNL     1      36.984 -20.060 -18.616  0.00  0.00    +0.005 C 
ATOM     16  C   UNL     1      34.819 -21.584 -17.739  0.00  0.00    +0.106 C 
ATOM     17  C   UNL     1      37.081 -20.794 -17.434  0.00  0.00    +0.001 C 
ATOM     18  C   UNL     1      35.998 -21.556 -16.995  0.00  0.00    +0.018 C 
BRANCH  16  19
ATOM     19  S   UNL     1      33.464 -22.539 -17.190  0.00  0.00    +0.010 S 
ATOM     20  O   UNL     1      32.246 -21.750 -17.325  0.00  0.00    -0.169 OA
ATOM     21  O   UNL     1      33.551 -23.847 -17.824  0.00  0.00    -0.169 OA
ATOM     22  C   UNL     1      33.750 -22.755 -15.449  0.00  0.00    +0.182 C 
ENDBRANCH  16  19
ENDBRANCH  11  13
ENDBRANCH   8  10
ENDBRANCH   3   8
BRANCH   7  23
ATOM     23  C   UNL     1      34.819 -13.300 -20.488  0.00  0.00    +0.064 C 
BRANCH  23  24
ATOM     24  C   UNL     1      33.352 -12.908 -20.303  0.00  0.00    -0.052 C 
BRANCH  24  25
ATOM     25  N   UNL     1      32.670 -14.053 -19.687  0.00  0.00    +0.382 N 
ATOM     26  H   UNL     1      32.276 -14.647 -20.416  0.00  0.00    -0.089 HD
ATOM     27  H   UNL     1      31.922 -13.718 -19.080  0.00  0.00    -0.089 HD
ATOM     28  H   UNL     1      33.339 -14.591 -19.136  0.00  0.00    -0.089 HD
ENDBRANCH  24  25
BRANCH  24  29
ATOM     29  C   UNL     1      32.636 -12.569 -21.629  0.00  0.00    +0.005 C 
BRANCH  29  31
ATOM     30 CL   UNL     1      35.419  -9.638 -24.924  0.00  0.00    -0.082 Cl
ATOM     31  C   UNL     1      32.957 -11.204 -22.187  0.00  0.00    -0.023 C 
ATOM     32  C   UNL     1      33.926 -11.068 -23.182  0.00  0.00    +0.007 C 
ATOM     33  C   UNL     1      32.288 -10.079 -21.707  0.00  0.00    -0.004 C 
ATOM     34  C   UNL     1      34.224  -9.806 -23.697  0.00  0.00    +0.057 C 
ATOM     35  C   UNL     1      32.587  -8.817 -22.222  0.00  0.00    +0.001 C 
ATOM     36  C   UNL     1      33.555  -8.681 -23.217  0.00  0.00    +0.011 C 
ENDBRANCH  29  31
ENDBRANCH  24  29
ENDBRANCH  23  24
ENDBRANCH   7  23
TORSDOF 9
ENDMDL
MODEL 8
REMARK VINA RESULT:     -10.6      5.896     11.462
REMARK  Name = 42608447
REMARK  9 active torsions:
REMARK  status: ('A' for Active; 'I' for Inactive)
REMARK    1  A    between atoms: C_3  and  C_8
REMARK    2  A    between atoms: C_7  and  C_23
REMARK    3  A    between atoms: C_8  and  N_10
REMARK    4  A    between atoms: C_11  and  C_13
REMARK    5  A    between atoms: C_16  and  S_19
REMARK    6  A    between atoms: C_23  and  C_24
REMARK    7  A    between atoms: C_24  and  N_25
REMARK    8  A    between atoms: C_24  and  C_29
REMARK    9  A    between atoms: C_29  and  C_31
REMARK                            x       y       z     vdW  Elec       q    Type
REMARK                         _______ _______ _______ _____ _____    ______ ____
ROOT
ATOM      1  O   UNL     1      34.217 -18.606 -22.729  0.00  0.00    -0.275 OA
ATOM      2  N   UNL     1      35.696 -18.873 -20.970  0.00  0.00    -0.280 N 
ATOM      3  C   UNL     1      35.240 -20.207 -20.569  0.00  0.00    +0.095 C 
ATOM      4  C   UNL     1      36.360 -20.716 -19.659  0.00  0.00    +0.023 C 
ATOM      5  C   UNL     1      36.899 -19.443 -19.016  0.00  0.00    +0.023 C 
ATOM      6  C   UNL     1      36.818 -18.428 -20.146  0.00  0.00    +0.093 C 
ATOM      7  C   UNL     1      35.165 -18.197 -22.056  0.00  0.00    +0.224 C 
ENDROOT
BRANCH   3   8
ATOM      8  C   UNL     1      33.896 -20.142 -19.849  0.00  0.00    +0.109 C 
BRANCH   8  10
ATOM      9  O   UNL     1      33.716 -22.887 -19.025  0.00  0.00    -0.270 OA
ATOM     10  N   UNL     1      34.006 -20.643 -18.511  0.00  0.00    -0.299 N 
ATOM     11  C   UNL     1      33.906 -21.997 -18.200  0.00  0.00    +0.246 C 
ATOM     12  H   UNL     1      34.159 -20.002 -17.781  0.00  0.00    +0.150 HD
BRANCH  11  13
ATOM     13  C   UNL     1      34.017 -22.352 -16.762  0.00  0.00    +0.055 C 
ATOM     14  C   UNL     1      32.878 -22.718 -16.044  0.00  0.00    +0.023 C 
ATOM     15  C   UNL     1      35.260 -22.321 -16.129  0.00  0.00    +0.005 C 
ATOM     16  C   UNL     1      32.982 -23.051 -14.693  0.00  0.00    +0.106 C 
ATOM     17  C   UNL     1      35.363 -22.654 -14.779  0.00  0.00    +0.001 C 
ATOM     18  C   UNL     1      34.225 -23.019 -14.060  0.00  0.00    +0.018 C 
BRANCH  16  19
ATOM     19  S   UNL     1      31.557 -23.509 -13.795  0.00  0.00    +0.010 S 
ATOM     20  O   UNL     1      31.247 -24.904 -14.080  0.00  0.00    -0.169 OA
ATOM     21  O   UNL     1      31.739 -23.077 -12.416  0.00  0.00    -0.169 OA
ATOM     22  C   UNL     1      30.252 -22.533 -14.506  0.00  0.00    +0.182 C 
ENDBRANCH  16  19
ENDBRANCH  11  13
ENDBRANCH   8  10
ENDBRANCH   3   8
BRANCH   7  23
ATOM     23  C   UNL     1      35.824 -16.883 -22.390  0.00  0.00    +0.064 C 
BRANCH  23  24
ATOM     24  C   UNL     1      34.812 -15.855 -22.899  0.00  0.00    -0.052 C 
BRANCH  24  25
ATOM     25  N   UNL     1      34.801 -15.946 -24.364  0.00  0.00    +0.382 N 
ATOM     26  H   UNL     1      35.452 -16.670 -24.665  0.00  0.00    -0.089 HD
ATOM     27  H   UNL     1      35.080 -15.049 -24.763  0.00  0.00    -0.089 HD
ATOM     28  H   UNL     1      33.860 -16.180 -24.684  0.00  0.00    -0.089 HD
ENDBRANCH  24  25
BRANCH  24  29
ATOM     29  C   UNL     1      35.159 -14.403 -22.501  0.00  0.00    +0.005 C 
BRANCH  29  31
ATOM     30 CL   UNL     1      31.968 -10.359 -21.693  0.00  0.00    -0.082 Cl
ATOM     31  C   UNL     1      34.128 -13.726 -21.632  0.00  0.00    -0.023 C 
ATOM     32  C   UNL     1      33.587 -12.499 -22.020  0.00  0.00    +0.007 C 
ATOM     33  C   UNL     1      33.717 -14.324 -20.442  0.00  0.00    -0.004 C 
ATOM     34  C   UNL     1      32.635 -11.872 -21.216  0.00  0.00    +0.057 C 
ATOM     35  C   UNL     1      32.765 -13.697 -19.638  0.00  0.00    +0.001 C 
ATOM     36  C   UNL     1      32.224 -12.470 -20.026  0.00  0.00    +0.011 C 
ENDBRANCH  29  31
ENDBRANCH  24  29
ENDBRANCH  23  24
ENDBRANCH   7  23
TORSDOF 9
ENDMDL
MODEL 9
REMARK VINA RESULT:     -10.5      4.160     10.323
REMARK  Name = 42608447
REMARK  9 active torsions:
REMARK  status: ('A' for Active; 'I' for Inactive)
REMARK    1  A    between atoms: C_3  and  C_8
REMARK    2  A    between atoms: C_7  and  C_23
REMARK    3  A    between atoms: C_8  and  N_10
REMARK    4  A    between atoms: C_11  and  C_13
REMARK    5  A    between atoms: C_16  and  S_19
REMARK    6  A    between atoms: C_23  and  C_24
REMARK    7  A    between atoms: C_24  and  N_25
REMARK    8  A    between atoms: C_24  and  C_29
REMARK    9  A    between atoms: C_29  and  C_31
REMARK                            x       y       z     vdW  Elec       q    Type
REMARK                         _______ _______ _______ _____ _____    ______ ____
ROOT
ATOM      1  O   UNL     1      34.946 -12.429 -23.929  0.00  0.00    -0.275 OA
ATOM      2  N   UNL     1      33.935 -12.919 -21.907  0.00  0.00    -0.280 N 
ATOM      3  C   UNL     1      34.936 -13.886 -21.450  0.00  0.00    +0.095 C 
ATOM      4  C   UNL     1      34.640 -14.036 -19.955  0.00  0.00    +0.023 C 
ATOM      5  C   UNL     1      33.135 -13.810 -19.868  0.00  0.00    +0.023 C 
ATOM      6  C   UNL     1      32.893 -12.721 -20.902  0.00  0.00    +0.093 C 
ATOM      7  C   UNL     1      34.051 -12.234 -23.106  0.00  0.00    +0.224 C 
ENDROOT
BRANCH   3   8
ATOM      8  C   UNL     1      34.812 -15.211 -22.198  0.00  0.00    +0.109 C 
BRANCH   8  10
ATOM      9  O   UNL     1      34.541 -18.007 -22.794  0.00  0.00    -0.270 OA
ATOM     10  N   UNL     1      35.236 -16.306 -21.377  0.00  0.00    -0.299 N 
ATOM     11  C   UNL     1      35.065 -17.638 -21.746  0.00  0.00    +0.246 C 
ATOM     12  H   UNL     1      35.668 -16.107 -20.516  0.00  0.00    +0.150 HD
BRANCH  11  13
ATOM     13  C   UNL     1      35.536 -18.657 -20.772  0.00  0.00    +0.055 C 
ATOM     14  C   UNL     1      34.637 -19.581 -20.239  0.00  0.00    +0.023 C 
ATOM     15  C   UNL     1      36.878 -18.690 -20.391  0.00  0.00    +0.005 C 
ATOM     16  C   UNL     1      35.080 -20.536 -19.325  0.00  0.00    +0.106 C 
ATOM     17  C   UNL     1      37.320 -19.646 -19.477  0.00  0.00    +0.001 C 
ATOM     18  C   UNL     1      36.421 -20.569 -18.944  0.00  0.00    +0.018 C 
BRANCH  16  19
ATOM     19  S   UNL     1      33.954 -21.693 -18.657  0.00  0.00    +0.010 S 
ATOM     20  O   UNL     1      32.647 -21.062 -18.535  0.00  0.00    -0.169 OA
ATOM     21  O   UNL     1      34.090 -22.934 -19.407  0.00  0.00    -0.169 OA
ATOM     22  C   UNL     1      34.545 -21.984 -17.006  0.00  0.00    +0.182 C 
ENDBRANCH  16  19
ENDBRANCH  11  13
ENDBRANCH   8  10
ENDBRANCH   3   8
BRANCH   7  23
ATOM     23  C   UNL     1      32.986 -11.200 -23.369  0.00  0.00    +0.064 C 
BRANCH  23  24
ATOM     24  C   UNL     1      33.590  -9.856 -23.779  0.00  0.00    -0.052 C 
BRANCH  24  25
ATOM     25  N   UNL     1      34.893  -9.744 -23.111  0.00  0.00    +0.382 N 
ATOM     26  H   UNL     1      35.601  -9.467 -23.791  0.00  0.00    -0.089 HD
ATOM     27  H   UNL     1      35.146 -10.645 -22.705  0.00  0.00    -0.089 HD
ATOM     28  H   UNL     1      34.838  -9.043 -22.372  0.00  0.00    -0.089 HD
ENDBRANCH  24  25
BRANCH  24  29
ATOM     29  C   UNL     1      32.726  -8.643 -23.370  0.00  0.00    +0.005 C 
BRANCH  29  31
ATOM     30 CL   UNL     1      31.161  -9.977 -18.578  0.00  0.00    -0.082 Cl
ATOM     31  C   UNL     1      32.711  -8.353 -21.889  0.00  0.00    -0.023 C 
ATOM     32  C   UNL     1      32.023  -9.201 -21.019  0.00  0.00    +0.007 C 
ATOM     33  C   UNL     1      33.382  -7.238 -21.390  0.00  0.00    -0.004 C 
ATOM     34  C   UNL     1      32.008  -8.932 -19.651  0.00  0.00    +0.057 C 
ATOM     35  C   UNL     1      33.367  -6.969 -20.021  0.00  0.00    +0.001 C 
ATOM     36  C   UNL     1      32.680  -7.817 -19.151  0.00  0.00    +0.011 C 
ENDBRANCH  29  31
ENDBRANCH  24  29
ENDBRANCH  23  24
ENDBRANCH   7  23
TORSDOF 9
ENDMDL
