MODEL 1
REMARK VINA RESULT:     -11.7      0.000      0.000
REMARK  Name = 491941
REMARK  5 active torsions:
REMARK  status: ('A' for Active; 'I' for Inactive)
REMARK    1  A    between atoms: C_5  and  C_17
REMARK    2  A    between atoms: C_7  and  S_11
REMARK    3  A    between atoms: S_11  and  N_14
REMARK    4  A    between atoms: C_17  and  C_18
REMARK    5  A    between atoms: C_21  and  C_25
REMARK                            x       y       z     vdW  Elec       q    Type
REMARK                         _______ _______ _______ _____ _____    ______ ____
ROOT
ATOM      1  S   UNL     1      34.859 -24.003 -13.094  0.00  0.00    -0.035 S 
ATOM      2  O   UNL     1      35.982 -21.957 -16.826  0.00  0.00    -0.274 OA
ATOM      3  N   UNL     1      34.344 -22.682 -15.299  0.00  0.00    -0.227 N 
ATOM      4  N   UNL     1      36.327 -22.104 -14.057  0.00  0.00    -0.386 NA
ATOM      5  C   UNL     1      34.811 -22.248 -16.564  0.00  0.00    +0.236 C 
ATOM      6  C   UNL     1      35.267 -22.806 -14.217  0.00  0.00    +0.217 C 
ATOM      7  C   UNL     1      36.277 -23.569 -12.233  0.00  0.00    +0.247 C 
ATOM      8  C   UNL     1      36.925 -22.546 -12.894  0.00  0.00    +0.123 C 
ATOM      9  C   UNL     1      32.926 -23.008 -15.075  0.00  0.00    +0.123 C 
ATOM     10  C   UNL     1      38.181 -21.899 -12.464  0.00  0.00    +0.064 C 
ENDROOT
BRANCH   7  11
ATOM     11  S   UNL     1      36.577 -24.478 -10.765  0.00  0.00    +0.052 S 
ATOM     12  O   UNL     1      37.628 -23.760 -10.051  0.00  0.00    -0.157 OA
ATOM     13  O   UNL     1      35.266 -24.667 -10.155  0.00  0.00    -0.157 OA
BRANCH  11  14
ATOM     14  N   UNL     1      37.201 -26.024 -11.188  0.00  0.00    -0.206 NA
ATOM     15  H   UNL     1      36.823 -26.308 -12.091  0.00  0.00    +0.144 HD
ATOM     16  H   UNL     1      36.932 -26.705 -10.477  0.00  0.00    +0.144 HD
ENDBRANCH  11  14
ENDBRANCH   7  11
BRANCH   5  17
ATOM     17  C   UNL     1      33.766 -22.182 -17.685  0.00  0.00    +0.112 C 
BRANCH  17  18
ATOM     18  C   UNL     1      34.037 -21.132 -18.707  0.00  0.00    -0.013 C 
ATOM     19  C   UNL     1      35.350 -20.843 -19.080  0.00  0.00    -0.004 C 
ATOM     20  C   UNL     1      32.977 -20.437 -19.291  0.00  0.00    -0.004 C 
ATOM     21  C   UNL     1      34.545 -19.165 -20.619  0.00  0.00    +0.018 C 
ATOM     22  C   UNL     1      35.604 -19.860 -20.036  0.00  0.00    +0.001 C 
ATOM     23  C   UNL     1      33.231 -19.454 -20.248  0.00  0.00    +0.001 C 
BRANCH  21  25
ATOM     24  N   UNL     1      35.302 -16.989 -21.121  0.00  0.00    -0.244 NA
ATOM     25  C   UNL     1      34.807 -18.145 -21.612  0.00  0.00    +0.081 C 
ATOM     26  C   UNL     1      34.556 -18.379 -22.952  0.00  0.00    +0.019 C 
ATOM     27  C   UNL     1      34.832 -17.355 -23.852  0.00  0.00    +0.003 C 
ATOM     28  C   UNL     1      35.558 -16.016 -22.025  0.00  0.00    +0.099 C 
ATOM     29  C   UNL     1      35.343 -16.148 -23.387  0.00  0.00    +0.021 C 
ENDBRANCH  21  25
ENDBRANCH  17  18
ENDBRANCH   5  17
TORSDOF 5
ENDMDL
MODEL 2
REMARK VINA RESULT:     -10.9      3.177      5.451
REMARK  Name = 491941
REMARK  5 active torsions:
REMARK  status: ('A' for Active; 'I' for Inactive)
REMARK    1  A    between atoms: C_5  and  C_17
REMARK    2  A    between atoms: C_7  and  S_11
REMARK    3  A    between atoms: S_11  and  N_14
REMARK    4  A    between atoms: C_17  and  C_18
REMARK    5  A    between atoms: C_21  and  C_25
REMARK                            x       y       z     vdW  Elec       q    Type
REMARK                         _______ _______ _______ _____ _____    ______ ____
ROOT
ATOM      1  S   UNL     1      36.554 -21.250 -17.177  0.00  0.00    -0.035 S 
ATOM      2  O   UNL     1      34.113 -18.993 -20.062  0.00  0.00    -0.274 OA
ATOM      3  N   UNL     1      36.119 -20.079 -19.482  0.00  0.00    -0.227 N 
ATOM      4  N   UNL     1      34.295 -21.258 -18.437  0.00  0.00    -0.386 NA
ATOM      5  C   UNL     1      35.323 -19.175 -20.227  0.00  0.00    +0.236 C 
ATOM      6  C   UNL     1      35.512 -20.859 -18.451  0.00  0.00    +0.217 C 
ATOM      7  C   UNL     1      35.237 -22.079 -16.458  0.00  0.00    +0.247 C 
ATOM      8  C   UNL     1      34.126 -21.976 -17.269  0.00  0.00    +0.123 C 
ATOM      9  C   UNL     1      37.559 -20.232 -19.747  0.00  0.00    +0.123 C 
ATOM     10  C   UNL     1      32.797 -22.560 -16.994  0.00  0.00    +0.064 C 
ENDROOT
BRANCH   7  11
ATOM     11  S   UNL     1      35.577 -22.847 -14.920  0.00  0.00    +0.052 S 
ATOM     12  O   UNL     1      35.504 -24.286 -15.159  0.00  0.00    -0.157 OA
ATOM     13  O   UNL     1      36.817 -22.238 -14.453  0.00  0.00    -0.157 OA
BRANCH  11  14
ATOM     14  N   UNL     1      34.328 -22.442 -13.809  0.00  0.00    -0.206 NA
ATOM     15  H   UNL     1      34.684 -22.512 -12.857  0.00  0.00    +0.144 HD
ATOM     16  H   UNL     1      33.545 -23.085 -13.929  0.00  0.00    +0.144 HD
ENDBRANCH  11  14
ENDBRANCH   7  11
BRANCH   5  17
ATOM     17  C   UNL     1      36.056 -18.343 -21.286  0.00  0.00    +0.112 C 
BRANCH  17  18
ATOM     18  C   UNL     1      35.513 -16.965 -21.460  0.00  0.00    -0.013 C 
ATOM     19  C   UNL     1      35.276 -16.163 -20.344  0.00  0.00    -0.004 C 
ATOM     20  C   UNL     1      35.243 -16.478 -22.739  0.00  0.00    -0.004 C 
ATOM     21  C   UNL     1      34.497 -14.388 -21.785  0.00  0.00    +0.018 C 
ATOM     22  C   UNL     1      34.768 -14.874 -20.506  0.00  0.00    +0.001 C 
ATOM     23  C   UNL     1      34.735 -15.189 -22.902  0.00  0.00    +0.001 C 
BRANCH  21  25
ATOM     24  N   UNL     1      34.513 -12.351 -22.973  0.00  0.00    -0.244 NA
ATOM     25  C   UNL     1      33.970 -13.051 -21.954  0.00  0.00    +0.081 C 
ATOM     26  C   UNL     1      32.984 -12.565 -21.114  0.00  0.00    +0.019 C 
ATOM     27  C   UNL     1      32.523 -11.272 -21.334  0.00  0.00    +0.003 C 
ATOM     28  C   UNL     1      34.041 -11.097 -23.157  0.00  0.00    +0.099 C 
ATOM     29  C   UNL     1      33.057 -10.517 -22.374  0.00  0.00    +0.021 C 
ENDBRANCH  21  25
ENDBRANCH  17  18
ENDBRANCH   5  17
TORSDOF 5
ENDMDL
MODEL 3
REMARK VINA RESULT:     -10.5      3.333      5.639
REMARK  Name = 491941
REMARK  5 active torsions:
REMARK  status: ('A' for Active; 'I' for Inactive)
REMARK    1  A    between atoms: C_5  and  C_17
REMARK    2  A    between atoms: C_7  and  S_11
REMARK    3  A    between atoms: S_11  and  N_14
REMARK    4  A    between atoms: C_17  and  C_18
REMARK    5  A    between atoms: C_21  and  C_25
REMARK                            x       y       z     vdW  Elec       q    Type
REMARK                         _______ _______ _______ _____ _____    ______ ____
ROOT
ATOM      1  S   UNL     1      36.855 -20.899 -17.407  0.00  0.00    -0.035 S 
ATOM      2  O   UNL     1      34.233 -18.824 -20.268  0.00  0.00    -0.274 OA
ATOM      3  N   UNL     1      36.320 -19.752 -19.702  0.00  0.00    -0.227 N 
ATOM      4  N   UNL     1      34.599 -21.078 -18.658  0.00  0.00    -0.386 NA
ATOM      5  C   UNL     1      35.452 -18.908 -20.438  0.00  0.00    +0.236 C 
ATOM      6  C   UNL     1      35.781 -20.584 -18.675  0.00  0.00    +0.217 C 
ATOM      7  C   UNL     1      35.610 -21.835 -16.689  0.00  0.00    +0.247 C 
ATOM      8  C   UNL     1      34.492 -21.814 -17.495  0.00  0.00    +0.123 C 
ATOM      9  C   UNL     1      37.766 -19.790 -19.974  0.00  0.00    +0.123 C 
ATOM     10  C   UNL     1      33.214 -22.502 -17.219  0.00  0.00    +0.064 C 
ENDROOT
BRANCH   7  11
ATOM     11  S   UNL     1      36.016 -22.583 -15.157  0.00  0.00    +0.052 S 
ATOM     12  O   UNL     1      37.455 -22.406 -14.987  0.00  0.00    -0.157 OA
ATOM     13  O   UNL     1      35.082 -22.013 -14.192  0.00  0.00    -0.157 OA
BRANCH  11  14
ATOM     14  N   UNL     1      35.711 -24.272 -15.266  0.00  0.00    -0.206 NA
ATOM     15  H   UNL     1      36.561 -24.753 -15.560  0.00  0.00    +0.144 HD
ATOM     16  H   UNL     1      34.971 -24.441 -15.949  0.00  0.00    +0.144 HD
ENDBRANCH  11  14
ENDBRANCH   7  11
BRANCH   5  17
ATOM     17  C   UNL     1      36.114 -18.014 -21.495  0.00  0.00    +0.112 C 
BRANCH  17  18
ATOM     18  C   UNL     1      35.519 -16.651 -21.596  0.00  0.00    -0.013 C 
ATOM     19  C   UNL     1      35.171 -16.132 -22.843  0.00  0.00    -0.004 C 
ATOM     20  C   UNL     1      35.310 -15.895 -20.443  0.00  0.00    -0.004 C 
ATOM     21  C   UNL     1      34.407 -14.100 -21.785  0.00  0.00    +0.018 C 
ATOM     22  C   UNL     1      34.615 -14.857 -22.938  0.00  0.00    +0.001 C 
ATOM     23  C   UNL     1      34.754 -14.618 -20.537  0.00  0.00    +0.001 C 
BRANCH  21  25
ATOM     24  N   UNL     1      32.887 -12.499 -20.956  0.00  0.00    -0.244 NA
ATOM     25  C   UNL     1      33.830 -12.777 -21.882  0.00  0.00    +0.081 C 
ATOM     26  C   UNL     1      34.243 -11.893 -22.864  0.00  0.00    +0.019 C 
ATOM     27  C   UNL     1      33.646 -10.637 -22.898  0.00  0.00    +0.003 C 
ATOM     28  C   UNL     1      32.328 -11.269 -21.021  0.00  0.00    +0.099 C 
ATOM     29  C   UNL     1      32.669 -10.312 -21.963  0.00  0.00    +0.021 C 
ENDBRANCH  21  25
ENDBRANCH  17  18
ENDBRANCH   5  17
TORSDOF 5
ENDMDL
MODEL 4
REMARK VINA RESULT:     -10.3      2.870      4.391
REMARK  Name = 491941
REMARK  5 active torsions:
REMARK  status: ('A' for Active; 'I' for Inactive)
REMARK    1  A    between atoms: C_5  and  C_17
REMARK    2  A    between atoms: C_7  and  S_11
REMARK    3  A    between atoms: S_11  and  N_14
REMARK    4  A    between atoms: C_17  and  C_18
REMARK    5  A    between atoms: C_21  and  C_25
REMARK                            x       y       z     vdW  Elec       q    Type
REMARK                         _______ _______ _______ _____ _____    ______ ____
ROOT
ATOM      1  S   UNL     1      35.206 -22.023 -15.784  0.00  0.00    -0.035 S 
ATOM      2  O   UNL     1      33.902 -19.964 -19.450  0.00  0.00    -0.274 OA
ATOM      3  N   UNL     1      35.527 -21.163 -18.240  0.00  0.00    -0.227 N 
ATOM      4  N   UNL     1      33.353 -21.972 -17.586  0.00  0.00    -0.386 NA
ATOM      5  C   UNL     1      35.077 -20.297 -19.267  0.00  0.00    +0.236 C 
ATOM      6  C   UNL     1      34.579 -21.713 -17.324  0.00  0.00    +0.217 C 
ATOM      7  C   UNL     1      33.648 -22.591 -15.349  0.00  0.00    +0.247 C 
ATOM      8  C   UNL     1      32.799 -22.488 -16.431  0.00  0.00    +0.123 C 
ATOM      9  C   UNL     1      36.950 -21.509 -18.096  0.00  0.00    +0.123 C 
ATOM     10  C   UNL     1      31.375 -22.878 -16.452  0.00  0.00    +0.064 C 
ENDROOT
BRANCH   7  11
ATOM     11  S   UNL     1      33.484 -23.156 -13.699  0.00  0.00    +0.052 S 
ATOM     12  O   UNL     1      34.830 -23.150 -13.132  0.00  0.00    -0.157 OA
ATOM     13  O   UNL     1      32.432 -22.333 -13.114  0.00  0.00    -0.157 OA
BRANCH  11  14
ATOM     14  N   UNL     1      32.940 -24.788 -13.723  0.00  0.00    -0.206 NA
ATOM     15  H   UNL     1      33.000 -25.152 -14.673  0.00  0.00    +0.144 HD
ATOM     16  H   UNL     1      31.971 -24.828 -13.403  0.00  0.00    +0.144 HD
ENDBRANCH  11  14
ENDBRANCH   7  11
BRANCH   5  17
ATOM     17  C   UNL     1      36.160 -19.714 -20.183  0.00  0.00    +0.112 C 
BRANCH  17  18
ATOM     18  C   UNL     1      35.760 -18.455 -20.872  0.00  0.00    -0.013 C 
ATOM     19  C   UNL     1      35.371 -18.485 -22.212  0.00  0.00    -0.004 C 
ATOM     20  C   UNL     1      35.773 -17.245 -20.178  0.00  0.00    -0.004 C 
ATOM     21  C   UNL     1      35.010 -16.098 -22.163  0.00  0.00    +0.018 C 
ATOM     22  C   UNL     1      34.996 -17.307 -22.857  0.00  0.00    +0.001 C 
ATOM     23  C   UNL     1      35.399 -16.066 -20.823  0.00  0.00    +0.001 C 
BRANCH  21  25
ATOM     24  N   UNL     1      34.130 -15.040 -24.078  0.00  0.00    -0.244 NA
ATOM     25  C   UNL     1      34.622 -14.875 -22.831  0.00  0.00    +0.081 C 
ATOM     26  C   UNL     1      34.759 -13.649 -22.204  0.00  0.00    +0.019 C 
ATOM     27  C   UNL     1      34.365 -12.514 -22.905  0.00  0.00    +0.003 C 
ATOM     28  C   UNL     1      33.757 -13.915 -24.729  0.00  0.00    +0.099 C 
ATOM     29  C   UNL     1      33.853 -12.641 -24.192  0.00  0.00    +0.021 C 
ENDBRANCH  21  25
ENDBRANCH  17  18
ENDBRANCH   5  17
TORSDOF 5
ENDMDL
MODEL 5
REMARK VINA RESULT:     -10.3      2.594      3.701
REMARK  Name = 491941
REMARK  5 active torsions:
REMARK  status: ('A' for Active; 'I' for Inactive)
REMARK    1  A    between atoms: C_5  and  C_17
REMARK    2  A    between atoms: C_7  and  S_11
REMARK    3  A    between atoms: S_11  and  N_14
REMARK    4  A    between atoms: C_17  and  C_18
REMARK    5  A    between atoms: C_21  and  C_25
REMARK                            x       y       z     vdW  Elec       q    Type
REMARK                         _______ _______ _______ _____ _____    ______ ____
ROOT
ATOM      1  S   UNL     1      34.871 -22.256 -14.792  0.00  0.00    -0.035 S 
ATOM      2  O   UNL     1      33.991 -20.634 -18.788  0.00  0.00    -0.274 OA
ATOM      3  N   UNL     1      35.491 -21.599 -17.252  0.00  0.00    -0.227 N 
ATOM      4  N   UNL     1      33.298 -22.503 -16.829  0.00  0.00    -0.386 NA
ATOM      5  C   UNL     1      35.144 -20.863 -18.412  0.00  0.00    +0.236 C 
ATOM      6  C   UNL     1      34.456 -22.133 -16.427  0.00  0.00    +0.217 C 
ATOM      7  C   UNL     1      33.303 -22.896 -14.523  0.00  0.00    +0.247 C 
ATOM      8  C   UNL     1      32.615 -22.952 -15.717  0.00  0.00    +0.123 C 
ATOM      9  C   UNL     1      36.897 -21.825 -16.879  0.00  0.00    +0.123 C 
ATOM     10  C   UNL     1      31.234 -23.446 -15.896  0.00  0.00    +0.064 C 
ENDROOT
BRANCH   7  11
ATOM     11  S   UNL     1      32.936 -23.322 -12.863  0.00  0.00    +0.052 S 
ATOM     12  O   UNL     1      34.220 -23.434 -12.179  0.00  0.00    -0.157 OA
ATOM     13  O   UNL     1      31.948 -22.342 -12.424  0.00  0.00    -0.157 OA
BRANCH  11  14
ATOM     14  N   UNL     1      32.198 -24.876 -12.839  0.00  0.00    -0.206 NA
ATOM     15  H   UNL     1      32.820 -25.553 -13.279  0.00  0.00    +0.144 HD
ATOM     16  H   UNL     1      31.315 -24.841 -13.350  0.00  0.00    +0.144 HD
ENDBRANCH  11  14
ENDBRANCH   7  11
BRANCH   5  17
ATOM     17  C   UNL     1      36.312 -20.287 -19.222  0.00  0.00    +0.112 C 
BRANCH  17  18
ATOM     18  C   UNL     1      35.907 -19.265 -20.229  0.00  0.00    -0.013 C 
ATOM     19  C   UNL     1      35.053 -19.616 -21.276  0.00  0.00    -0.004 C 
ATOM     20  C   UNL     1      36.381 -17.957 -20.125  0.00  0.00    -0.004 C 
ATOM     21  C   UNL     1      35.149 -17.353 -22.114  0.00  0.00    +0.018 C 
ATOM     22  C   UNL     1      34.674 -18.660 -22.218  0.00  0.00    +0.001 C 
ATOM     23  C   UNL     1      36.002 -17.001 -21.068  0.00  0.00    +0.001 C 
BRANCH  21  25
ATOM     24  N   UNL     1      34.727 -15.091 -22.631  0.00  0.00    -0.244 NA
ATOM     25  C   UNL     1      34.756 -16.360 -23.091  0.00  0.00    +0.081 C 
ATOM     26  C   UNL     1      34.443 -16.727 -24.388  0.00  0.00    +0.019 C 
ATOM     27  C   UNL     1      34.074 -15.721 -25.275  0.00  0.00    +0.003 C 
ATOM     28  C   UNL     1      34.364 -14.140 -23.521  0.00  0.00    +0.099 C 
ATOM     29  C   UNL     1      34.031 -14.400 -24.841  0.00  0.00    +0.021 C 
ENDBRANCH  21  25
ENDBRANCH  17  18
ENDBRANCH   5  17
TORSDOF 5
ENDMDL
MODEL 6
REMARK VINA RESULT:     -10.2     10.011     14.605
REMARK  Name = 491941
REMARK  5 active torsions:
REMARK  status: ('A' for Active; 'I' for Inactive)
REMARK    1  A    between atoms: C_5  and  C_17
REMARK    2  A    between atoms: C_7  and  S_11
REMARK    3  A    between atoms: S_11  and  N_14
REMARK    4  A    between atoms: C_17  and  C_18
REMARK    5  A    between atoms: C_21  and  C_25
REMARK                            x       y       z     vdW  Elec       q    Type
REMARK                         _______ _______ _______ _____ _____    ______ ____
ROOT
ATOM      1  S   UNL     1      32.681  -6.404 -23.022  0.00  0.00    -0.035 S 
ATOM      2  O   UNL     1      32.743 -10.698 -22.056  0.00  0.00    -0.274 OA
ATOM      3  N   UNL     1      33.576  -8.856 -23.262  0.00  0.00    -0.227 N 
ATOM      4  N   UNL     1      32.920  -8.088 -21.074  0.00  0.00    -0.386 NA
ATOM      5  C   UNL     1      33.350 -10.235 -23.026  0.00  0.00    +0.236 C 
ATOM      6  C   UNL     1      33.077  -7.896 -22.331  0.00  0.00    +0.217 C 
ATOM      7  C   UNL     1      32.223  -5.887 -21.453  0.00  0.00    +0.247 C 
ATOM      8  C   UNL     1      32.419  -6.913 -20.551  0.00  0.00    +0.123 C 
ATOM      9  C   UNL     1      34.313  -8.392 -24.449  0.00  0.00    +0.123 C 
ATOM     10  C   UNL     1      32.143  -6.854 -19.102  0.00  0.00    +0.064 C 
ENDROOT
BRANCH   7  11
ATOM     11  S   UNL     1      31.633  -4.240 -21.342  0.00  0.00    +0.052 S 
ATOM     12  O   UNL     1      31.578  -3.736 -22.711  0.00  0.00    -0.157 OA
ATOM     13  O   UNL     1      30.421  -4.320 -20.535  0.00  0.00    -0.157 OA
BRANCH  11  14
ATOM     14  N   UNL     1      32.787  -3.294 -20.487  0.00  0.00    -0.206 NA
ATOM     15  H   UNL     1      32.407  -2.364 -20.320  0.00  0.00    +0.144 HD
ATOM     16  H   UNL     1      33.642  -3.219 -21.040  0.00  0.00    +0.144 HD
ENDBRANCH  11  14
ENDBRANCH   7  11
BRANCH   5  17
ATOM     17  C   UNL     1      33.880 -11.200 -24.094  0.00  0.00    +0.112 C 
BRANCH  17  18
ATOM     18  C   UNL     1      34.189 -12.564 -23.581  0.00  0.00    -0.013 C 
ATOM     19  C   UNL     1      34.687 -12.727 -22.287  0.00  0.00    -0.004 C 
ATOM     20  C   UNL     1      33.980 -13.679 -24.393  0.00  0.00    -0.004 C 
ATOM     21  C   UNL     1      34.768 -15.118 -22.619  0.00  0.00    +0.018 C 
ATOM     22  C   UNL     1      34.976 -14.004 -21.807  0.00  0.00    +0.001 C 
ATOM     23  C   UNL     1      34.270 -14.957 -23.912  0.00  0.00    +0.001 C 
BRANCH  21  25
ATOM     24  N   UNL     1      35.465 -16.489 -20.832  0.00  0.00    -0.244 NA
ATOM     25  C   UNL     1      35.068 -16.443 -22.121  0.00  0.00    +0.081 C 
ATOM     26  C   UNL     1      34.942 -17.553 -22.938  0.00  0.00    +0.019 C 
ATOM     27  C   UNL     1      35.246 -18.797 -22.394  0.00  0.00    +0.003 C 
ATOM     28  C   UNL     1      35.753 -17.715 -20.337  0.00  0.00    +0.099 C 
ATOM     29  C   UNL     1      35.660 -18.887 -21.069  0.00  0.00    +0.021 C 
ENDBRANCH  21  25
ENDBRANCH  17  18
ENDBRANCH   5  17
TORSDOF 5
ENDMDL
MODEL 7
REMARK VINA RESULT:     -10.2      9.036     13.658
REMARK  Name = 491941
REMARK  5 active torsions:
REMARK  status: ('A' for Active; 'I' for Inactive)
REMARK    1  A    between atoms: C_5  and  C_17
REMARK    2  A    between atoms: C_7  and  S_11
REMARK    3  A    between atoms: S_11  and  N_14
REMARK    4  A    between atoms: C_17  and  C_18
REMARK    5  A    between atoms: C_21  and  C_25
REMARK                            x       y       z     vdW  Elec       q    Type
REMARK                         _______ _______ _______ _____ _____    ______ ____
ROOT
ATOM      1  S   UNL     1      33.091  -8.058 -23.291  0.00  0.00    -0.035 S 
ATOM      2  O   UNL     1      32.706 -12.252 -22.011  0.00  0.00    -0.274 OA
ATOM      3  N   UNL     1      33.834 -10.570 -23.212  0.00  0.00    -0.227 N 
ATOM      4  N   UNL     1      32.925  -9.584 -21.210  0.00  0.00    -0.386 NA
ATOM      5  C   UNL     1      33.479 -11.908 -22.910  0.00  0.00    +0.236 C 
ATOM      6  C   UNL     1      33.275  -9.508 -22.440  0.00  0.00    +0.217 C 
ATOM      7  C   UNL     1      32.447  -7.385 -21.852  0.00  0.00    +0.247 C 
ATOM      8  C   UNL     1      32.438  -8.341 -20.857  0.00  0.00    +0.123 C 
ATOM      9  C   UNL     1      34.767 -10.252 -24.305  0.00  0.00    +0.123 C 
ATOM     10  C   UNL     1      31.959  -8.144 -19.474  0.00  0.00    +0.064 C 
ENDROOT
BRANCH   7  11
ATOM     11  S   UNL     1      31.966  -5.703 -21.953  0.00  0.00    +0.052 S 
ATOM     12  O   UNL     1      32.562  -5.184 -23.181  0.00  0.00    -0.157 OA
ATOM     13  O   UNL     1      30.519  -5.706 -21.779  0.00  0.00    -0.157 OA
BRANCH  11  14
ATOM     14  N   UNL     1      32.665  -4.845 -20.636  0.00  0.00    -0.206 NA
ATOM     15  H   UNL     1      32.353  -5.259 -19.758  0.00  0.00    +0.144 HD
ATOM     16  H   UNL     1      32.375  -3.868 -20.675  0.00  0.00    +0.144 HD
ENDBRANCH  11  14
ENDBRANCH   7  11
BRANCH   5  17
ATOM     17  C   UNL     1      34.088 -12.989 -23.812  0.00  0.00    +0.112 C 
BRANCH  17  18
ATOM     18  C   UNL     1      34.486 -14.231 -23.089  0.00  0.00    -0.013 C 
ATOM     19  C   UNL     1      34.621 -15.432 -23.786  0.00  0.00    -0.004 C 
ATOM     20  C   UNL     1      34.724 -14.192 -21.715  0.00  0.00    -0.004 C 
ATOM     21  C   UNL     1      35.230 -16.554 -21.736  0.00  0.00    +0.018 C 
ATOM     22  C   UNL     1      34.993 -16.593 -23.110  0.00  0.00    +0.001 C 
ATOM     23  C   UNL     1      35.095 -15.354 -21.038  0.00  0.00    +0.001 C 
BRANCH  21  25
ATOM     24  N   UNL     1      36.948 -17.937 -20.901  0.00  0.00    -0.244 NA
ATOM     25  C   UNL     1      35.616 -17.759 -21.034  0.00  0.00    +0.081 C 
ATOM     26  C   UNL     1      34.661 -18.635 -20.550  0.00  0.00    +0.019 C 
ATOM     27  C   UNL     1      35.103 -19.773 -19.884  0.00  0.00    +0.003 C 
ATOM     28  C   UNL     1      37.341 -19.054 -20.248  0.00  0.00    +0.099 C 
ATOM     29  C   UNL     1      36.467 -19.994 -19.726  0.00  0.00    +0.021 C 
ENDBRANCH  21  25
ENDBRANCH  17  18
ENDBRANCH   5  17
TORSDOF 5
ENDMDL
MODEL 8
REMARK VINA RESULT:      -9.9      5.702     10.969
REMARK  Name = 491941
REMARK  5 active torsions:
REMARK  status: ('A' for Active; 'I' for Inactive)
REMARK    1  A    between atoms: C_5  and  C_17
REMARK    2  A    between atoms: C_7  and  S_11
REMARK    3  A    between atoms: S_11  and  N_14
REMARK    4  A    between atoms: C_17  and  C_18
REMARK    5  A    between atoms: C_21  and  C_25
REMARK                            x       y       z     vdW  Elec       q    Type
REMARK                         _______ _______ _______ _____ _____    ______ ____
ROOT
ATOM      1  S   UNL     1      34.408 -15.080 -23.525  0.00  0.00    -0.035 S 
ATOM      2  O   UNL     1      34.890 -17.430 -19.835  0.00  0.00    -0.274 OA
ATOM      3  N   UNL     1      35.311 -17.106 -22.128  0.00  0.00    -0.227 N 
ATOM      4  N   UNL     1      35.205 -14.944 -21.069  0.00  0.00    -0.386 NA
ATOM      5  C   UNL     1      35.210 -17.874 -20.942  0.00  0.00    +0.236 C 
ATOM      6  C   UNL     1      35.027 -15.707 -22.082  0.00  0.00    +0.217 C 
ATOM      7  C   UNL     1      34.344 -13.555 -22.744  0.00  0.00    +0.247 C 
ATOM      8  C   UNL     1      34.807 -13.678 -21.451  0.00  0.00    +0.123 C 
ATOM      9  C   UNL     1      35.701 -17.719 -23.408  0.00  0.00    +0.123 C 
ATOM     10  C   UNL     1      34.907 -12.586 -20.462  0.00  0.00    +0.064 C 
ENDROOT
BRANCH   7  11
ATOM     11  S   UNL     1      33.736 -12.232 -23.719  0.00  0.00    +0.052 S 
ATOM     12  O   UNL     1      33.663 -12.736 -25.088  0.00  0.00    -0.157 OA
ATOM     13  O   UNL     1      32.532 -11.773 -23.036  0.00  0.00    -0.157 OA
BRANCH  11  14
ATOM     14  N   UNL     1      34.886 -10.953 -23.699  0.00  0.00    -0.206 NA
ATOM     15  H   UNL     1      34.399 -10.059 -23.657  0.00  0.00    +0.144 HD
ATOM     16  H   UNL     1      35.454 -10.993 -24.546  0.00  0.00    +0.144 HD
ENDBRANCH  11  14
ENDBRANCH   7  11
BRANCH   5  17
ATOM     17  C   UNL     1      35.488 -19.376 -21.082  0.00  0.00    +0.112 C 
BRANCH  17  18
ATOM     18  C   UNL     1      35.192 -20.166 -19.854  0.00  0.00    -0.013 C 
ATOM     19  C   UNL     1      33.877 -20.528 -19.557  0.00  0.00    -0.004 C 
ATOM     20  C   UNL     1      36.229 -20.544 -19.001  0.00  0.00    -0.004 C 
ATOM     21  C   UNL     1      34.637 -21.645 -17.554  0.00  0.00    +0.018 C 
ATOM     22  C   UNL     1      33.600 -21.268 -18.408  0.00  0.00    +0.001 C 
ATOM     23  C   UNL     1      35.951 -21.284 -17.851  0.00  0.00    +0.001 C 
BRANCH  21  25
ATOM     24  N   UNL     1      35.435 -22.925 -15.742  0.00  0.00    -0.244 NA
ATOM     25  C   UNL     1      34.350 -22.413 -16.362  0.00  0.00    +0.081 C 
ATOM     26  C   UNL     1      33.049 -22.583 -15.924  0.00  0.00    +0.019 C 
ATOM     27  C   UNL     1      32.846 -23.332 -14.770  0.00  0.00    +0.003 C 
ATOM     28  C   UNL     1      35.199 -23.648 -14.623  0.00  0.00    +0.099 C 
ATOM     29  C   UNL     1      33.936 -23.878 -14.101  0.00  0.00    +0.021 C 
ENDBRANCH  21  25
ENDBRANCH  17  18
ENDBRANCH   5  17
TORSDOF 5
ENDMDL
MODEL 9
REMARK VINA RESULT:      -9.8      5.633     10.967
REMARK  Name = 491941
REMARK  5 active torsions:
REMARK  status: ('A' for Active; 'I' for Inactive)
REMARK    1  A    between atoms: C_5  and  C_17
REMARK    2  A    between atoms: C_7  and  S_11
REMARK    3  A    between atoms: S_11  and  N_14
REMARK    4  A    between atoms: C_17  and  C_18
REMARK    5  A    between atoms: C_21  and  C_25
REMARK                            x       y       z     vdW  Elec       q    Type
REMARK                         _______ _______ _______ _____ _____    ______ ____
ROOT
ATOM      1  S   UNL     1      34.630 -16.098 -23.972  0.00  0.00    -0.035 S 
ATOM      2  O   UNL     1      35.042 -17.654 -19.875  0.00  0.00    -0.274 OA
ATOM      3  N   UNL     1      35.610 -17.717 -22.159  0.00  0.00    -0.227 N 
ATOM      4  N   UNL     1      35.214 -15.421 -21.545  0.00  0.00    -0.386 NA
ATOM      5  C   UNL     1      35.490 -18.257 -20.854  0.00  0.00    +0.236 C 
ATOM      6  C   UNL     1      35.191 -16.374 -22.400  0.00  0.00    +0.217 C 
ATOM      7  C   UNL     1      34.358 -14.470 -23.505  0.00  0.00    +0.247 C 
ATOM      8  C   UNL     1      34.727 -14.299 -22.187  0.00  0.00    +0.123 C 
ATOM      9  C   UNL     1      36.158 -18.511 -23.271  0.00  0.00    +0.123 C 
ATOM     10  C   UNL     1      34.643 -13.038 -21.423  0.00  0.00    +0.064 C 
ENDROOT
BRANCH   7  11
ATOM     11  S   UNL     1      33.704 -13.426 -24.751  0.00  0.00    +0.052 S 
ATOM     12  O   UNL     1      32.296 -13.788 -24.887  0.00  0.00    -0.157 OA
ATOM     13  O   UNL     1      34.085 -12.074 -24.358  0.00  0.00    -0.157 OA
BRANCH  11  14
ATOM     14  N   UNL     1      34.479 -13.790 -26.243  0.00  0.00    -0.206 NA
ATOM     15  H   UNL     1      35.490 -13.793 -26.109  0.00  0.00    +0.144 HD
ATOM     16  H   UNL     1      34.229 -13.085 -26.937  0.00  0.00    +0.144 HD
ENDBRANCH  11  14
ENDBRANCH   7  11
BRANCH   5  17
ATOM     17  C   UNL     1      35.921 -19.720 -20.686  0.00  0.00    +0.112 C 
BRANCH  17  18
ATOM     18  C   UNL     1      35.275 -20.415 -19.537  0.00  0.00    -0.013 C 
ATOM     19  C   UNL     1      33.887 -20.561 -19.500  0.00  0.00    -0.004 C 
ATOM     20  C   UNL     1      36.057 -20.922 -18.499  0.00  0.00    -0.004 C 
ATOM     21  C   UNL     1      34.064 -21.717 -17.387  0.00  0.00    +0.018 C 
ATOM     22  C   UNL     1      33.282 -21.212 -18.426  0.00  0.00    +0.001 C 
ATOM     23  C   UNL     1      35.451 -21.573 -17.423  0.00  0.00    +0.001 C 
BRANCH  21  25
ATOM     24  N   UNL     1      34.293 -22.877 -15.347  0.00  0.00    -0.244 NA
ATOM     25  C   UNL     1      33.437 -22.393 -16.272  0.00  0.00    +0.081 C 
ATOM     26  C   UNL     1      32.060 -22.510 -16.197  0.00  0.00    +0.019 C 
ATOM     27  C   UNL     1      31.525 -23.171 -15.096  0.00  0.00    +0.003 C 
ATOM     28  C   UNL     1      33.737 -23.515 -14.292  0.00  0.00    +0.099 C 
ATOM     29  C   UNL     1      32.373 -23.686 -14.121  0.00  0.00    +0.021 C 
ENDBRANCH  21  25
ENDBRANCH  17  18
ENDBRANCH   5  17
TORSDOF 5
ENDMDL
