MODEL 1
REMARK VINA RESULT:     -12.7      0.000      0.000
REMARK  Name = 71226662
REMARK  4 active torsions:
REMARK  status: ('A' for Active; 'I' for Inactive)
REMARK    1  A    between atoms: C_5  and  C_15
REMARK    2  A    between atoms: C_7  and  C_23
REMARK    3  A    between atoms: C_19  and  C_20
REMARK    4  A    between atoms: C_28  and  C_31
REMARK                            x       y       z     vdW  Elec       q    Type
REMARK                         _______ _______ _______ _____ _____    ______ ____
ROOT
ATOM      1  N   UNL     1      33.147 -23.673 -14.274  0.00  0.00    -0.251 N 
ATOM      2  N   UNL     1      35.075 -23.007 -15.147  0.00  0.00    -0.392 NA
ATOM      3  N   UNL     1      30.495 -23.289 -14.994  0.00  0.00    -0.231 NA
ATOM      4  N   UNL     1      31.042 -22.013 -16.851  0.00  0.00    -0.344 N 
ATOM      5  C   UNL     1      34.509 -23.688 -14.172  0.00  0.00    +0.182 C 
ATOM      6  C   UNL     1      32.825 -22.934 -15.386  0.00  0.00    +0.185 C 
ATOM      7  C   UNL     1      34.032 -22.532 -15.909  0.00  0.00    +0.136 C 
ATOM      8  C   UNL     1      32.149 -24.231 -13.503  0.00  0.00    +0.089 C 
ATOM      9  C   UNL     1      31.429 -22.742 -15.749  0.00  0.00    +0.128 C 
ATOM     10  C   UNL     1      30.877 -24.024 -13.884  0.00  0.00    +0.116 C 
ATOM     11  H   UNL     1      30.085 -21.909 -17.061  0.00  0.00    +0.143 HD
ATOM     12  H   UNL     1      31.720 -21.597 -17.430  0.00  0.00    +0.143 HD
ENDROOT
BRANCH   5  15
ATOM     13  O   UNL     1      36.540 -26.133 -14.995  0.00  0.00    -0.260 OA
ATOM     14  N   UNL     1      36.680 -24.570 -13.286  0.00  0.00    -0.263 N 
ATOM     15  C   UNL     1      35.239 -24.414 -13.057  0.00  0.00    +0.143 C 
ATOM     16  C   UNL     1      35.159 -23.667 -11.720  0.00  0.00    +0.030 C 
ATOM     17  C   UNL     1      36.448 -22.852 -11.680  0.00  0.00    +0.024 C 
ATOM     18  C   UNL     1      37.460 -23.771 -12.345  0.00  0.00    +0.095 C 
ATOM     19  C   UNL     1      37.201 -25.466 -14.207  0.00  0.00    +0.293 C 
BRANCH  19  20
ATOM     20  C   UNL     1      38.638 -25.621 -14.237  0.00  0.00    -0.007 C 
ATOM     21  C   UNL     1      39.832 -25.750 -14.261  0.00  0.00    -0.081 C 
ATOM     22  C   UNL     1      41.285 -25.907 -14.290  0.00  0.00    +0.090 C 
ENDBRANCH  19  20
ENDBRANCH   5  15
BRANCH   7  23
ATOM     23  C   UNL     1      34.239 -21.734 -17.078  0.00  0.00    +0.028 C 
ATOM     24  C   UNL     1      33.147 -21.316 -17.840  0.00  0.00    +0.002 C 
ATOM     25  C   UNL     1      35.532 -21.375 -17.457  0.00  0.00    +0.002 C 
ATOM     26  C   UNL     1      33.350 -20.539 -18.980  0.00  0.00    +0.005 C 
ATOM     27  C   UNL     1      35.734 -20.598 -18.597  0.00  0.00    +0.005 C 
ATOM     28  C   UNL     1      34.643 -20.180 -19.359  0.00  0.00    +0.054 C 
BRANCH  28  31
ATOM     29  O   UNL     1      35.059 -19.933 -21.634  0.00  0.00    -0.270 OA
ATOM     30  N   UNL     1      34.828 -17.980 -20.353  0.00  0.00    -0.266 N 
ATOM     31  C   UNL     1      34.854 -19.368 -20.547  0.00  0.00    +0.251 C 
ATOM     32  H   UNL     1      34.651 -17.680 -19.432  0.00  0.00    +0.157 HD
ATOM     33  N   UNL     1      34.953 -15.667 -20.896  0.00  0.00    -0.229 NA
ATOM     34  C   UNL     1      35.023 -16.953 -21.309  0.00  0.00    +0.134 C 
ATOM     35  C   UNL     1      35.273 -17.335 -22.617  0.00  0.00    +0.034 C 
ATOM     36  C   UNL     1      35.467 -16.334 -23.562  0.00  0.00    +0.004 C 
ATOM     37  C   UNL     1      35.145 -14.721 -21.843  0.00  0.00    +0.100 C 
ATOM     38  C   UNL     1      35.403 -14.999 -23.176  0.00  0.00    +0.021 C 
ENDBRANCH  28  31
ENDBRANCH   7  23
TORSDOF 4
ENDMDL
MODEL 2
REMARK VINA RESULT:     -10.2      5.379     14.339
REMARK  Name = 71226662
REMARK  4 active torsions:
REMARK  status: ('A' for Active; 'I' for Inactive)
REMARK    1  A    between atoms: C_5  and  C_15
REMARK    2  A    between atoms: C_7  and  C_23
REMARK    3  A    between atoms: C_19  and  C_20
REMARK    4  A    between atoms: C_28  and  C_31
REMARK                            x       y       z     vdW  Elec       q    Type
REMARK                         _______ _______ _______ _____ _____    ______ ____
ROOT
ATOM      1  N   UNL     1      33.789 -10.828 -24.041  0.00  0.00    -0.251 N 
ATOM      2  N   UNL     1      34.281 -11.348 -21.941  0.00  0.00    -0.392 NA
ATOM      3  N   UNL     1      33.576 -12.316 -26.373  0.00  0.00    -0.231 NA
ATOM      4  N   UNL     1      34.101 -14.309 -25.311  0.00  0.00    -0.344 N 
ATOM      5  C   UNL     1      33.964 -10.371 -22.765  0.00  0.00    +0.182 C 
ATOM      6  C   UNL     1      34.009 -12.184 -24.027  0.00  0.00    +0.185 C 
ATOM      7  C   UNL     1      34.312 -12.482 -22.720  0.00  0.00    +0.136 C 
ATOM      8  C   UNL     1      33.460 -10.193 -25.221  0.00  0.00    +0.089 C 
ATOM      9  C   UNL     1      33.893 -12.949 -25.260  0.00  0.00    +0.128 C 
ATOM     10  C   UNL     1      33.365 -10.947 -26.329  0.00  0.00    +0.116 C 
ATOM     11  H   UNL     1      34.011 -14.788 -26.167  0.00  0.00    +0.143 HD
ATOM     12  H   UNL     1      34.338 -14.803 -24.494  0.00  0.00    +0.143 HD
ENDROOT
BRANCH   5  15
ATOM     13  O   UNL     1      36.328  -8.277 -23.662  0.00  0.00    -0.260 OA
ATOM     14  N   UNL     1      34.033  -7.977 -23.497  0.00  0.00    -0.263 N 
ATOM     15  C   UNL     1      33.802  -8.910 -22.389  0.00  0.00    +0.143 C 
ATOM     16  C   UNL     1      32.379  -8.579 -21.922  0.00  0.00    +0.030 C 
ATOM     17  C   UNL     1      31.692  -8.061 -23.182  0.00  0.00    +0.024 C 
ATOM     18  C   UNL     1      32.800  -7.300 -23.892  0.00  0.00    +0.095 C 
ATOM     19  C   UNL     1      35.297  -7.705 -23.998  0.00  0.00    +0.293 C 
BRANCH  19  20
ATOM     20  C   UNL     1      35.402  -6.663 -24.996  0.00  0.00    -0.007 C 
ATOM     21  C   UNL     1      35.489  -5.799 -25.824  0.00  0.00    -0.081 C 
ATOM     22  C   UNL     1      35.595  -4.746 -26.834  0.00  0.00    +0.090 C 
ENDBRANCH  19  20
ENDBRANCH   5  15
BRANCH   7  23
ATOM     23  C   UNL     1      34.623 -13.771 -22.183  0.00  0.00    +0.028 C 
ATOM     24  C   UNL     1      34.524 -13.998 -20.809  0.00  0.00    +0.002 C 
ATOM     25  C   UNL     1      35.025 -14.802 -23.033  0.00  0.00    +0.002 C 
ATOM     26  C   UNL     1      34.828 -15.255 -20.287  0.00  0.00    +0.005 C 
ATOM     27  C   UNL     1      35.328 -16.058 -22.510  0.00  0.00    +0.005 C 
ATOM     28  C   UNL     1      35.230 -16.285 -21.137  0.00  0.00    +0.054 C 
BRANCH  28  31
ATOM     29  O   UNL     1      36.735 -17.942 -20.504  0.00  0.00    -0.270 OA
ATOM     30  N   UNL     1      34.449 -18.386 -20.223  0.00  0.00    -0.266 N 
ATOM     31  C   UNL     1      35.546 -17.596 -20.592  0.00  0.00    +0.251 C 
ATOM     32  H   UNL     1      33.563 -17.975 -20.350  0.00  0.00    +0.157 HD
ATOM     33  N   UNL     1      33.258 -20.277 -19.406  0.00  0.00    -0.229 NA
ATOM     34  C   UNL     1      34.447 -19.700 -19.692  0.00  0.00    +0.134 C 
ATOM     35  C   UNL     1      35.674 -20.313 -19.499  0.00  0.00    +0.034 C 
ATOM     36  C   UNL     1      35.682 -21.602 -18.979  0.00  0.00    +0.004 C 
ATOM     37  C   UNL     1      33.306 -21.531 -18.901  0.00  0.00    +0.100 C 
ATOM     38  C   UNL     1      34.480 -22.230 -18.672  0.00  0.00    +0.021 C 
ENDBRANCH  28  31
ENDBRANCH   7  23
TORSDOF 4
ENDMDL
