MODEL 1
REMARK VINA RESULT:     -13.5      0.000      0.000
REMARK  Name = 76958312
REMARK  3 active torsions:
REMARK  status: ('A' for Active; 'I' for Inactive)
REMARK    1  A    between atoms: C_16  and  C_21
REMARK    2  A    between atoms: C_26  and  N_28
REMARK    3  A    between atoms: N_29  and  C_34
REMARK                            x       y       z     vdW  Elec       q    Type
REMARK                         _______ _______ _______ _____ _____    ______ ____
ROOT
ATOM      1  O   UNL     1      30.792 -22.422 -12.777  0.00  0.00    -0.350 OA
ATOM      2  O   UNL     1      38.734 -24.572 -12.276  0.00  0.00    -0.350 OA
ATOM      3  N   UNL     1      32.028 -23.897 -14.852  0.00  0.00    -0.231 N 
ATOM      4  N   UNL     1      34.283 -23.958 -14.380  0.00  0.00    -0.246 NA
ATOM      5  N   UNL     1      33.430 -22.725 -16.255  0.00  0.00    -0.260 NA
ATOM      6  N   UNL     1      36.582 -23.962 -13.978  0.00  0.00    -0.228 N 
ATOM      7  N   UNL     1      35.788 -22.753 -15.808  0.00  0.00    -0.260 NA
ATOM      8  C   UNL     1      31.711 -24.554 -13.582  0.00  0.00    +0.114 C 
ATOM      9  C   UNL     1      30.861 -23.065 -15.147  0.00  0.00    +0.114 C 
ATOM     10  C   UNL     1      30.266 -25.022 -13.828  0.00  0.00    +0.025 C 
ATOM     11  C   UNL     1      29.705 -24.039 -14.862  0.00  0.00    +0.025 C 
ATOM     12  C   UNL     1      30.878 -21.917 -14.119  0.00  0.00    +0.163 C 
ATOM     13  C   UNL     1      31.755 -23.454 -12.505  0.00  0.00    +0.163 C 
ATOM     14  C   UNL     1      33.297 -23.513 -15.175  0.00  0.00    +0.224 C 
ATOM     15  C   UNL     1      35.501 -23.538 -14.757  0.00  0.00    +0.224 C 
ATOM     16  C   UNL     1      34.704 -22.385 -16.510  0.00  0.00    +0.163 C 
ATOM     17  C   UNL     1      37.944 -23.544 -14.326  0.00  0.00    +0.135 C 
ATOM     18  C   UNL     1      36.351 -24.211 -12.548  0.00  0.00    +0.135 C 
ATOM     19  C   UNL     1      37.445 -25.120 -12.001  0.00  0.00    +0.164 C 
ATOM     20  C   UNL     1      38.954 -24.489 -13.683  0.00  0.00    +0.164 C 
ENDROOT
BRANCH  16  21
ATOM     21  C   UNL     1      34.931 -21.540 -17.653  0.00  0.00    +0.087 C 
ATOM     22  C   UNL     1      36.219 -21.093 -17.945  0.00  0.00    +0.013 C 
ATOM     23  C   UNL     1      33.862 -21.170 -18.470  0.00  0.00    +0.013 C 
ATOM     24  C   UNL     1      36.439 -20.274 -19.053  0.00  0.00    +0.015 C 
ATOM     25  C   UNL     1      34.082 -20.351 -19.578  0.00  0.00    +0.015 C 
ATOM     26  C   UNL     1      35.371 -19.903 -19.869  0.00  0.00    +0.052 C 
BRANCH  26  28
ATOM     27  O   UNL     1      34.036 -17.358 -20.680  0.00  0.00    -0.252 OA
ATOM     28  N   UNL     1      35.590 -19.085 -20.977  0.00  0.00    -0.268 N 
ATOM     29  N   UNL     1      35.468 -17.379 -22.529  0.00  0.00    -0.268 N 
ATOM     30  C   UNL     1      34.936 -17.880 -21.330  0.00  0.00    +0.308 C 
ATOM     31  H   UNL     1      36.295 -19.386 -21.597  0.00  0.00    +0.156 HD
ATOM     32  H   UNL     1      36.189 -17.910 -22.937  0.00  0.00    +0.156 HD
BRANCH  29  34
ATOM     33  N   UNL     1      34.358 -13.879 -24.590  0.00  0.00    -0.242 NA
ATOM     34  C   UNL     1      35.095 -16.203 -23.222  0.00  0.00    +0.055 C 
ATOM     35  C   UNL     1      35.195 -14.964 -22.598  0.00  0.00    +0.035 C 
ATOM     36  C   UNL     1      34.627 -16.281 -24.529  0.00  0.00    +0.035 C 
ATOM     37  C   UNL     1      34.817 -13.843 -23.318  0.00  0.00    +0.100 C 
ATOM     38  C   UNL     1      34.275 -15.100 -25.163  0.00  0.00    +0.100 C 
ENDBRANCH  29  34
ENDBRANCH  26  28
ENDBRANCH  16  21
TORSDOF 3
ENDMDL
