MODEL 1
REMARK VINA RESULT:     -13.2      0.000      0.000
REMARK  Name = 46911863
REMARK  3 active torsions:
REMARK  status: ('A' for Active; 'I' for Inactive)
REMARK    1  A    between atoms: C_5  and  C_18
REMARK    2  A    between atoms: C_7  and  C_12
REMARK    3  A    between atoms: C_18  and  C_20
REMARK                            x       y       z     vdW  Elec       q    Type
REMARK                         _______ _______ _______ _____ _____    ______ ____
ROOT
ATOM      1  N   UNL     1      34.561 -21.430 -17.869  0.00  0.00    -0.190 N 
ATOM      2  N   UNL     1      35.617 -21.814 -17.110  0.00  0.00    -0.162 NA
ATOM      3  N   UNL     1      33.377 -20.514 -19.470  0.00  0.00    -0.126 NA
ATOM      4  N   UNL     1      32.511 -21.146 -18.602  0.00  0.00    -0.127 NA
ATOM      5  C   UNL     1      34.597 -20.695 -19.017  0.00  0.00    +0.228 A 
ATOM      6  C   UNL     1      33.229 -21.694 -17.644  0.00  0.00    +0.187 A 
ATOM      7  C   UNL     1      35.286 -22.507 -16.057  0.00  0.00    +0.104 C 
ATOM      8  C   UNL     1      32.902 -22.458 -16.507  0.00  0.00    +0.042 C 
ATOM      9  C   UNL     1      33.880 -22.883 -15.698  0.00  0.00    +0.024 C 
ENDROOT
BRANCH   7  12
ATOM     10  N   UNL     1      37.492 -24.151 -13.688  0.00  0.00    -0.208 N 
ATOM     11  N   UNL     1      38.319 -23.133 -13.985  0.00  0.00    -0.176 NA
ATOM     12  C   UNL     1      36.356 -22.982 -15.141  0.00  0.00    +0.056 C 
ATOM     13  C   UNL     1      36.303 -24.107 -14.354  0.00  0.00    +0.087 C 
ATOM     14  C   UNL     1      37.619 -22.422 -14.872  0.00  0.00    +0.121 C 
ATOM     15  C   UNL     1      37.906 -25.157 -12.740  0.00  0.00    +0.140 C 
ENDBRANCH   7  12
BRANCH   5  18
ATOM     16  F   UNL     1      36.548 -21.222 -20.272  0.00  0.00    -0.191 F 
ATOM     17  F   UNL     1      36.787 -19.849 -18.635  0.00  0.00    -0.191 F 
ATOM     18  C   UNL     1      35.896 -20.181 -19.638  0.00  0.00    +0.335 C 
BRANCH  18  20
ATOM     19  N   UNL     1      34.997 -15.812 -23.120  0.00  0.00    -0.244 NA
ATOM     20  C   UNL     1      35.656 -19.036 -20.563  0.00  0.00    +0.045 C 
ATOM     21  C   UNL     1      35.110 -19.258 -21.824  0.00  0.00    +0.003 C 
ATOM     22  C   UNL     1      34.881 -18.181 -22.698  0.00  0.00    +0.018 C 
ATOM     23  C   UNL     1      35.975 -17.742 -20.171  0.00  0.00    +0.003 C 
ATOM     24  C   UNL     1      35.203 -16.865 -22.307  0.00  0.00    +0.081 C 
ATOM     25  C   UNL     1      35.748 -16.673 -21.041  0.00  0.00    +0.019 C 
ATOM     26  C   UNL     1      34.333 -18.376 -23.973  0.00  0.00    +0.003 C 
ATOM     27  C   UNL     1      34.119 -17.292 -24.813  0.00  0.00    +0.021 C 
ATOM     28  C   UNL     1      34.465 -16.041 -24.342  0.00  0.00    +0.099 C 
ENDBRANCH  18  20
ENDBRANCH   5  18
TORSDOF 3
ENDMDL
MODEL 2
REMARK VINA RESULT:     -12.9      0.838      1.646
REMARK  Name = 46911863
REMARK  3 active torsions:
REMARK  status: ('A' for Active; 'I' for Inactive)
REMARK    1  A    between atoms: C_5  and  C_18
REMARK    2  A    between atoms: C_7  and  C_12
REMARK    3  A    between atoms: C_18  and  C_20
REMARK                            x       y       z     vdW  Elec       q    Type
REMARK                         _______ _______ _______ _____ _____    ______ ____
ROOT
ATOM      1  N   UNL     1      34.676 -21.280 -18.047  0.00  0.00    -0.190 N 
ATOM      2  N   UNL     1      35.719 -21.622 -17.250  0.00  0.00    -0.162 NA
ATOM      3  N   UNL     1      33.512 -20.392 -19.678  0.00  0.00    -0.126 NA
ATOM      4  N   UNL     1      32.647 -21.093 -18.863  0.00  0.00    -0.127 NA
ATOM      5  C   UNL     1      34.720 -20.515 -19.175  0.00  0.00    +0.228 A 
ATOM      6  C   UNL     1      33.353 -21.623 -17.887  0.00  0.00    +0.187 A 
ATOM      7  C   UNL     1      35.383 -22.358 -16.229  0.00  0.00    +0.104 C 
ATOM      8  C   UNL     1      33.022 -22.432 -16.783  0.00  0.00    +0.042 C 
ATOM      9  C   UNL     1      33.987 -22.822 -15.941  0.00  0.00    +0.024 C 
ENDROOT
BRANCH   7  12
ATOM     10  N   UNL     1      37.597 -23.955 -13.835  0.00  0.00    -0.208 N 
ATOM     11  N   UNL     1      38.333 -22.842 -14.003  0.00  0.00    -0.176 NA
ATOM     12  C   UNL     1      36.438 -22.795 -15.277  0.00  0.00    +0.056 C 
ATOM     13  C   UNL     1      36.453 -23.976 -14.575  0.00  0.00    +0.087 C 
ATOM     14  C   UNL     1      37.619 -22.137 -14.885  0.00  0.00    +0.121 C 
ATOM     15  C   UNL     1      38.053 -24.985 -12.933  0.00  0.00    +0.140 C 
ENDBRANCH   7  12
BRANCH   5  18
ATOM     16  F   UNL     1      36.754 -20.902 -20.347  0.00  0.00    -0.191 F 
ATOM     17  F   UNL     1      36.836 -19.549 -18.678  0.00  0.00    -0.191 F 
ATOM     18  C   UNL     1      36.013 -19.913 -19.727  0.00  0.00    +0.335 C 
BRANCH  18  20
ATOM     19  N   UNL     1      35.007 -15.587 -23.233  0.00  0.00    -0.244 NA
ATOM     20  C   UNL     1      35.747 -18.767 -20.642  0.00  0.00    +0.045 C 
ATOM     21  C   UNL     1      35.547 -17.490 -20.126  0.00  0.00    +0.003 C 
ATOM     22  C   UNL     1      35.297 -16.407 -20.985  0.00  0.00    +0.018 C 
ATOM     23  C   UNL     1      35.697 -18.967 -22.016  0.00  0.00    +0.003 C 
ATOM     24  C   UNL     1      35.245 -16.603 -22.381  0.00  0.00    +0.081 C 
ATOM     25  C   UNL     1      35.447 -17.890 -22.870  0.00  0.00    +0.019 C 
ATOM     26  C   UNL     1      35.093 -15.111 -20.492  0.00  0.00    +0.003 C 
ATOM     27  C   UNL     1      34.849 -14.062 -21.367  0.00  0.00    +0.021 C 
ATOM     28  C   UNL     1      34.816 -14.351 -22.717  0.00  0.00    +0.099 C 
ENDBRANCH  18  20
ENDBRANCH   5  18
TORSDOF 3
ENDMDL
MODEL 3
REMARK VINA RESULT:     -12.6      2.795      9.509
REMARK  Name = 46911863
REMARK  3 active torsions:
REMARK  status: ('A' for Active; 'I' for Inactive)
REMARK    1  A    between atoms: C_5  and  C_18
REMARK    2  A    between atoms: C_7  and  C_12
REMARK    3  A    between atoms: C_18  and  C_20
REMARK                            x       y       z     vdW  Elec       q    Type
REMARK                         _______ _______ _______ _____ _____    ______ ____
ROOT
ATOM      1  N   UNL     1      34.779 -16.812 -23.383  0.00  0.00    -0.190 N 
ATOM      2  N   UNL     1      34.815 -15.500 -23.044  0.00  0.00    -0.162 NA
ATOM      3  N   UNL     1      35.112 -18.978 -23.344  0.00  0.00    -0.126 NA
ATOM      4  N   UNL     1      34.356 -18.679 -24.459  0.00  0.00    -0.127 NA
ATOM      5  C   UNL     1      35.354 -17.851 -22.713  0.00  0.00    +0.228 A 
ATOM      6  C   UNL     1      34.160 -17.377 -24.475  0.00  0.00    +0.187 A 
ATOM      7  C   UNL     1      34.182 -14.722 -23.876  0.00  0.00    +0.104 C 
ATOM      8  C   UNL     1      33.470 -16.515 -25.348  0.00  0.00    +0.042 C 
ATOM      9  C   UNL     1      33.450 -15.201 -25.093  0.00  0.00    +0.024 C 
ENDROOT
BRANCH   7  12
ATOM     10  N   UNL     1      34.013 -11.095 -23.876  0.00  0.00    -0.208 N 
ATOM     11  N   UNL     1      34.223 -11.238 -22.556  0.00  0.00    -0.176 NA
ATOM     12  C   UNL     1      34.155 -13.259 -23.616  0.00  0.00    +0.056 C 
ATOM     13  C   UNL     1      33.964 -12.276 -24.557  0.00  0.00    +0.087 C 
ATOM     14  C   UNL     1      34.310 -12.561 -22.404  0.00  0.00    +0.121 C 
ATOM     15  C   UNL     1      33.863  -9.775 -24.440  0.00  0.00    +0.140 C 
ENDBRANCH   7  12
BRANCH   5  18
ATOM     16  F   UNL     1      35.861 -16.441 -20.865  0.00  0.00    -0.191 F 
ATOM     17  F   UNL     1      37.497 -17.537 -21.729  0.00  0.00    -0.191 F 
ATOM     18  C   UNL     1      36.155 -17.672 -21.423  0.00  0.00    +0.335 C 
BRANCH  18  20
ATOM     19  N   UNL     1      35.292 -21.904 -17.767  0.00  0.00    -0.244 NA
ATOM     20  C   UNL     1      35.917 -18.785 -20.461  0.00  0.00    +0.045 C 
ATOM     21  C   UNL     1      34.618 -19.159 -20.130  0.00  0.00    +0.003 C 
ATOM     22  C   UNL     1      34.390 -20.209 -19.223  0.00  0.00    +0.018 C 
ATOM     23  C   UNL     1      36.991 -19.456 -19.889  0.00  0.00    +0.003 C 
ATOM     24  C   UNL     1      35.475 -20.894 -18.640  0.00  0.00    +0.081 C 
ATOM     25  C   UNL     1      36.764 -20.498 -18.988  0.00  0.00    +0.019 C 
ATOM     26  C   UNL     1      33.093 -20.606 -18.873  0.00  0.00    +0.003 C 
ATOM     27  C   UNL     1      32.901 -21.646 -17.975  0.00  0.00    +0.021 C 
ATOM     28  C   UNL     1      34.024 -22.257 -17.456  0.00  0.00    +0.099 C 
ENDBRANCH  18  20
ENDBRANCH   5  18
TORSDOF 3
ENDMDL
MODEL 4
REMARK VINA RESULT:     -11.4      2.578      8.869
REMARK  Name = 46911863
REMARK  3 active torsions:
REMARK  status: ('A' for Active; 'I' for Inactive)
REMARK    1  A    between atoms: C_5  and  C_18
REMARK    2  A    between atoms: C_7  and  C_12
REMARK    3  A    between atoms: C_18  and  C_20
REMARK                            x       y       z     vdW  Elec       q    Type
REMARK                         _______ _______ _______ _____ _____    ______ ____
ROOT
ATOM      1  N   UNL     1      35.499 -19.558 -20.031  0.00  0.00    -0.190 N 
ATOM      2  N   UNL     1      34.805 -19.069 -21.088  0.00  0.00    -0.162 NA
ATOM      3  N   UNL     1      35.988 -20.637 -18.187  0.00  0.00    -0.126 NA
ATOM      4  N   UNL     1      37.122 -19.976 -18.613  0.00  0.00    -0.127 NA
ATOM      5  C   UNL     1      35.029 -20.376 -19.047  0.00  0.00    +0.228 A 
ATOM      6  C   UNL     1      36.820 -19.331 -19.720  0.00  0.00    +0.187 A 
ATOM      7  C   UNL     1      35.508 -18.299 -21.870  0.00  0.00    +0.104 C 
ATOM      8  C   UNL     1      37.560 -18.508 -20.592  0.00  0.00    +0.042 C 
ATOM      9  C   UNL     1      36.958 -17.980 -21.665  0.00  0.00    +0.024 C 
ENDROOT
BRANCH   7  12
ATOM     10  N   UNL     1      34.141 -16.268 -24.552  0.00  0.00    -0.208 N 
ATOM     11  N   UNL     1      33.693 -17.449 -25.012  0.00  0.00    -0.176 NA
ATOM     12  C   UNL     1      34.857 -17.697 -23.063  0.00  0.00    +0.056 C 
ATOM     13  C   UNL     1      34.844 -16.361 -23.387  0.00  0.00    +0.087 C 
ATOM     14  C   UNL     1      34.133 -18.317 -24.098  0.00  0.00    +0.121 C 
ATOM     15  C   UNL     1      33.860 -15.058 -25.287  0.00  0.00    +0.140 C 
ENDBRANCH   7  12
BRANCH   5  18
ATOM     16  F   UNL     1      33.339 -21.669 -20.110  0.00  0.00    -0.191 F 
ATOM     17  F   UNL     1      32.720 -19.825 -19.194  0.00  0.00    -0.191 F 
ATOM     18  C   UNL     1      33.588 -20.884 -19.000  0.00  0.00    +0.335 C 
BRANCH  18  20
ATOM     19  N   UNL     1      32.514 -23.657 -14.186  0.00  0.00    -0.244 NA
ATOM     20  C   UNL     1      33.295 -21.612 -17.732  0.00  0.00    +0.045 C 
ATOM     21  C   UNL     1      31.991 -21.684 -17.252  0.00  0.00    +0.003 C 
ATOM     22  C   UNL     1      31.710 -22.370 -16.057  0.00  0.00    +0.018 C 
ATOM     23  C   UNL     1      34.322 -22.223 -17.024  0.00  0.00    +0.003 C 
ATOM     24  C   UNL     1      32.748 -22.993 -15.333  0.00  0.00    +0.081 C 
ATOM     25  C   UNL     1      34.043 -22.904 -15.837  0.00  0.00    +0.019 C 
ATOM     26  C   UNL     1      30.407 -22.459 -15.551  0.00  0.00    +0.003 C 
ATOM     27  C   UNL     1      30.163 -23.144 -14.369  0.00  0.00    +0.021 C 
ATOM     28  C   UNL     1      31.242 -23.720 -13.731  0.00  0.00    +0.099 C 
ENDBRANCH  18  20
ENDBRANCH   5  18
TORSDOF 3
ENDMDL
MODEL 5
REMARK VINA RESULT:     -11.3      2.247      3.306
REMARK  Name = 46911863
REMARK  3 active torsions:
REMARK  status: ('A' for Active; 'I' for Inactive)
REMARK    1  A    between atoms: C_5  and  C_18
REMARK    2  A    between atoms: C_7  and  C_12
REMARK    3  A    between atoms: C_18  and  C_20
REMARK                            x       y       z     vdW  Elec       q    Type
REMARK                         _______ _______ _______ _____ _____    ______ ____
ROOT
ATOM      1  N   UNL     1      33.038 -22.581 -15.612  0.00  0.00    -0.190 N 
ATOM      2  N   UNL     1      34.106 -23.010 -14.894  0.00  0.00    -0.162 NA
ATOM      3  N   UNL     1      31.799 -21.902 -17.287  0.00  0.00    -0.126 NA
ATOM      4  N   UNL     1      31.013 -21.929 -16.153  0.00  0.00    -0.127 NA
ATOM      5  C   UNL     1      33.005 -22.296 -16.945  0.00  0.00    +0.228 A 
ATOM      6  C   UNL     1      31.764 -22.338 -15.152  0.00  0.00    +0.187 A 
ATOM      7  C   UNL     1      33.852 -23.197 -13.630  0.00  0.00    +0.104 C 
ATOM      8  C   UNL     1      31.514 -22.564 -13.785  0.00  0.00    +0.042 C 
ATOM      9  C   UNL     1      32.509 -22.990 -12.997  0.00  0.00    +0.024 C 
ENDROOT
BRANCH   7  12
ATOM     10  N   UNL     1      36.887 -24.307 -11.976  0.00  0.00    -0.208 N 
ATOM     11  N   UNL     1      36.097 -24.352 -10.889  0.00  0.00    -0.176 NA
ATOM     12  C   UNL     1      34.944 -23.663 -12.736  0.00  0.00    +0.056 C 
ATOM     13  C   UNL     1      36.245 -23.901 -13.108  0.00  0.00    +0.087 C 
ATOM     14  C   UNL     1      34.911 -23.958 -11.361  0.00  0.00    +0.121 C 
ATOM     15  C   UNL     1      38.279 -24.672 -11.865  0.00  0.00    +0.140 C 
ENDBRANCH   7  12
BRANCH   5  18
ATOM     16  F   UNL     1      34.150 -23.622 -18.554  0.00  0.00    -0.191 F 
ATOM     17  F   UNL     1      35.358 -22.612 -17.091  0.00  0.00    -0.191 F 
ATOM     18  C   UNL     1      34.223 -22.429 -17.859  0.00  0.00    +0.335 C 
BRANCH  18  20
ATOM     19  N   UNL     1      34.706 -18.004 -21.352  0.00  0.00    -0.244 NA
ATOM     20  C   UNL     1      34.361 -21.263 -18.778  0.00  0.00    +0.045 C 
ATOM     21  C   UNL     1      35.618 -20.733 -19.052  0.00  0.00    +0.003 C 
ATOM     22  C   UNL     1      35.752 -19.634 -19.919  0.00  0.00    +0.018 C 
ATOM     23  C   UNL     1      33.235 -20.700 -19.365  0.00  0.00    +0.003 C 
ATOM     24  C   UNL     1      34.613 -19.058 -20.518  0.00  0.00    +0.081 C 
ATOM     25  C   UNL     1      33.369 -19.607 -20.225  0.00  0.00    +0.019 C 
ATOM     26  C   UNL     1      37.005 -19.081 -20.213  0.00  0.00    +0.003 C 
ATOM     27  C   UNL     1      37.104 -17.996 -21.072  0.00  0.00    +0.021 C 
ATOM     28  C   UNL     1      35.934 -17.500 -21.611  0.00  0.00    +0.099 C 
ENDBRANCH  18  20
ENDBRANCH   5  18
TORSDOF 3
ENDMDL
MODEL 6
REMARK VINA RESULT:     -11.2      4.870      8.290
REMARK  Name = 46911863
REMARK  3 active torsions:
REMARK  status: ('A' for Active; 'I' for Inactive)
REMARK    1  A    between atoms: C_5  and  C_18
REMARK    2  A    between atoms: C_7  and  C_12
REMARK    3  A    between atoms: C_18  and  C_20
REMARK                            x       y       z     vdW  Elec       q    Type
REMARK                         _______ _______ _______ _____ _____    ______ ____
ROOT
ATOM      1  N   UNL     1      34.409 -15.600 -23.362  0.00  0.00    -0.190 N 
ATOM      2  N   UNL     1      34.819 -16.247 -22.242  0.00  0.00    -0.162 NA
ATOM      3  N   UNL     1      33.727 -14.014 -24.712  0.00  0.00    -0.126 NA
ATOM      4  N   UNL     1      33.818 -15.186 -25.435  0.00  0.00    -0.127 NA
ATOM      5  C   UNL     1      34.085 -14.280 -23.476  0.00  0.00    +0.228 A 
ATOM      6  C   UNL     1      34.228 -16.132 -24.617  0.00  0.00    +0.187 A 
ATOM      7  C   UNL     1      35.053 -17.516 -22.423  0.00  0.00    +0.104 C 
ATOM      8  C   UNL     1      34.505 -17.502 -24.787  0.00  0.00    +0.042 C 
ATOM      9  C   UNL     1      34.917 -18.224 -23.737  0.00  0.00    +0.024 C 
ENDROOT
BRANCH   7  12
ATOM     10  N   UNL     1      35.589 -19.825 -19.672  0.00  0.00    -0.208 N 
ATOM     11  N   UNL     1      36.760 -19.175 -19.556  0.00  0.00    -0.176 NA
ATOM     12  C   UNL     1      35.504 -18.337 -21.269  0.00  0.00    +0.056 C 
ATOM     13  C   UNL     1      34.800 -19.361 -20.683  0.00  0.00    +0.087 C 
ATOM     14  C   UNL     1      36.702 -18.267 -20.533  0.00  0.00    +0.121 C 
ATOM     15  C   UNL     1      35.275 -20.905 -18.768  0.00  0.00    +0.140 C 
ENDBRANCH   7  12
BRANCH   5  18
ATOM     16  F   UNL     1      35.371 -13.407 -21.676  0.00  0.00    -0.191 F 
ATOM     17  F   UNL     1      33.275 -13.716 -21.311  0.00  0.00    -0.191 F 
ATOM     18  C   UNL     1      34.144 -13.301 -22.304  0.00  0.00    +0.335 C 
BRANCH  18  20
ATOM     19  N   UNL     1      33.102  -7.992 -23.962  0.00  0.00    -0.244 NA
ATOM     20  C   UNL     1      33.863 -11.901 -22.733  0.00  0.00    +0.045 C 
ATOM     21  C   UNL     1      32.962 -11.117 -22.017  0.00  0.00    +0.003 C 
ATOM     22  C   UNL     1      32.695  -9.797 -22.418  0.00  0.00    +0.018 C 
ATOM     23  C   UNL     1      34.498 -11.371 -23.849  0.00  0.00    +0.003 C 
ATOM     24  C   UNL     1      33.336  -9.253 -23.550  0.00  0.00    +0.081 C 
ATOM     25  C   UNL     1      34.231 -10.059 -24.247  0.00  0.00    +0.019 C 
ATOM     26  C   UNL     1      31.793  -8.985 -21.716  0.00  0.00    +0.003 C 
ATOM     27  C   UNL     1      31.551  -7.686 -22.138  0.00  0.00    +0.021 C 
ATOM     28  C   UNL     1      32.226  -7.241 -23.257  0.00  0.00    +0.099 C 
ENDBRANCH  18  20
ENDBRANCH   5  18
TORSDOF 3
ENDMDL
MODEL 7
REMARK VINA RESULT:     -11.0      5.087      8.587
REMARK  Name = 46911863
REMARK  3 active torsions:
REMARK  status: ('A' for Active; 'I' for Inactive)
REMARK    1  A    between atoms: C_5  and  C_18
REMARK    2  A    between atoms: C_7  and  C_12
REMARK    3  A    between atoms: C_18  and  C_20
REMARK                            x       y       z     vdW  Elec       q    Type
REMARK                         _______ _______ _______ _____ _____    ______ ____
ROOT
ATOM      1  N   UNL     1      34.245 -15.087 -23.285  0.00  0.00    -0.190 N 
ATOM      2  N   UNL     1      34.697 -15.810 -22.231  0.00  0.00    -0.162 NA
ATOM      3  N   UNL     1      33.496 -13.415 -24.488  0.00  0.00    -0.126 NA
ATOM      4  N   UNL     1      33.589 -14.525 -25.303  0.00  0.00    -0.127 NA
ATOM      5  C   UNL     1      33.892 -13.769 -23.286  0.00  0.00    +0.228 A 
ATOM      6  C   UNL     1      34.040 -15.523 -24.573  0.00  0.00    +0.187 A 
ATOM      7  C   UNL     1      34.950 -17.056 -22.516  0.00  0.00    +0.104 C 
ATOM      8  C   UNL     1      34.338 -16.870 -24.857  0.00  0.00    +0.042 C 
ATOM      9  C   UNL     1      34.792 -17.663 -23.878  0.00  0.00    +0.024 C 
ENDROOT
BRANCH   7  12
ATOM     10  N   UNL     1      35.599 -19.553 -19.961  0.00  0.00    -0.208 N 
ATOM     11  N   UNL     1      36.771 -18.905 -19.841  0.00  0.00    -0.176 NA
ATOM     12  C   UNL     1      35.448 -17.955 -21.442  0.00  0.00    +0.056 C 
ATOM     13  C   UNL     1      34.771 -19.024 -20.906  0.00  0.00    +0.087 C 
ATOM     14  C   UNL     1      36.672 -17.929 -20.747  0.00  0.00    +0.121 C 
ATOM     15  C   UNL     1      35.325 -20.699 -19.127  0.00  0.00    +0.140 C 
ENDBRANCH   7  12
BRANCH   5  18
ATOM     16  F   UNL     1      35.174 -13.085 -21.403  0.00  0.00    -0.191 F 
ATOM     17  F   UNL     1      33.060 -13.336 -21.101  0.00  0.00    -0.191 F 
ATOM     18  C   UNL     1      33.965 -12.883 -22.043  0.00  0.00    +0.335 C 
BRANCH  18  20
ATOM     19  N   UNL     1      33.103  -7.426 -23.267  0.00  0.00    -0.244 NA
ATOM     20  C   UNL     1      33.747 -11.445 -22.371  0.00  0.00    +0.045 C 
ATOM     21  C   UNL     1      34.682 -10.752 -23.134  0.00  0.00    +0.003 C 
ATOM     22  C   UNL     1      34.480  -9.396 -23.446  0.00  0.00    +0.018 C 
ATOM     23  C   UNL     1      32.610 -10.789 -21.916  0.00  0.00    +0.003 C 
ATOM     24  C   UNL     1      33.328  -8.724 -22.988  0.00  0.00    +0.081 C 
ATOM     25  C   UNL     1      32.410  -9.442 -22.226  0.00  0.00    +0.019 C 
ATOM     26  C   UNL     1      35.404  -8.674 -24.212  0.00  0.00    +0.003 C 
ATOM     27  C   UNL     1      35.175  -7.337 -24.503  0.00  0.00    +0.021 C 
ATOM     28  C   UNL     1      34.020  -6.765 -24.011  0.00  0.00    +0.099 C 
ENDBRANCH  18  20
ENDBRANCH   5  18
TORSDOF 3
ENDMDL
MODEL 8
REMARK VINA RESULT:     -10.9      1.695      8.815
REMARK  Name = 46911863
REMARK  3 active torsions:
REMARK  status: ('A' for Active; 'I' for Inactive)
REMARK    1  A    between atoms: C_5  and  C_18
REMARK    2  A    between atoms: C_7  and  C_12
REMARK    3  A    between atoms: C_18  and  C_20
REMARK                            x       y       z     vdW  Elec       q    Type
REMARK                         _______ _______ _______ _____ _____    ______ ____
ROOT
ATOM      1  N   UNL     1      34.994 -21.084 -18.025  0.00  0.00    -0.190 N 
ATOM      2  N   UNL     1      35.579 -20.181 -18.851  0.00  0.00    -0.162 NA
ATOM      3  N   UNL     1      34.695 -22.521 -16.398  0.00  0.00    -0.126 NA
ATOM      4  N   UNL     1      33.520 -22.433 -17.116  0.00  0.00    -0.127 NA
ATOM      5  C   UNL     1      35.564 -21.707 -16.955  0.00  0.00    +0.228 A 
ATOM      6  C   UNL     1      33.708 -21.568 -18.091  0.00  0.00    +0.187 A 
ATOM      7  C   UNL     1      34.798 -19.753 -19.802  0.00  0.00    +0.104 C 
ATOM      8  C   UNL     1      32.881 -21.076 -19.119  0.00  0.00    +0.042 C 
ATOM      9  C   UNL     1      33.372 -20.178 -19.983  0.00  0.00    +0.024 C 
ENDROOT
BRANCH   7  12
ATOM     10  N   UNL     1      35.499 -17.371 -22.452  0.00  0.00    -0.208 N 
ATOM     11  N   UNL     1      36.709 -17.311 -21.869  0.00  0.00    -0.176 NA
ATOM     12  C   UNL     1      35.325 -18.762 -20.777  0.00  0.00    +0.056 C 
ATOM     13  C   UNL     1      34.633 -18.226 -21.837  0.00  0.00    +0.087 C 
ATOM     14  C   UNL     1      36.596 -18.163 -20.847  0.00  0.00    +0.121 C 
ATOM     15  C   UNL     1      35.226 -16.569 -23.620  0.00  0.00    +0.140 C 
ENDBRANCH   7  12
BRANCH   5  18
ATOM     16  F   UNL     1      37.195 -20.109 -16.290  0.00  0.00    -0.191 F 
ATOM     17  F   UNL     1      37.860 -21.699 -17.575  0.00  0.00    -0.191 F 
ATOM     18  C   UNL     1      37.007 -21.460 -16.514  0.00  0.00    +0.335 C 
BRANCH  18  20
ATOM     19  N   UNL     1      38.422 -24.562 -11.998  0.00  0.00    -0.244 NA
ATOM     20  C   UNL     1      37.371 -22.274 -15.319  0.00  0.00    +0.045 C 
ATOM     21  C   UNL     1      36.552 -22.270 -14.194  0.00  0.00    +0.003 C 
ATOM     22  C   UNL     1      36.892 -23.037 -13.065  0.00  0.00    +0.018 C 
ATOM     23  C   UNL     1      38.530 -23.040 -15.322  0.00  0.00    +0.003 C 
ATOM     24  C   UNL     1      38.067 -23.817 -13.062  0.00  0.00    +0.081 C 
ATOM     25  C   UNL     1      38.867 -23.801 -14.200  0.00  0.00    +0.019 C 
ATOM     26  C   UNL     1      36.085 -23.052 -11.919  0.00  0.00    +0.003 C 
ATOM     27  C   UNL     1      36.448 -23.819 -10.822  0.00  0.00    +0.021 C 
ATOM     28  C   UNL     1      37.616 -24.550 -10.911  0.00  0.00    +0.099 C 
ENDBRANCH  18  20
ENDBRANCH   5  18
TORSDOF 3
ENDMDL
MODEL 9
REMARK VINA RESULT:     -10.7      4.319      7.131
REMARK  Name = 46911863
REMARK  3 active torsions:
REMARK  status: ('A' for Active; 'I' for Inactive)
REMARK    1  A    between atoms: C_5  and  C_18
REMARK    2  A    between atoms: C_7  and  C_12
REMARK    3  A    between atoms: C_18  and  C_20
REMARK                            x       y       z     vdW  Elec       q    Type
REMARK                         _______ _______ _______ _____ _____    ______ ____
ROOT
ATOM      1  N   UNL     1      34.866 -16.257 -21.983  0.00  0.00    -0.190 N 
ATOM      2  N   UNL     1      34.952 -17.091 -20.917  0.00  0.00    -0.162 NA
ATOM      3  N   UNL     1      34.610 -14.443 -23.185  0.00  0.00    -0.126 NA
ATOM      4  N   UNL     1      34.836 -15.499 -24.043  0.00  0.00    -0.127 NA
ATOM      5  C   UNL     1      34.632 -14.914 -21.959  0.00  0.00    +0.228 A 
ATOM      6  C   UNL     1      34.989 -16.585 -23.314  0.00  0.00    +0.187 A 
ATOM      7  C   UNL     1      35.175 -18.334 -21.236  0.00  0.00    +0.104 C 
ATOM      8  C   UNL     1      35.246 -17.933 -23.629  0.00  0.00    +0.042 C 
ATOM      9  C   UNL     1      35.349 -18.830 -22.640  0.00  0.00    +0.024 C 
ENDROOT
BRANCH   7  12
ATOM     10  N   UNL     1      34.810 -20.885 -18.678  0.00  0.00    -0.208 N 
ATOM     11  N   UNL     1      36.134 -20.708 -18.529  0.00  0.00    -0.176 NA
ATOM     12  C   UNL     1      35.286 -19.348 -20.155  0.00  0.00    +0.056 C 
ATOM     13  C   UNL     1      34.254 -20.094 -19.639  0.00  0.00    +0.087 C 
ATOM     14  C   UNL     1      36.419 -19.768 -19.433  0.00  0.00    +0.121 C 
ATOM     15  C   UNL     1      34.118 -21.847 -17.855  0.00  0.00    +0.140 C 
ENDBRANCH   7  12
BRANCH   5  18
ATOM     16  F   UNL     1      35.661 -13.812 -20.118  0.00  0.00    -0.191 F 
ATOM     17  F   UNL     1      33.886 -14.951 -19.700  0.00  0.00    -0.191 F 
ATOM     18  C   UNL     1      34.430 -14.124 -20.665  0.00  0.00    +0.335 C 
BRANCH  18  20
ATOM     19  N   UNL     1      31.246  -9.514 -21.456  0.00  0.00    -0.244 NA
ATOM     20  C   UNL     1      33.598 -12.906 -20.881  0.00  0.00    +0.045 C 
ATOM     21  C   UNL     1      33.966 -11.968 -21.841  0.00  0.00    +0.003 C 
ATOM     22  C   UNL     1      33.183 -10.819 -22.048  0.00  0.00    +0.018 C 
ATOM     23  C   UNL     1      32.451 -12.700 -20.125  0.00  0.00    +0.003 C 
ATOM     24  C   UNL     1      32.018 -10.604 -21.284  0.00  0.00    +0.081 C 
ATOM     25  C   UNL     1      31.674 -11.558 -20.330  0.00  0.00    +0.019 C 
ATOM     26  C   UNL     1      33.530  -9.858 -23.008  0.00  0.00    +0.003 C 
ATOM     27  C   UNL     1      32.736  -8.735 -23.188  0.00  0.00    +0.021 C 
ATOM     28  C   UNL     1      31.615  -8.611 -22.394  0.00  0.00    +0.099 C 
ENDBRANCH  18  20
ENDBRANCH   5  18
TORSDOF 3
ENDMDL
