MODEL 1
REMARK VINA RESULT:     -11.4      0.000      0.000
REMARK  Name = 5288708
REMARK  4 active torsions:
REMARK  status: ('A' for Active; 'I' for Inactive)
REMARK    1  A    between atoms: N_1  and  C_9
REMARK    2  A    between atoms: N_1  and  C_16
REMARK    3  A    between atoms: C_15  and  S_21
REMARK    4  A    between atoms: S_21  and  N_24
REMARK                            x       y       z     vdW  Elec       q    Type
REMARK                         _______ _______ _______ _____ _____    ______ ____
ROOT
ATOM      1  N   UNL     1      36.426 -18.001 -20.984  0.00  0.00    -0.311 N 
ATOM      2  H   UNL     1      37.342 -17.775 -20.705  0.00  0.00    +0.152 HD
ENDROOT
BRANCH   1   9
ATOM      3  O   UNL     1      35.402 -15.674 -19.589  0.00  0.00    -0.270 OA
ATOM      4  N   UNL     1      34.446 -14.161 -21.131  0.00  0.00    -0.280 N 
ATOM      5  C   UNL     1      34.797 -15.307 -23.094  0.00  0.00    +0.019 C 
ATOM      6  C   UNL     1      35.331 -16.092 -21.986  0.00  0.00    +0.069 C 
ATOM      7  C   UNL     1      34.273 -14.146 -22.519  0.00  0.00    +0.051 C 
ATOM      8  C   UNL     1      35.092 -15.330 -20.714  0.00  0.00    +0.251 C 
ATOM      9  C   UNL     1      35.933 -17.282 -22.024  0.00  0.00    +0.066 C 
ATOM     10  C   UNL     1      34.735 -15.509 -24.460  0.00  0.00    +0.001 C 
ATOM     11  C   UNL     1      33.675 -13.153 -23.272  0.00  0.00    +0.015 C 
ATOM     12  C   UNL     1      34.135 -14.515 -25.242  0.00  0.00    +0.000 C 
ATOM     13  C   UNL     1      33.609 -13.349 -24.653  0.00  0.00    +0.001 C 
ATOM     14  H   UNL     1      34.152 -13.443 -20.526  0.00  0.00    +0.155 HD
ENDBRANCH   1   9
BRANCH   1  16
ATOM     15  C   UNL     1      34.555 -21.057 -18.792  0.00  0.00    +0.122 C 
ATOM     16  C   UNL     1      35.800 -19.023 -20.251  0.00  0.00    +0.048 C 
ATOM     17  C   UNL     1      33.789 -20.180 -19.560  0.00  0.00    +0.021 C 
ATOM     18  C   UNL     1      35.943 -20.919 -18.752  0.00  0.00    +0.021 C 
ATOM     19  C   UNL     1      34.411 -19.165 -20.288  0.00  0.00    +0.016 C 
ATOM     20  C   UNL     1      36.564 -19.904 -19.480  0.00  0.00    +0.016 C 
BRANCH  15  21
ATOM     21  S   UNL     1      33.778 -22.326 -17.880  0.00  0.00    +0.060 S 
ATOM     22  O   UNL     1      32.448 -21.877 -17.488  0.00  0.00    -0.153 OA
ATOM     23  O   UNL     1      33.919 -23.565 -18.634  0.00  0.00    -0.153 OA
BRANCH  21  24
ATOM     24  N   UNL     1      34.755 -22.426 -16.480  0.00  0.00    -0.178 NA
ATOM     25  C   UNL     1      34.147 -22.765 -15.186  0.00  0.00    +0.110 C 
ATOM     26  H   UNL     1      35.201 -21.516 -16.366  0.00  0.00    +0.149 HD
ENDBRANCH  21  24
ENDBRANCH  15  21
ENDBRANCH   1  16
TORSDOF 4
ENDMDL
MODEL 2
REMARK VINA RESULT:     -11.4      3.982      6.792
REMARK  Name = 5288708
REMARK  4 active torsions:
REMARK  status: ('A' for Active; 'I' for Inactive)
REMARK    1  A    between atoms: N_1  and  C_9
REMARK    2  A    between atoms: N_1  and  C_16
REMARK    3  A    between atoms: C_15  and  S_21
REMARK    4  A    between atoms: S_21  and  N_24
REMARK                            x       y       z     vdW  Elec       q    Type
REMARK                         _______ _______ _______ _____ _____    ______ ____
ROOT
ATOM      1  N   UNL     1      34.744 -22.444 -16.309  0.00  0.00    -0.311 N 
ATOM      2  H   UNL     1      33.900 -22.879 -16.566  0.00  0.00    +0.152 HD
ENDROOT
BRANCH   1   9
ATOM      3  O   UNL     1      32.408 -21.703 -17.859  0.00  0.00    -0.270 OA
ATOM      4  N   UNL     1      33.036 -20.289 -19.644  0.00  0.00    -0.280 N 
ATOM      5  C   UNL     1      35.305 -20.169 -19.287  0.00  0.00    +0.019 C 
ATOM      6  C   UNL     1      34.710 -21.019 -18.262  0.00  0.00    +0.069 C 
ATOM      7  C   UNL     1      34.246 -19.752 -20.099  0.00  0.00    +0.051 C 
ATOM      8  C   UNL     1      33.230 -21.087 -18.511  0.00  0.00    +0.251 C 
ATOM      9  C   UNL     1      35.312 -21.655 -17.257  0.00  0.00    +0.066 C 
ATOM     10  C   UNL     1      36.599 -19.759 -19.550  0.00  0.00    +0.001 C 
ATOM     11  C   UNL     1      34.430 -18.923 -21.189  0.00  0.00    +0.015 C 
ATOM     12  C   UNL     1      36.809 -18.919 -20.649  0.00  0.00    +0.000 C 
ATOM     13  C   UNL     1      35.734 -18.506 -21.461  0.00  0.00    +0.001 C 
ATOM     14  H   UNL     1      32.162 -20.126 -20.067  0.00  0.00    +0.155 HD
ENDBRANCH   1   9
BRANCH   1  16
ATOM     15  C   UNL     1      36.114 -23.274 -12.426  0.00  0.00    +0.122 C 
ATOM     16  C   UNL     1      35.202 -22.721 -15.011  0.00  0.00    +0.048 C 
ATOM     17  C   UNL     1      34.797 -23.565 -12.778  0.00  0.00    +0.021 C 
ATOM     18  C   UNL     1      36.978 -22.707 -13.365  0.00  0.00    +0.021 C 
ATOM     19  C   UNL     1      34.342 -23.290 -14.068  0.00  0.00    +0.016 C 
ATOM     20  C   UNL     1      36.523 -22.431 -14.654  0.00  0.00    +0.016 C 
BRANCH  15  21
ATOM     21  S   UNL     1      36.684 -23.618 -10.812  0.00  0.00    +0.060 S 
ATOM     22  O   UNL     1      37.283 -22.410 -10.259  0.00  0.00    -0.153 OA
ATOM     23  O   UNL     1      35.603 -24.274 -10.090  0.00  0.00    -0.153 OA
BRANCH  21  24
ATOM     24  N   UNL     1      37.924 -24.761 -11.096  0.00  0.00    -0.178 NA
ATOM     25  C   UNL     1      37.675 -25.904 -11.985  0.00  0.00    +0.110 C 
ATOM     26  H   UNL     1      38.183 -25.146 -10.188  0.00  0.00    +0.149 HD
ENDBRANCH  21  24
ENDBRANCH  15  21
ENDBRANCH   1  16
TORSDOF 4
ENDMDL
MODEL 3
REMARK VINA RESULT:     -11.0      1.486      1.875
REMARK  Name = 5288708
REMARK  4 active torsions:
REMARK  status: ('A' for Active; 'I' for Inactive)
REMARK    1  A    between atoms: N_1  and  C_9
REMARK    2  A    between atoms: N_1  and  C_16
REMARK    3  A    between atoms: C_15  and  S_21
REMARK    4  A    between atoms: S_21  and  N_24
REMARK                            x       y       z     vdW  Elec       q    Type
REMARK                         _______ _______ _______ _____ _____    ______ ____
ROOT
ATOM      1  N   UNL     1      36.419 -18.158 -21.069  0.00  0.00    -0.311 N 
ATOM      2  H   UNL     1      37.297 -18.405 -21.436  0.00  0.00    +0.152 HD
ENDROOT
BRANCH   1   9
ATOM      3  O   UNL     1      35.179 -18.672 -23.639  0.00  0.00    -0.270 OA
ATOM      4  N   UNL     1      34.272 -16.673 -24.515  0.00  0.00    -0.280 N 
ATOM      5  C   UNL     1      34.832 -15.205 -22.836  0.00  0.00    +0.019 C 
ATOM      6  C   UNL     1      35.314 -16.535 -22.481  0.00  0.00    +0.069 C 
ATOM      7  C   UNL     1      34.208 -15.346 -24.079  0.00  0.00    +0.051 C 
ATOM      8  C   UNL     1      34.941 -17.479 -23.587  0.00  0.00    +0.251 C 
ATOM      9  C   UNL     1      35.977 -16.914 -21.387  0.00  0.00    +0.066 C 
ATOM     10  C   UNL     1      34.890 -13.973 -22.211  0.00  0.00    +0.001 C 
ATOM     11  C   UNL     1      33.624 -14.281 -24.739  0.00  0.00    +0.015 C 
ATOM     12  C   UNL     1      34.304 -12.881 -22.861  0.00  0.00    +0.000 C 
ATOM     13  C   UNL     1      33.678 -13.034 -24.113  0.00  0.00    +0.001 C 
ATOM     14  H   UNL     1      33.896 -16.998 -25.364  0.00  0.00    +0.155 HD
ENDBRANCH   1   9
BRANCH   1  16
ATOM     15  C   UNL     1      34.535 -21.086 -18.720  0.00  0.00    +0.122 C 
ATOM     16  C   UNL     1      35.789 -19.137 -20.284  0.00  0.00    +0.048 C 
ATOM     17  C   UNL     1      33.770 -20.222 -19.503  0.00  0.00    +0.021 C 
ATOM     18  C   UNL     1      35.926 -20.979 -18.718  0.00  0.00    +0.021 C 
ATOM     19  C   UNL     1      34.396 -19.250 -20.284  0.00  0.00    +0.016 C 
ATOM     20  C   UNL     1      36.552 -20.006 -19.497  0.00  0.00    +0.016 C 
BRANCH  15  21
ATOM     21  S   UNL     1      33.752 -22.303 -17.743  0.00  0.00    +0.060 S 
ATOM     22  O   UNL     1      32.438 -21.814 -17.347  0.00  0.00    -0.153 OA
ATOM     23  O   UNL     1      33.859 -23.574 -18.447  0.00  0.00    -0.153 OA
BRANCH  21  24
ATOM     24  N   UNL     1      34.753 -22.362 -16.358  0.00  0.00    -0.178 NA
ATOM     25  C   UNL     1      34.186 -22.767 -15.063  0.00  0.00    +0.110 C 
ATOM     26  H   UNL     1      35.137 -21.426 -16.231  0.00  0.00    +0.149 HD
ENDBRANCH  21  24
ENDBRANCH  15  21
ENDBRANCH   1  16
TORSDOF 4
ENDMDL
MODEL 4
REMARK VINA RESULT:     -10.9      3.834      6.447
REMARK  Name = 5288708
REMARK  4 active torsions:
REMARK  status: ('A' for Active; 'I' for Inactive)
REMARK    1  A    between atoms: N_1  and  C_9
REMARK    2  A    between atoms: N_1  and  C_16
REMARK    3  A    between atoms: C_15  and  S_21
REMARK    4  A    between atoms: S_21  and  N_24
REMARK                            x       y       z     vdW  Elec       q    Type
REMARK                         _______ _______ _______ _____ _____    ______ ____
ROOT
ATOM      1  N   UNL     1      35.130 -22.126 -16.662  0.00  0.00    -0.311 N 
ATOM      2  H   UNL     1      34.170 -22.336 -16.714  0.00  0.00    +0.152 HD
ENDROOT
BRANCH   1   9
ATOM      3  O   UNL     1      32.708 -21.630 -18.177  0.00  0.00    -0.270 OA
ATOM      4  N   UNL     1      33.165 -20.175 -19.981  0.00  0.00    -0.280 N 
ATOM      5  C   UNL     1      35.416 -19.830 -19.663  0.00  0.00    +0.019 C 
ATOM      6  C   UNL     1      34.924 -20.727 -18.623  0.00  0.00    +0.069 C 
ATOM      7  C   UNL     1      34.308 -19.526 -20.459  0.00  0.00    +0.051 C 
ATOM      8  C   UNL     1      33.454 -20.941 -18.846  0.00  0.00    +0.251 C 
ATOM      9  C   UNL     1      35.603 -21.293 -17.624  0.00  0.00    +0.066 C 
ATOM     10  C   UNL     1      36.659 -19.298 -19.951  0.00  0.00    +0.001 C 
ATOM     11  C   UNL     1      34.392 -18.691 -21.557  0.00  0.00    +0.015 C 
ATOM     12  C   UNL     1      36.767 -18.449 -21.058  0.00  0.00    +0.000 C 
ATOM     13  C   UNL     1      35.644 -18.150 -21.854  0.00  0.00    +0.001 C 
ATOM     14  H   UNL     1      32.272 -20.102 -20.389  0.00  0.00    +0.155 HD
ENDBRANCH   1   9
BRANCH   1  16
ATOM     15  C   UNL     1      37.225 -23.930 -13.499  0.00  0.00    +0.122 C 
ATOM     16  C   UNL     1      35.830 -22.729 -15.605  0.00  0.00    +0.048 C 
ATOM     17  C   UNL     1      37.866 -23.005 -14.323  0.00  0.00    +0.021 C 
ATOM     18  C   UNL     1      35.887 -24.255 -13.725  0.00  0.00    +0.021 C 
ATOM     19  C   UNL     1      37.170 -22.405 -15.374  0.00  0.00    +0.016 C 
ATOM     20  C   UNL     1      35.191 -23.657 -14.776  0.00  0.00    +0.016 C 
BRANCH  15  21
ATOM     21  S   UNL     1      38.095 -24.680 -12.185  0.00  0.00    +0.060 S 
ATOM     22  O   UNL     1      37.208 -25.618 -11.510  0.00  0.00    -0.153 OA
ATOM     23  O   UNL     1      39.370 -25.154 -12.710  0.00  0.00    -0.153 OA
BRANCH  21  24
ATOM     24  N   UNL     1      38.394 -23.360 -11.140  0.00  0.00    -0.178 NA
ATOM     25  C   UNL     1      37.323 -22.393 -10.860  0.00  0.00    +0.110 C 
ATOM     26  H   UNL     1      39.168 -22.834 -11.543  0.00  0.00    +0.149 HD
ENDBRANCH  21  24
ENDBRANCH  15  21
ENDBRANCH   1  16
TORSDOF 4
ENDMDL
MODEL 5
REMARK VINA RESULT:     -10.7      2.749      9.294
REMARK  Name = 5288708
REMARK  4 active torsions:
REMARK  status: ('A' for Active; 'I' for Inactive)
REMARK    1  A    between atoms: N_1  and  C_9
REMARK    2  A    between atoms: N_1  and  C_16
REMARK    3  A    between atoms: C_15  and  S_21
REMARK    4  A    between atoms: S_21  and  N_24
REMARK                            x       y       z     vdW  Elec       q    Type
REMARK                         _______ _______ _______ _____ _____    ______ ____
ROOT
ATOM      1  N   UNL     1      34.747 -22.026 -17.707  0.00  0.00    -0.311 N 
ATOM      2  H   UNL     1      35.489 -22.650 -17.538  0.00  0.00    +0.152 HD
ENDROOT
BRANCH   1   9
ATOM      3  O   UNL     1      35.816 -23.456 -15.422  0.00  0.00    -0.270 OA
ATOM      4  N   UNL     1      34.069 -24.038 -13.942  0.00  0.00    -0.280 N 
ATOM      5  C   UNL     1      32.270 -23.156 -15.071  0.00  0.00    +0.019 C 
ATOM      6  C   UNL     1      33.484 -22.895 -15.838  0.00  0.00    +0.069 C 
ATOM      7  C   UNL     1      32.683 -23.851 -13.930  0.00  0.00    +0.051 C 
ATOM      8  C   UNL     1      34.646 -23.479 -15.087  0.00  0.00    +0.251 C 
ATOM      9  C   UNL     1      33.610 -22.261 -17.005  0.00  0.00    +0.066 C 
ATOM     10  C   UNL     1      30.935 -22.858 -15.271  0.00  0.00    +0.001 C 
ATOM     11  C   UNL     1      31.795 -24.271 -12.958  0.00  0.00    +0.015 C 
ATOM     12  C   UNL     1      30.019 -23.273 -14.299  0.00  0.00    +0.000 C 
ATOM     13  C   UNL     1      30.445 -23.974 -13.154  0.00  0.00    +0.001 C 
ATOM     14  H   UNL     1      34.573 -24.504 -13.236  0.00  0.00    +0.155 HD
ENDBRANCH   1   9
BRANCH   1  16
ATOM     15  C   UNL     1      35.514 -18.994 -20.512  0.00  0.00    +0.122 C 
ATOM     16  C   UNL     1      35.003 -21.012 -18.645  0.00  0.00    +0.048 C 
ATOM     17  C   UNL     1      34.203 -19.406 -20.270  0.00  0.00    +0.021 C 
ATOM     18  C   UNL     1      36.570 -19.589 -19.820  0.00  0.00    +0.021 C 
ATOM     19  C   UNL     1      33.949 -20.413 -19.338  0.00  0.00    +0.016 C 
ATOM     20  C   UNL     1      36.316 -20.596 -18.889  0.00  0.00    +0.016 C 
BRANCH  15  21
ATOM     21  S   UNL     1      35.833 -17.735 -21.677  0.00  0.00    +0.060 S 
ATOM     22  O   UNL     1      37.266 -17.690 -21.938  0.00  0.00    -0.153 OA
ATOM     23  O   UNL     1      34.910 -17.915 -22.790  0.00  0.00    -0.153 OA
BRANCH  21  24
ATOM     24  N   UNL     1      35.389 -16.322 -20.824  0.00  0.00    -0.178 NA
ATOM     25  C   UNL     1      35.048 -15.098 -21.563  0.00  0.00    +0.110 C 
ATOM     26  H   UNL     1      36.171 -16.088 -20.212  0.00  0.00    +0.149 HD
ENDBRANCH  21  24
ENDBRANCH  15  21
ENDBRANCH   1  16
TORSDOF 4
ENDMDL
MODEL 6
REMARK VINA RESULT:     -10.3      7.940     10.197
REMARK  Name = 5288708
REMARK  4 active torsions:
REMARK  status: ('A' for Active; 'I' for Inactive)
REMARK    1  A    between atoms: N_1  and  C_9
REMARK    2  A    between atoms: N_1  and  C_16
REMARK    3  A    between atoms: C_15  and  S_21
REMARK    4  A    between atoms: S_21  and  N_24
REMARK                            x       y       z     vdW  Elec       q    Type
REMARK                         _______ _______ _______ _____ _____    ______ ____
ROOT
ATOM      1  N   UNL     1      34.531 -22.048 -14.283  0.00  0.00    -0.311 N 
ATOM      2  H   UNL     1      34.820 -21.112 -14.368  0.00  0.00    +0.152 HD
ENDROOT
BRANCH   1   9
ATOM      3  O   UNL     1      36.732 -21.260 -15.998  0.00  0.00    -0.270 OA
ATOM      4  N   UNL     1      38.622 -22.610 -15.561  0.00  0.00    -0.280 N 
ATOM      5  C   UNL     1      37.777 -23.969 -13.910  0.00  0.00    +0.019 C 
ATOM      6  C   UNL     1      36.739 -23.034 -14.330  0.00  0.00    +0.069 C 
ATOM      7  C   UNL     1      38.898 -23.667 -14.688  0.00  0.00    +0.051 C 
ATOM      8  C   UNL     1      37.307 -22.156 -15.408  0.00  0.00    +0.251 C 
ATOM      9  C   UNL     1      35.487 -22.925 -13.882  0.00  0.00    +0.066 C 
ATOM     10  C   UNL     1      37.820 -24.985 -12.974  0.00  0.00    +0.001 C 
ATOM     11  C   UNL     1      40.090 -24.356 -14.567  0.00  0.00    +0.015 C 
ATOM     12  C   UNL     1      39.017 -25.696 -12.834  0.00  0.00    +0.000 C 
ATOM     13  C   UNL     1      40.141 -25.384 -13.624  0.00  0.00    +0.001 C 
ATOM     14  H   UNL     1      39.269 -22.233 -16.200  0.00  0.00    +0.155 HD
ENDBRANCH   1   9
BRANCH   1  16
ATOM     15  C   UNL     1      30.505 -22.805 -15.211  0.00  0.00    +0.122 C 
ATOM     16  C   UNL     1      33.185 -22.302 -14.593  0.00  0.00    +0.048 C 
ATOM     17  C   UNL     1      31.448 -22.691 -16.233  0.00  0.00    +0.021 C 
ATOM     18  C   UNL     1      30.900 -22.669 -13.880  0.00  0.00    +0.021 C 
ATOM     19  C   UNL     1      32.785 -22.440 -15.925  0.00  0.00    +0.016 C 
ATOM     20  C   UNL     1      32.237 -22.417 -13.571  0.00  0.00    +0.016 C 
BRANCH  15  21
ATOM     21  S   UNL     1      28.832 -23.119 -15.596  0.00  0.00    +0.060 S 
ATOM     22  O   UNL     1      28.691 -23.200 -17.045  0.00  0.00    -0.153 OA
ATOM     23  O   UNL     1      28.388 -24.236 -14.772  0.00  0.00    -0.153 OA
BRANCH  21  24
ATOM     24  N   UNL     1      28.055 -21.697 -15.050  0.00  0.00    -0.178 NA
ATOM     25  C   UNL     1      26.654 -21.444 -15.413  0.00  0.00    +0.110 C 
ATOM     26  H   UNL     1      28.598 -20.910 -15.405  0.00  0.00    +0.149 HD
ENDBRANCH  21  24
ENDBRANCH  15  21
ENDBRANCH   1  16
TORSDOF 4
ENDMDL
MODEL 7
REMARK VINA RESULT:     -10.2      8.996     11.061
REMARK  Name = 5288708
REMARK  4 active torsions:
REMARK  status: ('A' for Active; 'I' for Inactive)
REMARK    1  A    between atoms: N_1  and  C_9
REMARK    2  A    between atoms: N_1  and  C_16
REMARK    3  A    between atoms: C_15  and  S_21
REMARK    4  A    between atoms: S_21  and  N_24
REMARK                            x       y       z     vdW  Elec       q    Type
REMARK                         _______ _______ _______ _____ _____    ______ ____
ROOT
ATOM      1  N   UNL     1      33.343 -23.962 -13.021  0.00  0.00    -0.311 N 
ATOM      2  H   UNL     1      33.236 -23.939 -12.043  0.00  0.00    +0.152 HD
ENDROOT
BRANCH   1   9
ATOM      3  O   UNL     1      34.936 -23.078 -10.764  0.00  0.00    -0.270 OA
ATOM      4  N   UNL     1      37.230 -23.438 -11.202  0.00  0.00    -0.280 N 
ATOM      5  C   UNL     1      37.101 -24.356 -13.307  0.00  0.00    +0.019 C 
ATOM      6  C   UNL     1      35.753 -24.055 -12.840  0.00  0.00    +0.069 C 
ATOM      7  C   UNL     1      37.958 -23.963 -12.275  0.00  0.00    +0.051 C 
ATOM      8  C   UNL     1      35.856 -23.455 -11.467  0.00  0.00    +0.251 C 
ATOM      9  C   UNL     1      34.592 -24.248 -13.469  0.00  0.00    +0.066 C 
ATOM     10  C   UNL     1      37.605 -24.905 -14.471  0.00  0.00    +0.001 C 
ATOM     11  C   UNL     1      39.331 -24.098 -12.361  0.00  0.00    +0.015 C 
ATOM     12  C   UNL     1      38.992 -25.053 -14.579  0.00  0.00    +0.000 C 
ATOM     13  C   UNL     1      39.847 -24.652 -13.534  0.00  0.00    +0.001 C 
ATOM     14  H   UNL     1      37.631 -23.099 -10.370  0.00  0.00    +0.155 HD
ENDBRANCH   1   9
BRANCH   1  16
ATOM     15  C   UNL     1      29.879 -23.154 -15.255  0.00  0.00    +0.122 C 
ATOM     16  C   UNL     1      32.185 -23.692 -13.768  0.00  0.00    +0.048 C 
ATOM     17  C   UNL     1      31.069 -22.487 -15.546  0.00  0.00    +0.021 C 
ATOM     18  C   UNL     1      29.841 -24.091 -14.222  0.00  0.00    +0.021 C 
ATOM     19  C   UNL     1      32.220 -22.756 -14.805  0.00  0.00    +0.016 C 
ATOM     20  C   UNL     1      30.991 -24.359 -13.479  0.00  0.00    +0.016 C 
BRANCH  15  21
ATOM     21  S   UNL     1      28.440 -22.818 -16.183  0.00  0.00    +0.060 S 
ATOM     22  O   UNL     1      28.685 -21.655 -17.026  0.00  0.00    -0.153 OA
ATOM     23  O   UNL     1      28.006 -24.067 -16.797  0.00  0.00    -0.153 OA
BRANCH  21  24
ATOM     24  N   UNL     1      27.313 -22.387 -14.971  0.00  0.00    -0.178 NA
ATOM     25  C   UNL     1      26.219 -21.457 -15.287  0.00  0.00    +0.110 C 
ATOM     26  H   UNL     1      27.845 -21.967 -14.209  0.00  0.00    +0.149 HD
ENDBRANCH  21  24
ENDBRANCH  15  21
ENDBRANCH   1  16
TORSDOF 4
ENDMDL
MODEL 8
REMARK VINA RESULT:      -9.8      2.805      9.627
REMARK  Name = 5288708
REMARK  4 active torsions:
REMARK  status: ('A' for Active; 'I' for Inactive)
REMARK    1  A    between atoms: N_1  and  C_9
REMARK    2  A    between atoms: N_1  and  C_16
REMARK    3  A    between atoms: C_15  and  S_21
REMARK    4  A    between atoms: S_21  and  N_24
REMARK                            x       y       z     vdW  Elec       q    Type
REMARK                         _______ _______ _______ _____ _____    ______ ____
ROOT
ATOM      1  N   UNL     1      34.804 -21.929 -17.349  0.00  0.00    -0.311 N 
ATOM      2  H   UNL     1      33.957 -22.426 -17.415  0.00  0.00    +0.152 HD
ENDROOT
BRANCH   1   9
ATOM      3  O   UNL     1      32.775 -22.595 -15.386  0.00  0.00    -0.270 OA
ATOM      4  N   UNL     1      33.794 -23.193 -13.340  0.00  0.00    -0.280 N 
ATOM      5  C   UNL     1      36.010 -22.950 -13.904  0.00  0.00    +0.019 C 
ATOM      6  C   UNL     1      35.188 -22.620 -15.063  0.00  0.00    +0.069 C 
ATOM      7  C   UNL     1      35.114 -23.291 -12.887  0.00  0.00    +0.051 C 
ATOM      8  C   UNL     1      33.746 -22.783 -14.677  0.00  0.00    +0.251 C 
ATOM      9  C   UNL     1      35.581 -22.233 -16.278  0.00  0.00    +0.066 C 
ATOM     10  C   UNL     1      37.374 -22.975 -13.681  0.00  0.00    +0.001 C 
ATOM     11  C   UNL     1      35.535 -23.665 -11.625  0.00  0.00    +0.015 C 
ATOM     12  C   UNL     1      37.823 -23.352 -12.410  0.00  0.00    +0.000 C 
ATOM     13  C   UNL     1      36.911 -23.693 -11.392  0.00  0.00    +0.001 C 
ATOM     14  H   UNL     1      33.002 -23.387 -12.789  0.00  0.00    +0.155 HD
ENDBRANCH   1   9
BRANCH   1  16
ATOM     15  C   UNL     1      35.530 -19.144 -20.408  0.00  0.00    +0.122 C 
ATOM     16  C   UNL     1      35.046 -20.998 -18.372  0.00  0.00    +0.048 C 
ATOM     17  C   UNL     1      36.593 -19.663 -19.669  0.00  0.00    +0.021 C 
ATOM     18  C   UNL     1      34.224 -19.552 -20.131  0.00  0.00    +0.021 C 
ATOM     19  C   UNL     1      36.352 -20.588 -18.653  0.00  0.00    +0.016 C 
ATOM     20  C   UNL     1      33.983 -20.477 -19.115  0.00  0.00    +0.016 C 
BRANCH  15  21
ATOM     21  S   UNL     1      35.831 -17.986 -21.679  0.00  0.00    +0.060 S 
ATOM     22  O   UNL     1      37.267 -17.914 -21.918  0.00  0.00    -0.153 OA
ATOM     23  O   UNL     1      34.938 -18.300 -22.786  0.00  0.00    -0.153 OA
BRANCH  21  24
ATOM     24  N   UNL     1      35.321 -16.517 -20.967  0.00  0.00    -0.178 NA
ATOM     25  C   UNL     1      35.175 -15.314 -21.798  0.00  0.00    +0.110 C 
ATOM     26  H   UNL     1      35.998 -16.292 -20.239  0.00  0.00    +0.149 HD
ENDBRANCH  21  24
ENDBRANCH  15  21
ENDBRANCH   1  16
TORSDOF 4
ENDMDL
MODEL 9
REMARK VINA RESULT:      -9.6      8.774     10.855
REMARK  Name = 5288708
REMARK  4 active torsions:
REMARK  status: ('A' for Active; 'I' for Inactive)
REMARK    1  A    between atoms: N_1  and  C_9
REMARK    2  A    between atoms: N_1  and  C_16
REMARK    3  A    between atoms: C_15  and  S_21
REMARK    4  A    between atoms: S_21  and  N_24
REMARK                            x       y       z     vdW  Elec       q    Type
REMARK                         _______ _______ _______ _____ _____    ______ ____
ROOT
ATOM      1  N   UNL     1      34.423 -22.960 -12.885  0.00  0.00    -0.311 N 
ATOM      2  H   UNL     1      34.440 -22.969 -11.901  0.00  0.00    +0.152 HD
ENDROOT
BRANCH   1   9
ATOM      3  O   UNL     1      35.800 -24.635 -10.960  0.00  0.00    -0.270 OA
ATOM      4  N   UNL     1      37.989 -25.106 -11.716  0.00  0.00    -0.280 N 
ATOM      5  C   UNL     1      37.985 -23.958 -13.708  0.00  0.00    +0.019 C 
ATOM      6  C   UNL     1      36.686 -23.792 -13.065  0.00  0.00    +0.069 C 
ATOM      7  C   UNL     1      38.736 -24.764 -12.848  0.00  0.00    +0.051 C 
ATOM      8  C   UNL     1      36.707 -24.547 -11.766  0.00  0.00    +0.251 C 
ATOM      9  C   UNL     1      35.627 -23.105 -13.495  0.00  0.00    +0.066 C 
ATOM     10  C   UNL     1      38.525 -23.497 -14.894  0.00  0.00    +0.001 C 
ATOM     11  C   UNL     1      40.036 -25.137 -13.130  0.00  0.00    +0.015 C 
ATOM     12  C   UNL     1      39.840 -23.864 -15.201  0.00  0.00    +0.000 C 
ATOM     13  C   UNL     1      40.588 -24.676 -14.326  0.00  0.00    +0.001 C 
ATOM     14  H   UNL     1      38.321 -25.668 -10.979  0.00  0.00    +0.155 HD
ENDBRANCH   1   9
BRANCH   1  16
ATOM     15  C   UNL     1      30.638 -22.474 -14.640  0.00  0.00    +0.122 C 
ATOM     16  C   UNL     1      33.158 -22.798 -13.472  0.00  0.00    +0.048 C 
ATOM     17  C   UNL     1      31.772 -22.580 -15.445  0.00  0.00    +0.021 C 
ATOM     18  C   UNL     1      30.761 -22.530 -13.251  0.00  0.00    +0.021 C 
ATOM     19  C   UNL     1      33.029 -22.742 -14.862  0.00  0.00    +0.016 C 
ATOM     20  C   UNL     1      32.018 -22.691 -12.668  0.00  0.00    +0.016 C 
BRANCH  15  21
ATOM     21  S   UNL     1      29.065 -22.271 -15.369  0.00  0.00    +0.060 S 
ATOM     22  O   UNL     1      28.294 -21.330 -14.566  0.00  0.00    -0.153 OA
ATOM     23  O   UNL     1      29.264 -22.003 -16.788  0.00  0.00    -0.153 OA
BRANCH  21  24
ATOM     24  N   UNL     1      28.377 -23.826 -15.199  0.00  0.00    -0.178 NA
ATOM     25  C   UNL     1      29.037 -24.829 -14.351  0.00  0.00    +0.110 C 
ATOM     26  H   UNL     1      28.316 -24.226 -16.135  0.00  0.00    +0.149 HD
ENDBRANCH  21  24
ENDBRANCH  15  21
ENDBRANCH   1  16
TORSDOF 4
ENDMDL
