MODEL 1
REMARK VINA RESULT:     -13.4      0.000      0.000
REMARK  Name = 67335295
REMARK  6 active torsions:
REMARK  status: ('A' for Active; 'I' for Inactive)
REMARK    1  A    between atoms: N_2  and  C_14
REMARK    2  A    between atoms: C_7  and  O_20
REMARK    3  A    between atoms: O_20  and  C_21
REMARK    4  A    between atoms: C_21  and  C_23
REMARK    5  A    between atoms: C_22  and  C_28
REMARK    6  A    between atoms: C_28  and  N_30
REMARK                            x       y       z     vdW  Elec       q    Type
REMARK                         _______ _______ _______ _____ _____    ______ ____
ROOT
ATOM      1  O   UNL     1      34.985 -24.119 -11.282  0.00  0.00    -0.270 OA
ATOM      2  N   UNL     1      35.936 -24.202 -13.444  0.00  0.00    -0.265 N 
ATOM      3  C   UNL     1      35.525 -23.838 -14.795  0.00  0.00    +0.124 C 
ATOM      4  C   UNL     1      34.152 -23.303 -14.565  0.00  0.00    +0.036 C 
ATOM      5  C   UNL     1      34.964 -23.938 -12.486  0.00  0.00    +0.249 C 
ATOM      6  C   UNL     1      33.825 -23.362 -13.210  0.00  0.00    +0.054 C 
ATOM      7  C   UNL     1      33.248 -22.797 -15.480  0.00  0.00    +0.137 C 
ATOM      8  C   UNL     1      32.610 -22.930 -12.716  0.00  0.00    +0.004 C 
ATOM      9  C   UNL     1      32.010 -22.352 -15.006  0.00  0.00    +0.037 C 
ATOM     10  C   UNL     1      31.693 -22.419 -13.636  0.00  0.00    +0.003 C 
ENDROOT
BRANCH   2  14
ATOM     11  O   UNL     1      37.942 -22.508 -12.725  0.00  0.00    -0.273 OA
ATOM     12  O   UNL     1      41.212 -25.512 -13.942  0.00  0.00    -0.275 OA
ATOM     13  N   UNL     1      39.544 -24.030 -13.366  0.00  0.00    -0.254 N 
ATOM     14  C   UNL     1      37.218 -24.778 -13.134  0.00  0.00    +0.153 C 
ATOM     15  C   UNL     1      37.614 -25.825 -14.163  0.00  0.00    +0.039 C 
ATOM     16  C   UNL     1      38.984 -26.379 -13.815  0.00  0.00    +0.088 C 
ATOM     17  C   UNL     1      38.233 -23.651 -13.076  0.00  0.00    +0.246 C 
ATOM     18  C   UNL     1      40.020 -25.283 -13.738  0.00  0.00    +0.228 C 
ATOM     19  H   UNL     1      40.219 -23.317 -13.299  0.00  0.00    +0.158 HD
ENDBRANCH   2  14
BRANCH   7  20
ATOM     20  O   UNL     1      33.544 -22.731 -16.803  0.00  0.00    -0.471 OA
BRANCH  20  21
ATOM     21  C   UNL     1      32.689 -21.932 -17.624  0.00  0.00    +0.232 C 
BRANCH  21  23
ATOM     22  C   UNL     1      35.103 -19.497 -20.204  0.00  0.00    -0.043 C 
ATOM     23  C   UNL     1      33.533 -21.082 -18.528  0.00  0.00    +0.021 C 
ATOM     24  C   UNL     1      35.708 -20.405 -19.334  0.00  0.00    -0.007 C 
ATOM     25  C   UNL     1      33.713 -19.381 -20.235  0.00  0.00    -0.007 C 
ATOM     26  C   UNL     1      34.923 -21.198 -18.496  0.00  0.00    -0.001 C 
ATOM     27  C   UNL     1      32.928 -20.175 -19.397  0.00  0.00    -0.001 C 
BRANCH  22  28
ATOM     28  C   UNL     1      35.942 -18.650 -21.099  0.00  0.00    -0.050 C 
BRANCH  28  30
ATOM     29  O   UNL     1      34.790 -16.437 -24.474  0.00  0.00    -0.358 OA
ATOM     30  N   UNL     1      35.140 -17.870 -22.040  0.00  0.00    +0.393 N 
ATOM     31  C   UNL     1      35.720 -16.534 -22.236  0.00  0.00    -0.044 C 
ATOM     32  C   UNL     1      35.027 -18.564 -23.330  0.00  0.00    -0.044 C 
ATOM     33  C   UNL     1      34.198 -17.725 -24.299  0.00  0.00    +0.119 C 
ATOM     34  C   UNL     1      34.874 -15.743 -23.229  0.00  0.00    +0.119 C 
ATOM     35  H   UNL     1      34.207 -17.765 -21.643  0.00  0.00    -0.079 HD
ENDBRANCH  28  30
ENDBRANCH  22  28
ENDBRANCH  21  23
ENDBRANCH  20  21
ENDBRANCH   7  20
TORSDOF 6
ENDMDL
MODEL 2
REMARK VINA RESULT:     -12.6      1.722      2.398
REMARK  Name = 67335295
REMARK  6 active torsions:
REMARK  status: ('A' for Active; 'I' for Inactive)
REMARK    1  A    between atoms: N_2  and  C_14
REMARK    2  A    between atoms: C_7  and  O_20
REMARK    3  A    between atoms: O_20  and  C_21
REMARK    4  A    between atoms: C_21  and  C_23
REMARK    5  A    between atoms: C_22  and  C_28
REMARK    6  A    between atoms: C_28  and  N_30
REMARK                            x       y       z     vdW  Elec       q    Type
REMARK                         _______ _______ _______ _____ _____    ______ ____
ROOT
ATOM      1  O   UNL     1      32.694 -24.269 -12.349  0.00  0.00    -0.270 OA
ATOM      2  N   UNL     1      34.083 -23.320 -14.008  0.00  0.00    -0.265 N 
ATOM      3  C   UNL     1      33.895 -22.657 -15.293  0.00  0.00    +0.124 C 
ATOM      4  C   UNL     1      32.411 -22.670 -15.431  0.00  0.00    +0.036 C 
ATOM      5  C   UNL     1      32.889 -23.703 -13.409  0.00  0.00    +0.249 C 
ATOM      6  C   UNL     1      31.822 -23.284 -14.325  0.00  0.00    +0.054 C 
ATOM      7  C   UNL     1      31.625 -22.177 -16.456  0.00  0.00    +0.137 C 
ATOM      8  C   UNL     1      30.455 -23.432 -14.193  0.00  0.00    +0.004 C 
ATOM      9  C   UNL     1      30.238 -22.314 -16.348  0.00  0.00    +0.037 C 
ATOM     10  C   UNL     1      29.658 -22.936 -15.226  0.00  0.00    +0.003 C 
ENDROOT
BRANCH   2  14
ATOM     11  O   UNL     1      35.600 -25.330 -15.044  0.00  0.00    -0.273 OA
ATOM     12  O   UNL     1      38.040 -25.784 -11.166  0.00  0.00    -0.275 OA
ATOM     13  N   UNL     1      36.780 -25.539 -13.079  0.00  0.00    -0.254 N 
ATOM     14  C   UNL     1      35.376 -23.555 -13.419  0.00  0.00    +0.153 C 
ATOM     15  C   UNL     1      35.298 -23.540 -11.900  0.00  0.00    +0.039 C 
ATOM     16  C   UNL     1      36.674 -23.824 -11.324  0.00  0.00    +0.088 C 
ATOM     17  C   UNL     1      35.887 -24.889 -13.931  0.00  0.00    +0.246 C 
ATOM     18  C   UNL     1      37.220 -25.142 -11.820  0.00  0.00    +0.228 C 
ATOM     19  H   UNL     1      37.147 -26.389 -13.414  0.00  0.00    +0.158 HD
ENDBRANCH   2  14
BRANCH   7  20
ATOM     20  O   UNL     1      32.176 -21.577 -17.543  0.00  0.00    -0.471 OA
BRANCH  20  21
ATOM     21  C   UNL     1      33.436 -22.076 -17.994  0.00  0.00    +0.232 C 
BRANCH  21  23
ATOM     22  C   UNL     1      35.283 -19.138 -20.519  0.00  0.00    -0.043 C 
ATOM     23  C   UNL     1      34.082 -21.047 -18.875  0.00  0.00    +0.021 C 
ATOM     24  C   UNL     1      33.892 -19.203 -20.425  0.00  0.00    -0.007 C 
ATOM     25  C   UNL     1      36.073 -20.028 -19.791  0.00  0.00    -0.007 C 
ATOM     26  C   UNL     1      33.292 -20.157 -19.603  0.00  0.00    -0.001 C 
ATOM     27  C   UNL     1      35.472 -20.982 -18.969  0.00  0.00    -0.001 C 
BRANCH  22  28
ATOM     28  C   UNL     1      35.924 -18.118 -21.397  0.00  0.00    -0.050 C 
BRANCH  28  30
ATOM     29  O   UNL     1      34.413 -16.685 -25.041  0.00  0.00    -0.358 OA
ATOM     30  N   UNL     1      35.007 -17.606 -22.414  0.00  0.00    +0.393 N 
ATOM     31  C   UNL     1      35.433 -16.278 -22.878  0.00  0.00    -0.044 C 
ATOM     32  C   UNL     1      34.920 -18.532 -23.552  0.00  0.00    -0.044 C 
ATOM     33  C   UNL     1      33.969 -17.971 -24.605  0.00  0.00    +0.119 C 
ATOM     34  C   UNL     1      34.469 -15.770 -23.946  0.00  0.00    +0.119 C 
ATOM     35  H   UNL     1      34.084 -17.523 -21.990  0.00  0.00    -0.079 HD
ENDBRANCH  28  30
ENDBRANCH  22  28
ENDBRANCH  21  23
ENDBRANCH  20  21
ENDBRANCH   7  20
TORSDOF 6
ENDMDL
MODEL 3
REMARK VINA RESULT:     -12.6      1.406      1.867
REMARK  Name = 67335295
REMARK  6 active torsions:
REMARK  status: ('A' for Active; 'I' for Inactive)
REMARK    1  A    between atoms: N_2  and  C_14
REMARK    2  A    between atoms: C_7  and  O_20
REMARK    3  A    between atoms: O_20  and  C_21
REMARK    4  A    between atoms: C_21  and  C_23
REMARK    5  A    between atoms: C_22  and  C_28
REMARK    6  A    between atoms: C_28  and  N_30
REMARK                            x       y       z     vdW  Elec       q    Type
REMARK                         _______ _______ _______ _____ _____    ______ ____
ROOT
ATOM      1  O   UNL     1      33.944 -23.922 -12.281  0.00  0.00    -0.270 OA
ATOM      2  N   UNL     1      35.413 -23.770 -14.126  0.00  0.00    -0.265 N 
ATOM      3  C   UNL     1      35.327 -23.325 -15.512  0.00  0.00    +0.124 C 
ATOM      4  C   UNL     1      33.902 -22.900 -15.612  0.00  0.00    +0.036 C 
ATOM      5  C   UNL     1      34.212 -23.646 -13.436  0.00  0.00    +0.249 C 
ATOM      6  C   UNL     1      33.249 -23.089 -14.393  0.00  0.00    +0.054 C 
ATOM      7  C   UNL     1      33.219 -22.381 -16.696  0.00  0.00    +0.137 C 
ATOM      8  C   UNL     1      31.917 -22.777 -14.203  0.00  0.00    +0.004 C 
ATOM      9  C   UNL     1      31.869 -22.057 -16.531  0.00  0.00    +0.037 C 
ATOM     10  C   UNL     1      31.224 -22.253 -15.295  0.00  0.00    +0.003 C 
ENDROOT
BRANCH   2  14
ATOM     11  O   UNL     1      37.595 -22.142 -14.078  0.00  0.00    -0.273 OA
ATOM     12  O   UNL     1      40.508 -25.690 -13.733  0.00  0.00    -0.275 OA
ATOM     13  N   UNL     1      39.016 -23.945 -13.929  0.00  0.00    -0.254 N 
ATOM     14  C   UNL     1      36.618 -24.285 -13.532  0.00  0.00    +0.153 C 
ATOM     15  C   UNL     1      36.900 -25.704 -14.000  0.00  0.00    +0.039 C 
ATOM     16  C   UNL     1      38.195 -26.192 -13.376  0.00  0.00    +0.088 C 
ATOM     17  C   UNL     1      37.756 -23.349 -13.898  0.00  0.00    +0.246 C 
ATOM     18  C   UNL     1      39.349 -25.278 -13.711  0.00  0.00    +0.228 C 
ATOM     19  H   UNL     1      39.769 -23.342 -14.131  0.00  0.00    +0.158 HD
ENDBRANCH   2  14
BRANCH   7  20
ATOM     20  O   UNL     1      33.832 -22.190 -17.892  0.00  0.00    -0.471 OA
BRANCH  20  21
ATOM     21  C   UNL     1      35.176 -21.705 -17.866  0.00  0.00    +0.232 C 
BRANCH  21  23
ATOM     22  C   UNL     1      35.648 -18.722 -20.914  0.00  0.00    -0.043 C 
ATOM     23  C   UNL     1      35.341 -20.664 -18.933  0.00  0.00    +0.021 C 
ATOM     24  C   UNL     1      36.762 -19.185 -20.211  0.00  0.00    -0.007 C 
ATOM     25  C   UNL     1      34.382 -19.230 -20.625  0.00  0.00    -0.007 C 
ATOM     26  C   UNL     1      36.608 -20.156 -19.221  0.00  0.00    -0.001 C 
ATOM     27  C   UNL     1      34.228 -20.201 -19.635  0.00  0.00    -0.001 C 
BRANCH  22  28
ATOM     28  C   UNL     1      35.813 -17.684 -21.972  0.00  0.00    -0.050 C 
BRANCH  28  30
ATOM     29  O   UNL     1      34.914 -13.708 -20.971  0.00  0.00    -0.358 OA
ATOM     30  N   UNL     1      35.068 -16.463 -21.673  0.00  0.00    +0.393 N 
ATOM     31  C   UNL     1      35.351 -16.001 -20.307  0.00  0.00    -0.044 C 
ATOM     32  C   UNL     1      35.392 -15.405 -22.640  0.00  0.00    -0.044 C 
ATOM     33  C   UNL     1      34.613 -14.136 -22.301  0.00  0.00    +0.119 C 
ATOM     34  C   UNL     1      34.573 -14.719 -20.023  0.00  0.00    +0.119 C 
ATOM     35  H   UNL     1      34.073 -16.677 -21.745  0.00  0.00    -0.079 HD
ENDBRANCH  28  30
ENDBRANCH  22  28
ENDBRANCH  21  23
ENDBRANCH  20  21
ENDBRANCH   7  20
TORSDOF 6
ENDMDL
MODEL 4
REMARK VINA RESULT:     -11.8      3.539     12.379
REMARK  Name = 67335295
REMARK  6 active torsions:
REMARK  status: ('A' for Active; 'I' for Inactive)
REMARK    1  A    between atoms: N_2  and  C_14
REMARK    2  A    between atoms: C_7  and  O_20
REMARK    3  A    between atoms: O_20  and  C_21
REMARK    4  A    between atoms: C_21  and  C_23
REMARK    5  A    between atoms: C_22  and  C_28
REMARK    6  A    between atoms: C_28  and  N_30
REMARK                            x       y       z     vdW  Elec       q    Type
REMARK                         _______ _______ _______ _____ _____    ______ ____
ROOT
ATOM      1  O   UNL     1      33.568 -13.363 -24.904  0.00  0.00    -0.270 OA
ATOM      2  N   UNL     1      34.328 -13.329 -22.667  0.00  0.00    -0.265 N 
ATOM      3  C   UNL     1      34.845 -14.300 -21.710  0.00  0.00    +0.124 C 
ATOM      4  C   UNL     1      34.817 -15.561 -22.506  0.00  0.00    +0.036 C 
ATOM      5  C   UNL     1      34.014 -13.888 -23.900  0.00  0.00    +0.249 C 
ATOM      6  C   UNL     1      34.329 -15.317 -23.790  0.00  0.00    +0.054 C 
ATOM      7  C   UNL     1      35.193 -16.837 -22.133  0.00  0.00    +0.137 C 
ATOM      8  C   UNL     1      34.197 -16.311 -24.740  0.00  0.00    +0.004 C 
ATOM      9  C   UNL     1      35.069 -17.863 -23.075  0.00  0.00    +0.037 C 
ATOM     10  C   UNL     1      34.576 -17.602 -24.368  0.00  0.00    +0.003 C 
ENDROOT
BRANCH   2  14
ATOM     11  O   UNL     1      32.222 -12.618 -21.093  0.00  0.00    -0.273 OA
ATOM     12  O   UNL     1      32.187  -8.306 -22.707  0.00  0.00    -0.275 OA
ATOM     13  N   UNL     1      32.226 -10.480 -21.943  0.00  0.00    -0.254 N 
ATOM     14  C   UNL     1      34.159 -11.932 -22.365  0.00  0.00    +0.153 C 
ATOM     15  C   UNL     1      34.334 -11.075 -23.610  0.00  0.00    +0.039 C 
ATOM     16  C   UNL     1      34.116  -9.617 -23.251  0.00  0.00    +0.088 C 
ATOM     17  C   UNL     1      32.779 -11.747 -21.760  0.00  0.00    +0.246 C 
ATOM     18  C   UNL     1      32.755  -9.396 -22.636  0.00  0.00    +0.228 C 
ATOM     19  H   UNL     1      31.346 -10.335 -21.526  0.00  0.00    +0.158 HD
ENDBRANCH   2  14
BRANCH   7  20
ATOM     20  O   UNL     1      35.669 -17.099 -20.888  0.00  0.00    -0.471 OA
BRANCH  20  21
ATOM     21  C   UNL     1      36.522 -18.235 -20.741  0.00  0.00    +0.232 C 
BRANCH  21  23
ATOM     22  C   UNL     1      34.375 -21.340 -18.701  0.00  0.00    -0.043 C 
ATOM     23  C   UNL     1      35.771 -19.322 -20.030  0.00  0.00    +0.021 C 
ATOM     24  C   UNL     1      33.683 -20.401 -19.470  0.00  0.00    -0.007 C 
ATOM     25  C   UNL     1      35.763 -21.268 -18.597  0.00  0.00    -0.007 C 
ATOM     26  C   UNL     1      34.382 -19.393 -20.134  0.00  0.00    -0.001 C 
ATOM     27  C   UNL     1      36.462 -20.259 -19.261  0.00  0.00    -0.001 C 
BRANCH  22  28
ATOM     28  C   UNL     1      33.627 -22.417 -17.991  0.00  0.00    -0.050 C 
BRANCH  28  30
ATOM     29  O   UNL     1      33.171 -23.053 -13.867  0.00  0.00    -0.358 OA
ATOM     30  N   UNL     1      33.544 -22.180 -16.551  0.00  0.00    +0.393 N 
ATOM     31  C   UNL     1      32.216 -22.545 -16.039  0.00  0.00    -0.044 C 
ATOM     32  C   UNL     1      34.584 -22.935 -15.838  0.00  0.00    -0.044 C 
ATOM     33  C   UNL     1      34.469 -22.682 -14.337  0.00  0.00    +0.119 C 
ATOM     34  C   UNL     1      32.157 -22.301 -14.534  0.00  0.00    +0.119 C 
ATOM     35  H   UNL     1      33.694 -21.184 -16.389  0.00  0.00    -0.079 HD
ENDBRANCH  28  30
ENDBRANCH  22  28
ENDBRANCH  21  23
ENDBRANCH  20  21
ENDBRANCH   7  20
TORSDOF 6
ENDMDL
MODEL 5
REMARK VINA RESULT:     -11.5      2.316      3.602
REMARK  Name = 67335295
REMARK  6 active torsions:
REMARK  status: ('A' for Active; 'I' for Inactive)
REMARK    1  A    between atoms: N_2  and  C_14
REMARK    2  A    between atoms: C_7  and  O_20
REMARK    3  A    between atoms: O_20  and  C_21
REMARK    4  A    between atoms: C_21  and  C_23
REMARK    5  A    between atoms: C_22  and  C_28
REMARK    6  A    between atoms: C_28  and  N_30
REMARK                            x       y       z     vdW  Elec       q    Type
REMARK                         _______ _______ _______ _____ _____    ______ ____
ROOT
ATOM      1  O   UNL     1      33.762 -23.937 -14.231  0.00  0.00    -0.270 OA
ATOM      2  N   UNL     1      35.830 -23.098 -15.009  0.00  0.00    -0.265 N 
ATOM      3  C   UNL     1      36.282 -22.247 -16.104  0.00  0.00    +0.124 C 
ATOM      4  C   UNL     1      34.999 -21.924 -16.792  0.00  0.00    +0.036 C 
ATOM      5  C   UNL     1      34.454 -23.292 -14.998  0.00  0.00    +0.249 C 
ATOM      6  C   UNL     1      33.928 -22.538 -16.142  0.00  0.00    +0.054 C 
ATOM      7  C   UNL     1      34.782 -21.145 -17.912  0.00  0.00    +0.137 C 
ATOM      8  C   UNL     1      32.621 -22.406 -16.569  0.00  0.00    +0.004 C 
ATOM      9  C   UNL     1      33.468 -20.995 -18.366  0.00  0.00    +0.037 C 
ATOM     10  C   UNL     1      32.397 -21.620 -17.700  0.00  0.00    +0.003 C 
ENDROOT
BRANCH   2  14
ATOM     11  O   UNL     1      36.485 -25.725 -15.304  0.00  0.00    -0.273 OA
ATOM     12  O   UNL     1      37.551 -26.186 -10.848  0.00  0.00    -0.275 OA
ATOM     13  N   UNL     1      36.986 -25.917 -13.066  0.00  0.00    -0.254 N 
ATOM     14  C   UNL     1      36.719 -23.679 -14.038  0.00  0.00    +0.153 C 
ATOM     15  C   UNL     1      36.324 -23.281 -12.624  0.00  0.00    +0.039 C 
ATOM     16  C   UNL     1      37.267 -23.942 -11.634  0.00  0.00    +0.088 C 
ATOM     17  C   UNL     1      36.685 -25.186 -14.215  0.00  0.00    +0.246 C 
ATOM     18  C   UNL     1      37.267 -25.444 -11.788  0.00  0.00    +0.228 C 
ATOM     19  H   UNL     1      37.002 -26.895 -13.175  0.00  0.00    +0.158 HD
ENDBRANCH   2  14
BRANCH   7  20
ATOM     20  O   UNL     1      35.809 -20.540 -18.562  0.00  0.00    -0.471 OA
BRANCH  20  21
ATOM     21  C   UNL     1      35.937 -20.797 -19.962  0.00  0.00    +0.232 C 
BRANCH  21  23
ATOM     22  C   UNL     1      35.710 -17.084 -22.101  0.00  0.00    -0.043 C 
ATOM     23  C   UNL     1      35.857 -19.498 -20.708  0.00  0.00    +0.021 C 
ATOM     24  C   UNL     1      34.658 -17.998 -22.174  0.00  0.00    -0.007 C 
ATOM     25  C   UNL     1      36.835 -17.377 -21.331  0.00  0.00    -0.007 C 
ATOM     26  C   UNL     1      34.732 -19.204 -21.478  0.00  0.00    -0.001 C 
ATOM     27  C   UNL     1      36.909 -18.584 -20.634  0.00  0.00    -0.001 C 
BRANCH  22  28
ATOM     28  C   UNL     1      35.631 -15.795 -22.845  0.00  0.00    -0.050 C 
BRANCH  28  30
ATOM     29  O   UNL     1      33.448 -12.431 -21.604  0.00  0.00    -0.358 OA
ATOM     30  N   UNL     1      34.539 -14.946 -22.373  0.00  0.00    +0.393 N 
ATOM     31  C   UNL     1      34.885 -14.318 -21.090  0.00  0.00    -0.044 C 
ATOM     32  C   UNL     1      34.213 -13.914 -23.367  0.00  0.00    -0.044 C 
ATOM     33  C   UNL     1      33.080 -13.033 -22.847  0.00  0.00    +0.119 C 
ATOM     34  C   UNL     1      33.736 -13.429 -20.624  0.00  0.00    +0.119 C 
ATOM     35  H   UNL     1      33.719 -15.538 -22.236  0.00  0.00    -0.079 HD
ENDBRANCH  28  30
ENDBRANCH  22  28
ENDBRANCH  21  23
ENDBRANCH  20  21
ENDBRANCH   7  20
TORSDOF 6
ENDMDL
MODEL 6
REMARK VINA RESULT:     -11.3      5.540     10.401
REMARK  Name = 67335295
REMARK  6 active torsions:
REMARK  status: ('A' for Active; 'I' for Inactive)
REMARK    1  A    between atoms: N_2  and  C_14
REMARK    2  A    between atoms: C_7  and  O_20
REMARK    3  A    between atoms: O_20  and  C_21
REMARK    4  A    between atoms: C_21  and  C_23
REMARK    5  A    between atoms: C_22  and  C_28
REMARK    6  A    between atoms: C_28  and  N_30
REMARK                            x       y       z     vdW  Elec       q    Type
REMARK                         _______ _______ _______ _____ _____    ______ ____
ROOT
ATOM      1  O   UNL     1      34.945 -19.411 -23.741  0.00  0.00    -0.270 OA
ATOM      2  N   UNL     1      35.284 -18.428 -21.619  0.00  0.00    -0.265 N 
ATOM      3  C   UNL     1      35.294 -17.078 -21.068  0.00  0.00    +0.124 C 
ATOM      4  C   UNL     1      35.004 -16.251 -22.274  0.00  0.00    +0.036 C 
ATOM      5  C   UNL     1      35.024 -18.461 -22.984  0.00  0.00    +0.249 C 
ATOM      6  C   UNL     1      34.846 -17.064 -23.397  0.00  0.00    +0.054 C 
ATOM      7  C   UNL     1      34.886 -14.878 -22.383  0.00  0.00    +0.137 C 
ATOM      8  C   UNL     1      34.569 -16.557 -24.652  0.00  0.00    +0.004 C 
ATOM      9  C   UNL     1      34.606 -14.339 -23.643  0.00  0.00    +0.037 C 
ATOM     10  C   UNL     1      34.449 -15.172 -24.767  0.00  0.00    +0.003 C 
ENDROOT
BRANCH   2  14
ATOM     11  O   UNL     1      33.123 -19.664 -20.516  0.00  0.00    -0.273 OA
ATOM     12  O   UNL     1      35.662 -21.661 -17.235  0.00  0.00    -0.275 OA
ATOM     13  N   UNL     1      34.425 -20.624 -18.881  0.00  0.00    -0.254 N 
ATOM     14  C   UNL     1      35.519 -19.608 -20.829  0.00  0.00    +0.153 C 
ATOM     15  C   UNL     1      36.687 -19.408 -19.875  0.00  0.00    +0.039 C 
ATOM     16  C   UNL     1      36.876 -20.663 -19.042  0.00  0.00    +0.088 C 
ATOM     17  C   UNL     1      34.241 -19.928 -20.075  0.00  0.00    +0.246 C 
ATOM     18  C   UNL     1      35.619 -21.018 -18.284  0.00  0.00    +0.228 C 
ATOM     19  H   UNL     1      33.603 -20.868 -18.398  0.00  0.00    +0.158 HD
ENDBRANCH   2  14
BRANCH   7  20
ATOM     20  O   UNL     1      35.037 -14.068 -21.305  0.00  0.00    -0.471 OA
BRANCH  20  21
ATOM     21  C   UNL     1      33.908 -13.907 -20.445  0.00  0.00    +0.232 C 
BRANCH  21  23
ATOM     22  C   UNL     1      31.957 -10.200 -21.375  0.00  0.00    -0.043 C 
ATOM     23  C   UNL     1      33.224 -12.612 -20.772  0.00  0.00    +0.021 C 
ATOM     24  C   UNL     1      33.044 -10.628 -22.139  0.00  0.00    -0.007 C 
ATOM     25  C   UNL     1      31.505 -10.978 -20.310  0.00  0.00    -0.007 C 
ATOM     26  C   UNL     1      33.677 -11.834 -21.837  0.00  0.00    -0.001 C 
ATOM     27  C   UNL     1      32.138 -12.185 -20.008  0.00  0.00    -0.001 C 
BRANCH  22  28
ATOM     28  C   UNL     1      31.281  -8.911 -21.698  0.00  0.00    -0.050 C 
BRANCH  28  30
ATOM     29  O   UNL     1      32.512  -5.283 -19.984  0.00  0.00    -0.358 OA
ATOM     30  N   UNL     1      32.095  -7.751 -21.340  0.00  0.00    +0.393 N 
ATOM     31  C   UNL     1      31.458  -6.508 -21.794  0.00  0.00    -0.044 C 
ATOM     32  C   UNL     1      32.319  -7.701 -19.888  0.00  0.00    -0.044 C 
ATOM     33  C   UNL     1      33.159  -6.476 -19.536  0.00  0.00    +0.119 C 
ATOM     34  C   UNL     1      32.319  -5.312 -21.399  0.00  0.00    +0.119 C 
ATOM     35  H   UNL     1      32.997  -7.846 -21.806  0.00  0.00    -0.079 HD
ENDBRANCH  28  30
ENDBRANCH  22  28
ENDBRANCH  21  23
ENDBRANCH  20  21
ENDBRANCH   7  20
TORSDOF 6
ENDMDL
MODEL 7
REMARK VINA RESULT:     -11.1      6.738     14.440
REMARK  Name = 67335295
REMARK  6 active torsions:
REMARK  status: ('A' for Active; 'I' for Inactive)
REMARK    1  A    between atoms: N_2  and  C_14
REMARK    2  A    between atoms: C_7  and  O_20
REMARK    3  A    between atoms: O_20  and  C_21
REMARK    4  A    between atoms: C_21  and  C_23
REMARK    5  A    between atoms: C_22  and  C_28
REMARK    6  A    between atoms: C_28  and  N_30
REMARK                            x       y       z     vdW  Elec       q    Type
REMARK                         _______ _______ _______ _____ _____    ______ ____
ROOT
ATOM      1  O   UNL     1      31.735  -7.165 -20.754  0.00  0.00    -0.270 OA
ATOM      2  N   UNL     1      32.373  -8.745 -22.391  0.00  0.00    -0.265 N 
ATOM      3  C   UNL     1      32.592 -10.186 -22.441  0.00  0.00    +0.124 C 
ATOM      4  C   UNL     1      32.298 -10.592 -21.037  0.00  0.00    +0.036 C 
ATOM      5  C   UNL     1      31.992  -8.293 -21.133  0.00  0.00    +0.249 C 
ATOM      6  C   UNL     1      31.947  -9.480 -20.271  0.00  0.00    +0.054 C 
ATOM      7  C   UNL     1      32.335 -11.850 -20.466  0.00  0.00    +0.137 C 
ATOM      8  C   UNL     1      31.624  -9.569 -18.931  0.00  0.00    +0.004 C 
ATOM      9  C   UNL     1      32.013 -11.968 -19.111  0.00  0.00    +0.037 C 
ATOM     10  C   UNL     1      31.660 -10.837 -18.350  0.00  0.00    +0.003 C 
ENDROOT
BRANCH   2  14
ATOM     11  O   UNL     1      34.880  -7.844 -22.951  0.00  0.00    -0.273 OA
ATOM     12  O   UNL     1      33.290  -4.199 -25.271  0.00  0.00    -0.275 OA
ATOM     13  N   UNL     1      34.043  -6.025 -24.083  0.00  0.00    -0.254 N 
ATOM     14  C   UNL     1      32.533  -7.879 -23.529  0.00  0.00    +0.153 C 
ATOM     15  C   UNL     1      31.456  -6.806 -23.559  0.00  0.00    +0.039 C 
ATOM     16  C   UNL     1      31.684  -5.898 -24.754  0.00  0.00    +0.088 C 
ATOM     17  C   UNL     1      33.919  -7.264 -23.455  0.00  0.00    +0.246 C 
ATOM     18  C   UNL     1      33.059  -5.275 -24.720  0.00  0.00    +0.228 C 
ATOM     19  H   UNL     1      34.945  -5.630 -24.074  0.00  0.00    +0.158 HD
ENDBRANCH   2  14
BRANCH   7  20
ATOM     20  O   UNL     1      32.676 -12.946 -21.191  0.00  0.00    -0.471 OA
BRANCH  20  21
ATOM     21  C   UNL     1      33.992 -12.977 -21.746  0.00  0.00    +0.232 C 
BRANCH  21  23
ATOM     22  C   UNL     1      35.690 -16.863 -21.092  0.00  0.00    -0.043 C 
ATOM     23  C   UNL     1      34.588 -14.335 -21.517  0.00  0.00    +0.021 C 
ATOM     24  C   UNL     1      35.519 -16.386 -22.392  0.00  0.00    -0.007 C 
ATOM     25  C   UNL     1      35.308 -16.077 -20.005  0.00  0.00    -0.007 C 
ATOM     26  C   UNL     1      34.968 -15.122 -22.605  0.00  0.00    -0.001 C 
ATOM     27  C   UNL     1      34.758 -14.812 -20.218  0.00  0.00    -0.001 C 
BRANCH  22  28
ATOM     28  C   UNL     1      36.278 -18.214 -20.866  0.00  0.00    -0.050 C 
BRANCH  28  30
ATOM     29  O   UNL     1      34.175 -21.405 -19.129  0.00  0.00    -0.358 OA
ATOM     30  N   UNL     1      35.495 -19.011 -19.922  0.00  0.00    +0.393 N 
ATOM     31  C   UNL     1      34.216 -19.417 -20.520  0.00  0.00    -0.044 C 
ATOM     32  C   UNL     1      36.249 -20.197 -19.491  0.00  0.00    -0.044 C 
ATOM     33  C   UNL     1      35.407 -21.019 -18.518  0.00  0.00    +0.119 C 
ATOM     34  C   UNL     1      33.423 -20.257 -19.523  0.00  0.00    +0.119 C 
ATOM     35  H   UNL     1      35.304 -18.431 -19.106  0.00  0.00    -0.079 HD
ENDBRANCH  28  30
ENDBRANCH  22  28
ENDBRANCH  21  23
ENDBRANCH  20  21
ENDBRANCH   7  20
TORSDOF 6
ENDMDL
MODEL 8
REMARK VINA RESULT:     -11.0      7.259     14.777
REMARK  Name = 67335295
REMARK  6 active torsions:
REMARK  status: ('A' for Active; 'I' for Inactive)
REMARK    1  A    between atoms: N_2  and  C_14
REMARK    2  A    between atoms: C_7  and  O_20
REMARK    3  A    between atoms: O_20  and  C_21
REMARK    4  A    between atoms: C_21  and  C_23
REMARK    5  A    between atoms: C_22  and  C_28
REMARK    6  A    between atoms: C_28  and  N_30
REMARK                            x       y       z     vdW  Elec       q    Type
REMARK                         _______ _______ _______ _____ _____    ______ ____
ROOT
ATOM      1  O   UNL     1      32.317  -6.776 -19.396  0.00  0.00    -0.270 OA
ATOM      2  N   UNL     1      32.609  -7.784 -21.513  0.00  0.00    -0.265 N 
ATOM      3  C   UNL     1      32.560  -9.137 -22.056  0.00  0.00    +0.124 C 
ATOM      4  C   UNL     1      32.238  -9.944 -20.845  0.00  0.00    +0.036 C 
ATOM      5  C   UNL     1      32.354  -7.733 -20.148  0.00  0.00    +0.249 C 
ATOM      6  C   UNL     1      32.118  -9.118 -19.726  0.00  0.00    +0.054 C 
ATOM      7  C   UNL     1      32.062 -11.310 -20.726  0.00  0.00    +0.137 C 
ATOM      8  C   UNL     1      31.823  -9.605 -18.468  0.00  0.00    +0.004 C 
ATOM      9  C   UNL     1      31.763 -11.829 -19.463  0.00  0.00    +0.037 C 
ATOM     10  C   UNL     1      31.644 -10.984 -18.343  0.00  0.00    +0.003 C 
ENDROOT
BRANCH   2  14
ATOM     11  O   UNL     1      30.664  -5.890 -21.720  0.00  0.00    -0.273 OA
ATOM     12  O   UNL     1      32.378  -4.246 -25.665  0.00  0.00    -0.275 OA
ATOM     13  N   UNL     1      31.541  -5.114 -23.701  0.00  0.00    -0.254 N 
ATOM     14  C   UNL     1      32.891  -6.620 -22.311  0.00  0.00    +0.153 C 
ATOM     15  C   UNL     1      33.543  -7.002 -23.631  0.00  0.00    +0.039 C 
ATOM     16  C   UNL     1      33.792  -5.749 -24.450  0.00  0.00    +0.088 C 
ATOM     17  C   UNL     1      31.585  -5.880 -22.536  0.00  0.00    +0.246 C 
ATOM     18  C   UNL     1      32.514  -4.980 -24.686  0.00  0.00    +0.228 C 
ATOM     19  H   UNL     1      30.713  -4.601 -23.843  0.00  0.00    +0.158 HD
ENDBRANCH   2  14
BRANCH   7  20
ATOM     20  O   UNL     1      32.176 -12.132 -21.800  0.00  0.00    -0.471 OA
BRANCH  20  21
ATOM     21  C   UNL     1      33.400 -12.080 -22.534  0.00  0.00    +0.232 C 
BRANCH  21  23
ATOM     22  C   UNL     1      35.244 -15.955 -22.472  0.00  0.00    -0.043 C 
ATOM     23  C   UNL     1      34.043 -13.436 -22.512  0.00  0.00    +0.021 C 
ATOM     24  C   UNL     1      35.116 -15.223 -21.289  0.00  0.00    -0.007 C 
ATOM     25  C   UNL     1      34.772 -15.426 -23.673  0.00  0.00    -0.007 C 
ATOM     26  C   UNL     1      34.516 -13.964 -21.310  0.00  0.00    -0.001 C 
ATOM     27  C   UNL     1      34.171 -14.167 -23.693  0.00  0.00    -0.001 C 
BRANCH  22  28
ATOM     28  C   UNL     1      35.886 -17.300 -22.449  0.00  0.00    -0.050 C 
BRANCH  28  30
ATOM     29  O   UNL     1      35.677 -20.324 -19.545  0.00  0.00    -0.358 OA
ATOM     30  N   UNL     1      35.684 -17.991 -21.176  0.00  0.00    +0.393 N 
ATOM     31  C   UNL     1      34.634 -19.012 -21.300  0.00  0.00    -0.044 C 
ATOM     32  C   UNL     1      36.935 -18.608 -20.714  0.00  0.00    -0.044 C 
ATOM     33  C   UNL     1      36.696 -19.334 -19.392  0.00  0.00    +0.119 C 
ATOM     34  C   UNL     1      34.450 -19.727 -19.964  0.00  0.00    +0.119 C 
ATOM     35  H   UNL     1      35.387 -17.299 -20.488  0.00  0.00    -0.079 HD
ENDBRANCH  28  30
ENDBRANCH  22  28
ENDBRANCH  21  23
ENDBRANCH  20  21
ENDBRANCH   7  20
TORSDOF 6
ENDMDL
