MODEL 1
REMARK VINA RESULT:     -11.1      0.000      0.000
REMARK  Name = 23725625
REMARK  4 active torsions:
REMARK  status: ('A' for Active; 'I' for Inactive)
REMARK    1  A    between atoms: C_2  and  C_17
REMARK    2  A    between atoms: C_4  and  C_21
REMARK    3  A    between atoms: C_12  and  C_18
REMARK    4  A    between atoms: C_21  and  C_25
REMARK                            x       y       z     vdW  Elec       q    Type
REMARK                         _______ _______ _______ _____ _____    ______ ____
ROOT
ATOM      1  F   UNL     1      35.041 -19.375 -23.248  0.00  0.00    -0.204 F 
ATOM      2  C   UNL     1      35.804 -17.254 -22.498  0.00  0.00    +0.081 C 
ATOM      3  C   UNL     1      35.751 -15.865 -22.575  0.00  0.00    +0.003 C 
ATOM      4  C   UNL     1      34.882 -15.254 -23.478  0.00  0.00    -0.016 C 
ATOM      5  C   UNL     1      34.994 -18.037 -23.316  0.00  0.00    +0.144 C 
ATOM      6  C   UNL     1      34.068 -16.033 -24.301  0.00  0.00    -0.002 C 
ATOM      7  C   UNL     1      34.124 -17.424 -24.219  0.00  0.00    +0.029 C 
ENDROOT
BRANCH   2  17
ATOM      8  O   UNL     1      35.521 -22.217 -17.182  0.00  0.00    -0.275 OA
ATOM      9  O   UNL     1      37.922 -17.786 -21.790  0.00  0.00    -0.270 OA
ATOM     10  N   UNL     1      35.201 -20.799 -19.001  0.00  0.00    -0.276 N 
ATOM     11  N   UNL     1      36.171 -18.580 -20.461  0.00  0.00    -0.273 N 
ATOM     12  C   UNL     1      34.777 -21.581 -17.923  0.00  0.00    +0.225 C 
ATOM     13  C   UNL     1      34.312 -20.109 -19.945  0.00  0.00    +0.115 C 
ATOM     14  C   UNL     1      36.631 -20.698 -19.309  0.00  0.00    +0.115 C 
ATOM     15  C   UNL     1      34.741 -18.655 -20.128  0.00  0.00    +0.115 C 
ATOM     16  C   UNL     1      37.049 -19.243 -19.497  0.00  0.00    +0.115 C 
ATOM     17  C   UNL     1      36.721 -17.895 -21.546  0.00  0.00    +0.251 C 
BRANCH  12  18
ATOM     18  C   UNL     1      33.306 -21.641 -17.658  0.00  0.00    +0.077 C 
ATOM     19  C   UNL     1      32.848 -21.972 -16.280  0.00  0.00    +0.010 C 
ATOM     20  C   UNL     1      32.691 -22.970 -17.389  0.00  0.00    +0.010 C 
ENDBRANCH  12  18
ENDBRANCH   2  17
BRANCH   4  21
ATOM     21  C   UNL     1      34.824 -13.766 -23.567  0.00  0.00    +0.074 C 
BRANCH  21  25
ATOM     22  O   UNL     1      31.574 -11.756 -19.612  0.00  0.00    -0.266 OA
ATOM     23  N   UNL     1      33.568 -13.964 -21.545  0.00  0.00    -0.174 NA
ATOM     24  N   UNL     1      32.768 -13.460 -20.577  0.00  0.00    -0.242 N 
ATOM     25  C   UNL     1      33.941 -13.184 -22.510  0.00  0.00    +0.083 A 
ATOM     26  C   UNL     1      33.537 -11.767 -22.610  0.00  0.00    +0.020 A 
ATOM     27  C   UNL     1      32.716 -11.268 -21.603  0.00  0.00    +0.059 A 
ATOM     28  C   UNL     1      33.945 -10.932 -23.655  0.00  0.00    +0.001 C 
ATOM     29  C   UNL     1      32.299 -12.166 -20.514  0.00  0.00    +0.273 A 
ATOM     30  C   UNL     1      32.292  -9.936 -21.631  0.00  0.00    +0.005 C 
ATOM     31  C   UNL     1      33.523  -9.601 -23.683  0.00  0.00    +0.000 C 
ATOM     32  C   UNL     1      32.699  -9.104 -22.673  0.00  0.00    +0.000 C 
ATOM     33  H   UNL     1      32.498 -14.072 -19.855  0.00  0.00    +0.192 HD
ENDBRANCH  21  25
ENDBRANCH   4  21
TORSDOF 4
ENDMDL
MODEL 2
REMARK VINA RESULT:     -11.0      6.308      9.708
REMARK  Name = 23725625
REMARK  4 active torsions:
REMARK  status: ('A' for Active; 'I' for Inactive)
REMARK    1  A    between atoms: C_2  and  C_17
REMARK    2  A    between atoms: C_4  and  C_21
REMARK    3  A    between atoms: C_12  and  C_18
REMARK    4  A    between atoms: C_21  and  C_25
REMARK                            x       y       z     vdW  Elec       q    Type
REMARK                         _______ _______ _______ _____ _____    ______ ____
ROOT
ATOM      1  F   UNL     1      36.812 -25.260 -12.348  0.00  0.00    -0.204 F 
ATOM      2  C   UNL     1      35.881 -23.358 -13.424  0.00  0.00    +0.081 C 
ATOM      3  C   UNL     1      35.964 -22.378 -14.409  0.00  0.00    +0.003 C 
ATOM      4  C   UNL     1      37.059 -22.354 -15.273  0.00  0.00    -0.016 C 
ATOM      5  C   UNL     1      36.884 -24.314 -13.296  0.00  0.00    +0.144 C 
ATOM      6  C   UNL     1      38.068 -23.309 -15.148  0.00  0.00    -0.002 C 
ATOM      7  C   UNL     1      37.980 -24.290 -14.160  0.00  0.00    +0.029 C 
ENDROOT
BRANCH   2  17
ATOM      8  O   UNL     1      28.644 -24.000 -13.852  0.00  0.00    -0.275 OA
ATOM      9  O   UNL     1      34.974 -23.570 -11.326  0.00  0.00    -0.270 OA
ATOM     10  N   UNL     1      30.954 -23.956 -14.145  0.00  0.00    -0.276 N 
ATOM     11  N   UNL     1      33.455 -23.201 -13.064  0.00  0.00    -0.273 N 
ATOM     12  C   UNL     1      29.627 -23.871 -14.577  0.00  0.00    +0.225 C 
ATOM     13  C   UNL     1      32.132 -23.893 -15.021  0.00  0.00    +0.115 C 
ATOM     14  C   UNL     1      31.245 -24.215 -12.732  0.00  0.00    +0.115 C 
ATOM     15  C   UNL     1      33.161 -22.906 -14.473  0.00  0.00    +0.115 C 
ATOM     16  C   UNL     1      32.278 -23.230 -12.195  0.00  0.00    +0.115 C 
ATOM     17  C   UNL     1      34.727 -23.381 -12.516  0.00  0.00    +0.251 C 
BRANCH  12  18
ATOM     18  C   UNL     1      29.396 -23.602 -16.029  0.00  0.00    +0.077 C 
ATOM     19  C   UNL     1      29.160 -22.195 -16.459  0.00  0.00    +0.010 C 
ATOM     20  C   UNL     1      28.033 -23.186 -16.462  0.00  0.00    +0.010 C 
ENDBRANCH  12  18
ENDBRANCH   2  17
BRANCH   4  21
ATOM     21  C   UNL     1      37.154 -21.304 -16.328  0.00  0.00    +0.074 C 
BRANCH  21  25
ATOM     22  O   UNL     1      32.771 -21.544 -19.640  0.00  0.00    -0.266 OA
ATOM     23  N   UNL     1      34.992 -22.118 -16.933  0.00  0.00    -0.174 NA
ATOM     24  N   UNL     1      33.918 -22.170 -17.755  0.00  0.00    -0.242 N 
ATOM     25  C   UNL     1      35.980 -21.343 -17.252  0.00  0.00    +0.083 A 
ATOM     26  C   UNL     1      35.997 -20.510 -18.472  0.00  0.00    +0.020 A 
ATOM     27  C   UNL     1      34.882 -20.577 -19.302  0.00  0.00    +0.059 A 
ATOM     28  C   UNL     1      37.067 -19.676 -18.808  0.00  0.00    +0.001 C 
ATOM     29  C   UNL     1      33.767 -21.463 -18.927  0.00  0.00    +0.273 A 
ATOM     30  C   UNL     1      34.825 -19.818 -20.475  0.00  0.00    +0.005 C 
ATOM     31  C   UNL     1      37.011 -18.916 -19.979  0.00  0.00    +0.000 C 
ATOM     32  C   UNL     1      35.893 -18.986 -20.809  0.00  0.00    +0.000 C 
ATOM     33  H   UNL     1      33.180 -22.766 -17.491  0.00  0.00    +0.192 HD
ENDBRANCH  21  25
ENDBRANCH   4  21
TORSDOF 4
ENDMDL
MODEL 3
REMARK VINA RESULT:     -10.9      2.221      9.589
REMARK  Name = 23725625
REMARK  4 active torsions:
REMARK  status: ('A' for Active; 'I' for Inactive)
REMARK    1  A    between atoms: C_2  and  C_17
REMARK    2  A    between atoms: C_4  and  C_21
REMARK    3  A    between atoms: C_12  and  C_18
REMARK    4  A    between atoms: C_21  and  C_25
REMARK                            x       y       z     vdW  Elec       q    Type
REMARK                         _______ _______ _______ _____ _____    ______ ____
ROOT
ATOM      1  F   UNL     1      37.885 -18.698 -20.333  0.00  0.00    -0.204 F 
ATOM      2  C   UNL     1      35.667 -19.517 -20.554  0.00  0.00    +0.081 C 
ATOM      3  C   UNL     1      34.621 -20.292 -20.062  0.00  0.00    +0.003 C 
ATOM      4  C   UNL     1      34.782 -20.998 -18.869  0.00  0.00    -0.016 C 
ATOM      5  C   UNL     1      36.873 -19.441 -19.864  0.00  0.00    +0.144 C 
ATOM      6  C   UNL     1      35.990 -20.926 -18.174  0.00  0.00    -0.002 C 
ATOM      7  C   UNL     1      37.035 -20.147 -18.670  0.00  0.00    +0.029 C 
ENDROOT
BRANCH   2  17
ATOM      8  O   UNL     1      34.276 -12.701 -22.692  0.00  0.00    -0.275 OA
ATOM      9  O   UNL     1      35.894 -19.333 -22.831  0.00  0.00    -0.270 OA
ATOM     10  N   UNL     1      34.818 -14.686 -21.604  0.00  0.00    -0.276 N 
ATOM     11  N   UNL     1      34.910 -17.509 -21.751  0.00  0.00    -0.273 N 
ATOM     12  C   UNL     1      34.325 -13.380 -21.671  0.00  0.00    +0.225 C 
ATOM     13  C   UNL     1      34.964 -15.472 -20.370  0.00  0.00    +0.115 C 
ATOM     14  C   UNL     1      35.325 -15.337 -22.816  0.00  0.00    +0.115 C 
ATOM     15  C   UNL     1      34.369 -16.867 -20.545  0.00  0.00    +0.115 C 
ATOM     16  C   UNL     1      34.731 -16.732 -22.979  0.00  0.00    +0.115 C 
ATOM     17  C   UNL     1      35.494 -18.776 -21.810  0.00  0.00    +0.251 C 
BRANCH  12  18
ATOM     18  C   UNL     1      33.819 -12.774 -20.401  0.00  0.00    +0.077 C 
ATOM     19  C   UNL     1      32.481 -13.194 -19.899  0.00  0.00    +0.010 C 
ATOM     20  C   UNL     1      32.676 -11.824 -20.478  0.00  0.00    +0.010 C 
ENDBRANCH  12  18
ENDBRANCH   2  17
BRANCH   4  21
ATOM     21  C   UNL     1      33.665 -21.832 -18.339  0.00  0.00    +0.074 C 
BRANCH  21  25
ATOM     22  O   UNL     1      34.752 -23.441 -13.194  0.00  0.00    -0.266 OA
ATOM     23  N   UNL     1      35.151 -22.488 -16.589  0.00  0.00    -0.174 NA
ATOM     24  N   UNL     1      35.408 -22.884 -15.321  0.00  0.00    -0.242 N 
ATOM     25  C   UNL     1      33.922 -22.268 -16.933  0.00  0.00    +0.083 A 
ATOM     26  C   UNL     1      32.780 -22.427 -16.009  0.00  0.00    +0.020 A 
ATOM     27  C   UNL     1      33.066 -22.833 -14.709  0.00  0.00    +0.059 A 
ATOM     28  C   UNL     1      31.456 -22.186 -16.388  0.00  0.00    +0.001 C 
ATOM     29  C   UNL     1      34.468 -23.081 -14.333  0.00  0.00    +0.273 A 
ATOM     30  C   UNL     1      32.038 -23.006 -13.778  0.00  0.00    +0.005 C 
ATOM     31  C   UNL     1      30.427 -22.357 -15.459  0.00  0.00    +0.000 C 
ATOM     32  C   UNL     1      30.718 -22.765 -14.158  0.00  0.00    +0.000 C 
ATOM     33  H   UNL     1      36.350 -23.045 -15.083  0.00  0.00    +0.192 HD
ENDBRANCH  21  25
ENDBRANCH   4  21
TORSDOF 4
ENDMDL
MODEL 4
REMARK VINA RESULT:     -10.7      4.795     11.138
REMARK  Name = 23725625
REMARK  4 active torsions:
REMARK  status: ('A' for Active; 'I' for Inactive)
REMARK    1  A    between atoms: C_2  and  C_17
REMARK    2  A    between atoms: C_4  and  C_21
REMARK    3  A    between atoms: C_12  and  C_18
REMARK    4  A    between atoms: C_21  and  C_25
REMARK                            x       y       z     vdW  Elec       q    Type
REMARK                         _______ _______ _______ _____ _____    ______ ____
ROOT
ATOM      1  F   UNL     1      30.470 -10.946 -19.068  0.00  0.00    -0.204 F 
ATOM      2  C   UNL     1      32.320 -10.295 -20.408  0.00  0.00    +0.081 C 
ATOM      3  C   UNL     1      33.327 -10.635 -21.307  0.00  0.00    +0.003 C 
ATOM      4  C   UNL     1      33.455 -11.955 -21.738  0.00  0.00    -0.016 C 
ATOM      5  C   UNL     1      31.441 -11.265 -19.936  0.00  0.00    +0.144 C 
ATOM      6  C   UNL     1      32.577 -12.932 -21.267  0.00  0.00    -0.002 C 
ATOM      7  C   UNL     1      31.569 -12.587 -20.367  0.00  0.00    +0.029 C 
ENDROOT
BRANCH   2  17
ATOM      8  O   UNL     1      31.591  -3.676 -23.344  0.00  0.00    -0.275 OA
ATOM      9  O   UNL     1      31.886  -8.742 -18.774  0.00  0.00    -0.270 OA
ATOM     10  N   UNL     1      31.706  -5.943 -22.823  0.00  0.00    -0.276 N 
ATOM     11  N   UNL     1      32.396  -7.887 -20.889  0.00  0.00    -0.273 N 
ATOM     12  C   UNL     1      31.808  -4.839 -23.674  0.00  0.00    +0.225 C 
ATOM     13  C   UNL     1      31.875  -7.343 -23.233  0.00  0.00    +0.115 C 
ATOM     14  C   UNL     1      31.314  -5.750 -21.423  0.00  0.00    +0.115 C 
ATOM     15  C   UNL     1      32.823  -8.073 -22.283  0.00  0.00    +0.115 C 
ATOM     16  C   UNL     1      32.261  -6.488 -20.482  0.00  0.00    +0.115 C 
ATOM     17  C   UNL     1      32.187  -8.904 -19.956  0.00  0.00    +0.251 C 
BRANCH  12  18
ATOM     18  C   UNL     1      32.215  -5.101 -25.089  0.00  0.00    +0.077 C 
ATOM     19  C   UNL     1      33.620  -4.810 -25.487  0.00  0.00    +0.010 C 
ATOM     20  C   UNL     1      32.501  -3.935 -25.969  0.00  0.00    +0.010 C 
ENDBRANCH  12  18
ENDBRANCH   2  17
BRANCH   4  21
ATOM     21  C   UNL     1      34.534 -12.325 -22.700  0.00  0.00    +0.074 C 
BRANCH  21  25
ATOM     22  O   UNL     1      33.040 -16.565 -25.866  0.00  0.00    -0.266 OA
ATOM     23  N   UNL     1      33.407 -13.280 -24.576  0.00  0.00    -0.174 NA
ATOM     24  N   UNL     1      33.045 -14.330 -25.348  0.00  0.00    -0.242 N 
ATOM     25  C   UNL     1      34.148 -13.501 -23.536  0.00  0.00    +0.083 A 
ATOM     26  C   UNL     1      34.620 -14.846 -23.147  0.00  0.00    +0.020 A 
ATOM     27  C   UNL     1      34.237 -15.912 -23.956  0.00  0.00    +0.059 A 
ATOM     28  C   UNL     1      35.420 -15.076 -22.024  0.00  0.00    +0.001 C 
ATOM     29  C   UNL     1      33.394 -15.646 -25.134  0.00  0.00    +0.273 A 
ATOM     30  C   UNL     1      34.645 -17.214 -23.652  0.00  0.00    +0.005 C 
ATOM     31  C   UNL     1      35.829 -16.376 -21.719  0.00  0.00    +0.000 C 
ATOM     32  C   UNL     1      35.443 -17.442 -22.531  0.00  0.00    +0.000 C 
ATOM     33  H   UNL     1      32.482 -14.137 -26.132  0.00  0.00    +0.192 HD
ENDBRANCH  21  25
ENDBRANCH   4  21
TORSDOF 4
ENDMDL
MODEL 5
REMARK VINA RESULT:     -10.6      4.415     11.484
REMARK  Name = 23725625
REMARK  4 active torsions:
REMARK  status: ('A' for Active; 'I' for Inactive)
REMARK    1  A    between atoms: C_2  and  C_17
REMARK    2  A    between atoms: C_4  and  C_21
REMARK    3  A    between atoms: C_12  and  C_18
REMARK    4  A    between atoms: C_21  and  C_25
REMARK                            x       y       z     vdW  Elec       q    Type
REMARK                         _______ _______ _______ _____ _____    ______ ____
ROOT
ATOM      1  F   UNL     1      30.403  -9.605 -18.376  0.00  0.00    -0.204 F 
ATOM      2  C   UNL     1      32.143  -9.413 -19.981  0.00  0.00    +0.081 C 
ATOM      3  C   UNL     1      32.924  -9.994 -20.977  0.00  0.00    +0.003 C 
ATOM      4  C   UNL     1      32.718 -11.327 -21.331  0.00  0.00    -0.016 C 
ATOM      5  C   UNL     1      31.158 -10.156 -19.337  0.00  0.00    +0.144 C 
ATOM      6  C   UNL     1      31.733 -12.076 -20.688  0.00  0.00    -0.002 C 
ATOM      7  C   UNL     1      30.952 -11.490 -19.691  0.00  0.00    +0.029 C 
ENDROOT
BRANCH   2  17
ATOM      8  O   UNL     1      32.066  -2.875 -23.177  0.00  0.00    -0.275 OA
ATOM      9  O   UNL     1      32.341  -7.754 -18.407  0.00  0.00    -0.270 OA
ATOM     10  N   UNL     1      31.865  -5.103 -22.531  0.00  0.00    -0.276 N 
ATOM     11  N   UNL     1      32.562  -7.082 -20.635  0.00  0.00    -0.273 N 
ATOM     12  C   UNL     1      31.995  -4.068 -23.461  0.00  0.00    +0.225 C 
ATOM     13  C   UNL     1      31.688  -6.523 -22.867  0.00  0.00    +0.115 C 
ATOM     14  C   UNL     1      31.806  -4.794 -21.099  0.00  0.00    +0.115 C 
ATOM     15  C   UNL     1      32.657  -7.392 -22.068  0.00  0.00    +0.115 C 
ATOM     16  C   UNL     1      32.771  -5.671 -20.308  0.00  0.00    +0.115 C 
ATOM     17  C   UNL     1      32.362  -8.010 -19.611  0.00  0.00    +0.251 C 
BRANCH  12  18
ATOM     18  C   UNL     1      32.052  -4.449 -24.905  0.00  0.00    +0.077 C 
ATOM     19  C   UNL     1      33.380  -4.466 -25.581  0.00  0.00    +0.010 C 
ATOM     20  C   UNL     1      32.382  -3.392 -25.902  0.00  0.00    +0.010 C 
ENDBRANCH  12  18
ENDBRANCH   2  17
BRANCH   4  21
ATOM     21  C   UNL     1      33.555 -11.954 -22.396  0.00  0.00    +0.074 C 
BRANCH  21  25
ATOM     22  O   UNL     1      35.725 -16.676 -20.600  0.00  0.00    -0.266 OA
ATOM     23  N   UNL     1      34.506 -13.346 -20.705  0.00  0.00    -0.174 NA
ATOM     24  N   UNL     1      35.039 -14.512 -20.273  0.00  0.00    -0.242 N 
ATOM     25  C   UNL     1      34.140 -13.252 -21.944  0.00  0.00    +0.083 A 
ATOM     26  C   UNL     1      34.275 -14.357 -22.915  0.00  0.00    +0.020 A 
ATOM     27  C   UNL     1      34.825 -15.548 -22.450  0.00  0.00    +0.059 A 
ATOM     28  C   UNL     1      33.878 -14.248 -24.251  0.00  0.00    +0.001 C 
ATOM     29  C   UNL     1      35.237 -15.639 -21.039  0.00  0.00    +0.273 A 
ATOM     30  C   UNL     1      34.985 -16.638 -23.311  0.00  0.00    +0.005 C 
ATOM     31  C   UNL     1      34.036 -15.336 -25.112  0.00  0.00    +0.000 C 
ATOM     32  C   UNL     1      34.587 -16.528 -24.642  0.00  0.00    +0.000 C 
ATOM     33  H   UNL     1      35.309 -14.558 -19.327  0.00  0.00    +0.192 HD
ENDBRANCH  21  25
ENDBRANCH   4  21
TORSDOF 4
ENDMDL
MODEL 6
REMARK VINA RESULT:     -10.5      4.056     10.908
REMARK  Name = 23725625
REMARK  4 active torsions:
REMARK  status: ('A' for Active; 'I' for Inactive)
REMARK    1  A    between atoms: C_2  and  C_17
REMARK    2  A    between atoms: C_4  and  C_21
REMARK    3  A    between atoms: C_12  and  C_18
REMARK    4  A    between atoms: C_21  and  C_25
REMARK                            x       y       z     vdW  Elec       q    Type
REMARK                         _______ _______ _______ _____ _____    ______ ____
ROOT
ATOM      1  F   UNL     1      33.478 -21.618 -19.601  0.00  0.00    -0.204 F 
ATOM      2  C   UNL     1      35.704 -21.082 -18.971  0.00  0.00    +0.081 C 
ATOM      3  C   UNL     1      36.688 -21.012 -17.988  0.00  0.00    +0.003 C 
ATOM      4  C   UNL     1      36.396 -21.415 -16.685  0.00  0.00    -0.016 C 
ATOM      5  C   UNL     1      34.431 -21.550 -18.661  0.00  0.00    +0.144 C 
ATOM      6  C   UNL     1      35.121 -21.885 -16.369  0.00  0.00    -0.002 C 
ATOM      7  C   UNL     1      34.138 -21.953 -17.357  0.00  0.00    +0.029 C 
ENDROOT
BRANCH   2  17
ATOM      8  O   UNL     1      35.614 -14.967 -22.917  0.00  0.00    -0.275 OA
ATOM      9  O   UNL     1      36.689 -21.436 -21.014  0.00  0.00    -0.270 OA
ATOM     10  N   UNL     1      35.614 -16.638 -21.296  0.00  0.00    -0.276 N 
ATOM     11  N   UNL     1      35.540 -19.416 -20.770  0.00  0.00    -0.273 N 
ATOM     12  C   UNL     1      35.269 -15.388 -21.816  0.00  0.00    +0.225 C 
ATOM     13  C   UNL     1      35.282 -17.111 -19.945  0.00  0.00    +0.115 C 
ATOM     14  C   UNL     1      36.446 -17.552 -22.085  0.00  0.00    +0.115 C 
ATOM     15  C   UNL     1      34.677 -18.512 -19.996  0.00  0.00    +0.115 C 
ATOM     16  C   UNL     1      35.838 -18.950 -22.125  0.00  0.00    +0.115 C 
ATOM     17  C   UNL     1      36.014 -20.657 -20.342  0.00  0.00    +0.251 C 
BRANCH  12  18
ATOM     18  C   UNL     1      34.416 -14.503 -20.964  0.00  0.00    +0.077 C 
ATOM     19  C   UNL     1      33.548 -13.497 -21.636  0.00  0.00    +0.010 C 
ATOM     20  C   UNL     1      34.764 -13.058 -20.876  0.00  0.00    +0.010 C 
ENDBRANCH  12  18
ENDBRANCH   2  17
BRANCH   4  21
ATOM     21  C   UNL     1      37.446 -21.340 -15.628  0.00  0.00    +0.074 C 
BRANCH  21  25
ATOM     22  O   UNL     1      36.327 -24.798 -11.502  0.00  0.00    -0.266 OA
ATOM     23  N   UNL     1      36.073 -22.152 -13.851  0.00  0.00    -0.174 NA
ATOM     24  N   UNL     1      35.807 -23.007 -12.838  0.00  0.00    -0.242 N 
ATOM     25  C   UNL     1      37.176 -22.299 -14.514  0.00  0.00    +0.083 A 
ATOM     26  C   UNL     1      38.165 -23.356 -14.220  0.00  0.00    +0.020 A 
ATOM     27  C   UNL     1      37.871 -24.226 -13.174  0.00  0.00    +0.059 A 
ATOM     28  C   UNL     1      39.353 -23.508 -14.940  0.00  0.00    +0.001 C 
ATOM     29  C   UNL     1      36.614 -24.047 -12.429  0.00  0.00    +0.273 A 
ATOM     30  C   UNL     1      38.759 -25.252 -12.836  0.00  0.00    +0.005 C 
ATOM     31  C   UNL     1      40.241 -24.533 -14.604  0.00  0.00    +0.000 C 
ATOM     32  C   UNL     1      39.944 -25.403 -13.555  0.00  0.00    +0.000 C 
ATOM     33  H   UNL     1      34.962 -22.876 -12.349  0.00  0.00    +0.192 HD
ENDBRANCH  21  25
ENDBRANCH   4  21
TORSDOF 4
ENDMDL
MODEL 7
REMARK VINA RESULT:     -10.4      4.085      7.167
REMARK  Name = 23725625
REMARK  4 active torsions:
REMARK  status: ('A' for Active; 'I' for Inactive)
REMARK    1  A    between atoms: C_2  and  C_17
REMARK    2  A    between atoms: C_4  and  C_21
REMARK    3  A    between atoms: C_12  and  C_18
REMARK    4  A    between atoms: C_21  and  C_25
REMARK                            x       y       z     vdW  Elec       q    Type
REMARK                         _______ _______ _______ _____ _____    ______ ____
ROOT
ATOM      1  F   UNL     1      36.003  -9.736 -25.176  0.00  0.00    -0.204 F 
ATOM      2  C   UNL     1      33.920 -10.448 -24.285  0.00  0.00    +0.081 C 
ATOM      3  C   UNL     1      32.877 -10.264 -23.381  0.00  0.00    +0.003 C 
ATOM      4  C   UNL     1      32.910  -9.188 -22.494  0.00  0.00    -0.016 C 
ATOM      5  C   UNL     1      34.995  -9.564 -24.309  0.00  0.00    +0.144 C 
ATOM      6  C   UNL     1      33.986  -8.300 -22.513  0.00  0.00    -0.002 C 
ATOM      7  C   UNL     1      35.028  -8.488 -23.421  0.00  0.00    +0.029 C 
ENDROOT
BRANCH   2  17
ATOM      8  O   UNL     1      34.486 -17.700 -24.047  0.00  0.00    -0.275 OA
ATOM      9  O   UNL     1      33.412 -11.355 -26.331  0.00  0.00    -0.270 OA
ATOM     10  N   UNL     1      34.240 -15.415 -23.670  0.00  0.00    -0.276 N 
ATOM     11  N   UNL     1      34.364 -12.815 -24.774  0.00  0.00    -0.273 N 
ATOM     12  C   UNL     1      34.614 -16.716 -23.322  0.00  0.00    +0.225 C 
ATOM     13  C   UNL     1      34.306 -14.251 -22.775  0.00  0.00    +0.115 C 
ATOM     14  C   UNL     1      33.649 -15.154 -24.985  0.00  0.00    +0.115 C 
ATOM     15  C   UNL     1      34.989 -13.074 -23.470  0.00  0.00    +0.115 C 
ATOM     16  C   UNL     1      34.332 -13.973 -25.668  0.00  0.00    +0.115 C 
ATOM     17  C   UNL     1      33.882 -11.582 -25.217  0.00  0.00    +0.251 C 
BRANCH  12  18
ATOM     18  C   UNL     1      35.214 -16.918 -21.968  0.00  0.00    +0.077 C 
ATOM     19  C   UNL     1      36.527 -17.616 -21.872  0.00  0.00    +0.010 C 
ATOM     20  C   UNL     1      35.271 -18.301 -21.419  0.00  0.00    +0.010 C 
ENDBRANCH  12  18
ENDBRANCH   2  17
BRANCH   4  21
ATOM     21  C   UNL     1      31.797  -8.989 -21.521  0.00  0.00    +0.074 C 
BRANCH  21  25
ATOM     22  O   UNL     1      32.844  -4.915 -17.979  0.00  0.00    -0.266 OA
ATOM     23  N   UNL     1      32.349  -8.148 -19.356  0.00  0.00    -0.174 NA
ATOM     24  N   UNL     1      32.606  -7.138 -18.492  0.00  0.00    -0.242 N 
ATOM     25  C   UNL     1      32.076  -7.856 -20.588  0.00  0.00    +0.083 A 
ATOM     26  C   UNL     1      32.028  -6.472 -21.102  0.00  0.00    +0.020 A 
ATOM     27  C   UNL     1      32.296  -5.448 -20.197  0.00  0.00    +0.059 A 
ATOM     28  C   UNL     1      31.733  -6.165 -22.433  0.00  0.00    +0.001 C 
ATOM     29  C   UNL     1      32.605  -5.795 -18.800  0.00  0.00    +0.273 A 
ATOM     30  C   UNL     1      32.270  -4.113 -20.611  0.00  0.00    +0.005 C 
ATOM     31  C   UNL     1      31.707  -4.832 -22.848  0.00  0.00    +0.000 C 
ATOM     32  C   UNL     1      31.975  -3.809 -21.939  0.00  0.00    +0.000 C 
ATOM     33  H   UNL     1      32.811  -7.385 -17.561  0.00  0.00    +0.192 HD
ENDBRANCH  21  25
ENDBRANCH   4  21
TORSDOF 4
ENDMDL
MODEL 8
REMARK VINA RESULT:     -10.4      2.801      4.675
REMARK  Name = 23725625
REMARK  4 active torsions:
REMARK  status: ('A' for Active; 'I' for Inactive)
REMARK    1  A    between atoms: C_2  and  C_17
REMARK    2  A    between atoms: C_4  and  C_21
REMARK    3  A    between atoms: C_12  and  C_18
REMARK    4  A    between atoms: C_21  and  C_25
REMARK                            x       y       z     vdW  Elec       q    Type
REMARK                         _______ _______ _______ _____ _____    ______ ____
ROOT
ATOM      1  F   UNL     1      36.713 -21.658 -19.701  0.00  0.00    -0.204 F 
ATOM      2  C   UNL     1      35.067 -19.947 -19.675  0.00  0.00    +0.081 C 
ATOM      3  C   UNL     1      34.714 -18.619 -19.904  0.00  0.00    +0.003 C 
ATOM      4  C   UNL     1      35.668 -17.721 -20.382  0.00  0.00    -0.016 C 
ATOM      5  C   UNL     1      36.366 -20.382 -19.921  0.00  0.00    +0.144 C 
ATOM      6  C   UNL     1      36.972 -18.153 -20.629  0.00  0.00    -0.002 C 
ATOM      7  C   UNL     1      37.320 -19.483 -20.399  0.00  0.00    +0.029 C 
ENDROOT
BRANCH   2  17
ATOM      8  O   UNL     1      33.916 -24.014 -13.751  0.00  0.00    -0.275 OA
ATOM      9  O   UNL     1      32.972 -20.882 -19.745  0.00  0.00    -0.270 OA
ATOM     10  N   UNL     1      34.590 -22.495 -15.382  0.00  0.00    -0.276 N 
ATOM     11  N   UNL     1      34.404 -21.703 -18.090  0.00  0.00    -0.273 N 
ATOM     12  C   UNL     1      34.780 -23.303 -14.257  0.00  0.00    +0.225 C 
ATOM     13  C   UNL     1      35.590 -21.573 -15.937  0.00  0.00    +0.115 C 
ATOM     14  C   UNL     1      33.282 -22.462 -16.043  0.00  0.00    +0.115 C 
ATOM     15  C   UNL     1      35.723 -21.765 -17.447  0.00  0.00    +0.115 C 
ATOM     16  C   UNL     1      33.425 -22.647 -17.550  0.00  0.00    +0.115 C 
ATOM     17  C   UNL     1      34.061 -20.890 -19.172  0.00  0.00    +0.251 C 
BRANCH  12  18
ATOM     18  C   UNL     1      36.137 -23.295 -13.630  0.00  0.00    +0.077 C 
ATOM     19  C   UNL     1      37.083 -24.391 -13.978  0.00  0.00    +0.010 C 
ATOM     20  C   UNL     1      36.453 -24.340 -12.617  0.00  0.00    +0.010 C 
ENDBRANCH  12  18
ENDBRANCH   2  17
BRANCH   4  21
ATOM     21  C   UNL     1      35.296 -16.297 -20.626  0.00  0.00    +0.074 C 
BRANCH  21  25
ATOM     22  O   UNL     1      33.992 -15.561 -25.917  0.00  0.00    -0.266 OA
ATOM     23  N   UNL     1      34.977 -17.073 -22.862  0.00  0.00    -0.174 NA
ATOM     24  N   UNL     1      34.655 -16.881 -24.162  0.00  0.00    -0.242 N 
ATOM     25  C   UNL     1      34.935 -16.059 -22.057  0.00  0.00    +0.083 A 
ATOM     26  C   UNL     1      34.551 -14.698 -22.485  0.00  0.00    +0.020 A 
ATOM     27  C   UNL     1      34.222 -14.523 -23.826  0.00  0.00    +0.059 A 
ATOM     28  C   UNL     1      34.507 -13.610 -21.609  0.00  0.00    +0.001 C 
ATOM     29  C   UNL     1      34.276 -15.684 -24.730  0.00  0.00    +0.273 A 
ATOM     30  C   UNL     1      33.850 -13.264 -24.305  0.00  0.00    +0.005 C 
ATOM     31  C   UNL     1      34.135 -12.351 -22.086  0.00  0.00    +0.000 C 
ATOM     32  C   UNL     1      33.806 -12.179 -23.430  0.00  0.00    +0.000 C 
ATOM     33  H   UNL     1      34.695 -17.666 -24.755  0.00  0.00    +0.192 HD
ENDBRANCH  21  25
ENDBRANCH   4  21
TORSDOF 4
ENDMDL
MODEL 9
REMARK VINA RESULT:     -10.4      3.843      6.451
REMARK  Name = 23725625
REMARK  4 active torsions:
REMARK  status: ('A' for Active; 'I' for Inactive)
REMARK    1  A    between atoms: C_2  and  C_17
REMARK    2  A    between atoms: C_4  and  C_21
REMARK    3  A    between atoms: C_12  and  C_18
REMARK    4  A    between atoms: C_21  and  C_25
REMARK                            x       y       z     vdW  Elec       q    Type
REMARK                         _______ _______ _______ _____ _____    ______ ____
ROOT
ATOM      1  F   UNL     1      31.950 -13.040 -22.293  0.00  0.00    -0.204 F 
ATOM      2  C   UNL     1      33.579 -11.717 -23.405  0.00  0.00    +0.081 C 
ATOM      3  C   UNL     1      34.255 -10.507 -23.535  0.00  0.00    +0.003 C 
ATOM      4  C   UNL     1      33.955  -9.450 -22.676  0.00  0.00    -0.016 C 
ATOM      5  C   UNL     1      32.606 -11.878 -22.423  0.00  0.00    +0.144 C 
ATOM      6  C   UNL     1      32.980  -9.606 -21.690  0.00  0.00    -0.002 C 
ATOM      7  C   UNL     1      32.306 -10.820 -21.563  0.00  0.00    +0.029 C 
ENDROOT
BRANCH   2  17
ATOM      8  O   UNL     1      35.694 -18.665 -22.948  0.00  0.00    -0.275 OA
ATOM      9  O   UNL     1      33.516 -12.707 -25.475  0.00  0.00    -0.270 OA
ATOM     10  N   UNL     1      34.912 -16.493 -22.650  0.00  0.00    -0.276 N 
ATOM     11  N   UNL     1      34.584 -13.926 -23.791  0.00  0.00    -0.273 N 
ATOM     12  C   UNL     1      35.521 -17.681 -22.236  0.00  0.00    +0.225 C 
ATOM     13  C   UNL     1      34.619 -15.346 -21.780  0.00  0.00    +0.115 C 
ATOM     14  C   UNL     1      34.429 -16.364 -24.028  0.00  0.00    +0.115 C 
ATOM     15  C   UNL     1      35.100 -14.045 -22.420  0.00  0.00    +0.115 C 
ATOM     16  C   UNL     1      34.908 -15.059 -24.657  0.00  0.00    +0.115 C 
ATOM     17  C   UNL     1      33.896 -12.828 -24.311  0.00  0.00    +0.251 C 
BRANCH  12  18
ATOM     18  C   UNL     1      35.994 -17.749 -20.819  0.00  0.00    +0.077 C 
ATOM     19  C   UNL     1      37.146 -18.638 -20.500  0.00  0.00    +0.010 C 
ATOM     20  C   UNL     1      35.761 -19.006 -20.056  0.00  0.00    +0.010 C 
ENDBRANCH  12  18
ENDBRANCH   2  17
BRANCH   4  21
ATOM     21  C   UNL     1      34.675  -8.150 -22.813  0.00  0.00    +0.074 C 
BRANCH  21  25
ATOM     22  O   UNL     1      31.193  -3.949 -23.490  0.00  0.00    -0.266 OA
ATOM     23  N   UNL     1      33.447  -6.606 -24.158  0.00  0.00    -0.174 NA
ATOM     24  N   UNL     1      32.589  -5.571 -24.314  0.00  0.00    -0.242 N 
ATOM     25  C   UNL     1      33.725  -7.006 -22.957  0.00  0.00    +0.083 A 
ATOM     26  C   UNL     1      33.152  -6.389 -21.744  0.00  0.00    +0.020 A 
ATOM     27  C   UNL     1      32.271  -5.327 -21.927  0.00  0.00    +0.059 A 
ATOM     28  C   UNL     1      33.456  -6.827 -20.452  0.00  0.00    +0.001 C 
ATOM     29  C   UNL     1      31.965  -4.883 -23.297  0.00  0.00    +0.273 A 
ATOM     30  C   UNL     1      31.689  -4.692 -20.825  0.00  0.00    +0.005 C 
ATOM     31  C   UNL     1      32.875  -6.194 -19.351  0.00  0.00    +0.000 C 
ATOM     32  C   UNL     1      31.993  -5.131 -19.537  0.00  0.00    +0.000 C 
ATOM     33  H   UNL     1      32.394  -5.285 -25.235  0.00  0.00    +0.192 HD
ENDBRANCH  21  25
ENDBRANCH   4  21
TORSDOF 4
ENDMDL
