MODEL 1
REMARK VINA RESULT:     -11.8      0.000      0.000
REMARK  Name = 9863827
REMARK  4 active torsions:
REMARK  status: ('A' for Active; 'I' for Inactive)
REMARK    1  A    between atoms: N_2  and  C_23
REMARK    2  A    between atoms: C_7  and  C_27
REMARK    3  A    between atoms: C_9  and  C_15
REMARK    4  A    between atoms: C_27  and  O_28
REMARK                            x       y       z     vdW  Elec       q    Type
REMARK                         _______ _______ _______ _____ _____    ______ ____
ROOT
ATOM      1  O   UNL     1      38.660 -23.265 -13.209  0.00  0.00    -0.286 OA
ATOM      2  N   UNL     1      34.711 -23.403 -14.214  0.00  0.00    -0.287 N 
ATOM      3  C   UNL     1      35.604 -22.713 -15.082  0.00  0.00    +0.051 C 
ATOM      4  C   UNL     1      35.198 -24.000 -13.068  0.00  0.00    +0.075 C 
ATOM      5  C   UNL     1      36.978 -22.651 -14.759  0.00  0.00    +0.053 C 
ATOM      6  C   UNL     1      35.179 -22.083 -16.263  0.00  0.00    -0.008 C 
ATOM      7  C   UNL     1      36.476 -24.001 -12.670  0.00  0.00    +0.129 C 
ATOM      8  C   UNL     1      37.475 -23.303 -13.519  0.00  0.00    +0.204 C 
ATOM      9  C   UNL     1      36.087 -21.416 -17.089  0.00  0.00    -0.001 C 
ATOM     10  C   UNL     1      37.887 -21.982 -15.589  0.00  0.00    +0.004 C 
ATOM     11  C   UNL     1      33.752 -22.072 -16.725  0.00  0.00    +0.032 C 
ATOM     12  C   UNL     1      37.437 -21.367 -16.753  0.00  0.00    -0.000 C 
ENDROOT
BRANCH   9  15
ATOM     13  N   UNL     1      36.267 -19.585 -20.331  0.00  0.00    -0.230 NA
ATOM     14  N   UNL     1      34.573 -18.869 -21.829  0.00  0.00    -0.317 N 
ATOM     15  C   UNL     1      35.664 -20.760 -18.313  0.00  0.00    +0.019 C 
ATOM     16  C   UNL     1      34.322 -20.673 -18.645  0.00  0.00    +0.000 C 
ATOM     17  C   UNL     1      36.593 -20.209 -19.176  0.00  0.00    +0.100 C 
ATOM     18  C   UNL     1      33.947 -20.039 -19.825  0.00  0.00    +0.010 C 
ATOM     19  C   UNL     1      34.950 -19.516 -20.626  0.00  0.00    +0.124 C 
ATOM     20  C   UNL     1      32.504 -19.944 -20.184  0.00  0.00    +0.034 C 
ATOM     21  C   UNL     1      35.409 -18.847 -22.985  0.00  0.00    +0.110 C 
ATOM     22  H   UNL     1      33.700 -18.416 -21.869  0.00  0.00    +0.148 HD
ENDBRANCH   9  15
BRANCH   2  23
ATOM     23  C   UNL     1      33.253 -23.537 -14.444  0.00  0.00    +0.077 C 
ATOM     24  C   UNL     1      32.387 -24.245 -13.456  0.00  0.00    +0.022 C 
ATOM     25  C   UNL     1      32.278 -22.758 -13.627  0.00  0.00    +0.022 C 
ENDBRANCH   2  23
BRANCH   7  27
ATOM     26  O   UNL     1      36.183 -24.595 -10.388  0.00  0.00    -0.245 OA
ATOM     27  C   UNL     1      36.817 -24.687 -11.423  0.00  0.00    +0.342 C 
BRANCH  27  28
ATOM     28  O   UNL     1      37.933 -25.425 -11.603  0.00  0.00    -0.477 OA
ATOM     29  H   UNL     1      38.567 -25.492 -10.916  0.00  0.00    +0.295 HD
ENDBRANCH  27  28
ENDBRANCH   7  27
TORSDOF 4
ENDMDL
MODEL 2
REMARK VINA RESULT:     -11.5      4.037      7.721
REMARK  Name = 9863827
REMARK  4 active torsions:
REMARK  status: ('A' for Active; 'I' for Inactive)
REMARK    1  A    between atoms: N_2  and  C_23
REMARK    2  A    between atoms: C_7  and  C_27
REMARK    3  A    between atoms: C_9  and  C_15
REMARK    4  A    between atoms: C_27  and  O_28
REMARK                            x       y       z     vdW  Elec       q    Type
REMARK                         _______ _______ _______ _____ _____    ______ ____
ROOT
ATOM      1  O   UNL     1      29.368 -23.879 -14.228  0.00  0.00    -0.286 OA
ATOM      2  N   UNL     1      32.201 -22.084 -16.547  0.00  0.00    -0.287 N 
ATOM      3  C   UNL     1      32.634 -22.892 -15.458  0.00  0.00    +0.051 C 
ATOM      4  C   UNL     1      30.850 -21.930 -16.788  0.00  0.00    +0.075 C 
ATOM      5  C   UNL     1      31.674 -23.527 -14.639  0.00  0.00    +0.053 C 
ATOM      6  C   UNL     1      33.990 -23.092 -15.154  0.00  0.00    -0.008 C 
ATOM      7  C   UNL     1      29.861 -22.485 -16.076  0.00  0.00    +0.129 C 
ATOM      8  C   UNL     1      30.226 -23.344 -14.921  0.00  0.00    +0.204 C 
ATOM      9  C   UNL     1      34.375 -23.894 -14.076  0.00  0.00    -0.001 C 
ATOM     10  C   UNL     1      32.062 -24.330 -13.558  0.00  0.00    +0.004 C 
ATOM     11  C   UNL     1      35.112 -22.480 -15.939  0.00  0.00    +0.032 C 
ATOM     12  C   UNL     1      33.414 -24.511 -13.281  0.00  0.00    -0.000 C 
ENDROOT
BRANCH   9  15
ATOM     13  N   UNL     1      37.828 -25.294 -14.190  0.00  0.00    -0.230 NA
ATOM     14  N   UNL     1      39.762 -24.814 -12.904  0.00  0.00    -0.317 N 
ATOM     15  C   UNL     1      35.773 -24.112 -13.749  0.00  0.00    +0.019 C 
ATOM     16  C   UNL     1      36.386 -23.392 -12.735  0.00  0.00    +0.000 C 
ATOM     17  C   UNL     1      36.524 -25.041 -14.443  0.00  0.00    +0.100 C 
ATOM     18  C   UNL     1      37.726 -23.623 -12.446  0.00  0.00    +0.010 C 
ATOM     19  C   UNL     1      38.396 -24.576 -13.195  0.00  0.00    +0.124 C 
ATOM     20  C   UNL     1      38.387 -22.851 -11.356  0.00  0.00    +0.034 C 
ATOM     21  C   UNL     1      40.698 -25.240 -13.893  0.00  0.00    +0.110 C 
ATOM     22  H   UNL     1      40.079 -24.681 -11.981  0.00  0.00    +0.148 HD
ENDBRANCH   9  15
BRANCH   2  23
ATOM     23  C   UNL     1      33.109 -21.369 -17.474  0.00  0.00    +0.077 C 
ATOM     24  C   UNL     1      33.502 -21.978 -18.778  0.00  0.00    +0.022 C 
ATOM     25  C   UNL     1      32.593 -20.785 -18.746  0.00  0.00    +0.022 C 
ENDBRANCH   2  23
BRANCH   7  27
ATOM     26  O   UNL     1      27.944 -21.122 -16.417  0.00  0.00    -0.245 OA
ATOM     27  C   UNL     1      28.479 -22.215 -16.475  0.00  0.00    +0.342 C 
BRANCH  27  28
ATOM     28  O   UNL     1      27.901 -23.355 -16.908  0.00  0.00    -0.477 OA
ATOM     29  H   UNL     1      26.973 -23.465 -16.842  0.00  0.00    +0.295 HD
ENDBRANCH  27  28
ENDBRANCH   7  27
TORSDOF 4
ENDMDL
MODEL 3
REMARK VINA RESULT:     -11.3     10.260     14.071
REMARK  Name = 9863827
REMARK  4 active torsions:
REMARK  status: ('A' for Active; 'I' for Inactive)
REMARK    1  A    between atoms: N_2  and  C_23
REMARK    2  A    between atoms: C_7  and  C_27
REMARK    3  A    between atoms: C_9  and  C_15
REMARK    4  A    between atoms: C_27  and  O_28
REMARK                            x       y       z     vdW  Elec       q    Type
REMARK                         _______ _______ _______ _____ _____    ______ ____
ROOT
ATOM      1  O   UNL     1      33.329  -7.177 -23.673  0.00  0.00    -0.286 OA
ATOM      2  N   UNL     1      32.180  -9.715 -20.696  0.00  0.00    -0.287 N 
ATOM      3  C   UNL     1      32.870 -10.258 -21.817  0.00  0.00    +0.051 C 
ATOM      4  C   UNL     1      31.921  -8.360 -20.646  0.00  0.00    +0.075 C 
ATOM      5  C   UNL     1      33.280  -9.401 -22.862  0.00  0.00    +0.053 C 
ATOM      6  C   UNL     1      33.167 -11.625 -21.935  0.00  0.00    -0.008 C 
ATOM      7  C   UNL     1      32.264  -7.463 -21.578  0.00  0.00    +0.129 C 
ATOM      8  C   UNL     1      32.988  -7.946 -22.782  0.00  0.00    +0.204 C 
ATOM      9  C   UNL     1      33.847 -12.120 -23.051  0.00  0.00    -0.001 C 
ATOM     10  C   UNL     1      33.962  -9.899 -23.981  0.00  0.00    +0.004 C 
ATOM     11  C   UNL     1      32.790 -12.645 -20.901  0.00  0.00    +0.032 C 
ATOM     12  C   UNL     1      34.243 -11.259 -24.070  0.00  0.00    -0.000 C 
ENDROOT
BRANCH   9  15
ATOM     13  N   UNL     1      35.341 -15.464 -22.360  0.00  0.00    -0.230 NA
ATOM     14  N   UNL     1      35.129 -17.543 -23.481  0.00  0.00    -0.317 N 
ATOM     15  C   UNL     1      34.162 -13.531 -23.188  0.00  0.00    +0.019 C 
ATOM     16  C   UNL     1      33.624 -14.282 -24.221  0.00  0.00    +0.000 C 
ATOM     17  C   UNL     1      35.006 -14.156 -22.290  0.00  0.00    +0.100 C 
ATOM     18  C   UNL     1      33.944 -15.631 -24.326  0.00  0.00    +0.010 C 
ATOM     19  C   UNL     1      34.800 -16.169 -23.379  0.00  0.00    +0.124 C 
ATOM     20  C   UNL     1      33.367 -16.440 -25.436  0.00  0.00    +0.034 C 
ATOM     21  C   UNL     1      35.439 -18.348 -22.345  0.00  0.00    +0.110 C 
ATOM     22  H   UNL     1      35.146 -17.960 -24.373  0.00  0.00    +0.148 HD
ENDBRANCH   9  15
BRANCH   2  23
ATOM     23  C   UNL     1      31.700 -10.509 -19.541  0.00  0.00    +0.077 C 
ATOM     24  C   UNL     1      31.899 -10.021 -18.145  0.00  0.00    +0.022 C 
ATOM     25  C   UNL     1      30.523 -10.058 -18.742  0.00  0.00    +0.022 C 
ENDBRANCH   2  23
BRANCH   7  27
ATOM     26  O   UNL     1      32.246  -5.404 -20.391  0.00  0.00    -0.245 OA
ATOM     27  C   UNL     1      31.909  -6.060 -21.361  0.00  0.00    +0.342 C 
BRANCH  27  28
ATOM     28  O   UNL     1      31.157  -5.618 -22.391  0.00  0.00    -0.477 OA
ATOM     29  H   UNL     1      30.780  -4.761 -22.363  0.00  0.00    +0.295 HD
ENDBRANCH  27  28
ENDBRANCH   7  27
TORSDOF 4
ENDMDL
MODEL 4
REMARK VINA RESULT:     -10.1     11.662     15.393
REMARK  Name = 9863827
REMARK  4 active torsions:
REMARK  status: ('A' for Active; 'I' for Inactive)
REMARK    1  A    between atoms: N_2  and  C_23
REMARK    2  A    between atoms: C_7  and  C_27
REMARK    3  A    between atoms: C_9  and  C_15
REMARK    4  A    between atoms: C_27  and  O_28
REMARK                            x       y       z     vdW  Elec       q    Type
REMARK                         _______ _______ _______ _____ _____    ______ ____
ROOT
ATOM      1  O   UNL     1      33.127 -13.728 -21.248  0.00  0.00    -0.286 OA
ATOM      2  N   UNL     1      34.091 -10.829 -23.947  0.00  0.00    -0.287 N 
ATOM      3  C   UNL     1      33.403 -10.444 -22.762  0.00  0.00    +0.051 C 
ATOM      4  C   UNL     1      34.410 -12.157 -24.151  0.00  0.00    +0.075 C 
ATOM      5  C   UNL     1      33.058 -11.428 -21.809  0.00  0.00    +0.053 C 
ATOM      6  C   UNL     1      33.048  -9.113 -22.489  0.00  0.00    -0.008 C 
ATOM      7  C   UNL     1      34.130 -13.165 -23.316  0.00  0.00    +0.129 C 
ATOM      8  C   UNL     1      33.414 -12.850 -22.053  0.00  0.00    +0.204 C 
ATOM      9  C   UNL     1      32.373  -8.776 -21.312  0.00  0.00    -0.001 C 
ATOM     10  C   UNL     1      32.382 -11.088 -20.630  0.00  0.00    +0.004 C 
ATOM     11  C   UNL     1      33.352  -7.971 -23.412  0.00  0.00    +0.032 C 
ATOM     12  C   UNL     1      32.042  -9.760 -20.386  0.00  0.00    -0.000 C 
ENDROOT
BRANCH   9  15
ATOM     13  N   UNL     1      30.793  -5.418 -21.656  0.00  0.00    -0.230 NA
ATOM     14  N   UNL     1      30.865  -3.496 -20.268  0.00  0.00    -0.317 N 
ATOM     15  C   UNL     1      31.998  -7.405 -21.015  0.00  0.00    +0.019 C 
ATOM     16  C   UNL     1      32.451  -6.779 -19.865  0.00  0.00    +0.000 C 
ATOM     17  C   UNL     1      31.180  -6.695 -21.873  0.00  0.00    +0.100 C 
ATOM     18  C   UNL     1      32.075  -5.465 -19.607  0.00  0.00    +0.010 C 
ATOM     19  C   UNL     1      31.252  -4.834 -20.527  0.00  0.00    +0.124 C 
ATOM     20  C   UNL     1      32.561  -4.789 -18.371  0.00  0.00    +0.034 C 
ATOM     21  C   UNL     1      29.624  -2.953 -20.715  0.00  0.00    +0.110 C 
ATOM     22  H   UNL     1      31.478  -2.917 -19.759  0.00  0.00    +0.148 HD
ENDBRANCH   9  15
BRANCH   2  23
ATOM     23  C   UNL     1      34.506  -9.892 -25.018  0.00  0.00    +0.077 C 
ATOM     24  C   UNL     1      35.920  -9.430 -25.121  0.00  0.00    +0.022 C 
ATOM     25  C   UNL     1      35.354 -10.360 -26.153  0.00  0.00    +0.022 C 
ENDBRANCH   2  23
BRANCH   7  27
ATOM     26  O   UNL     1      33.985 -15.205 -24.527  0.00  0.00    -0.245 OA
ATOM     27  C   UNL     1      34.545 -14.517 -23.692  0.00  0.00    +0.342 C 
BRANCH  27  28
ATOM     28  O   UNL     1      35.630 -14.875 -22.973  0.00  0.00    -0.477 OA
ATOM     29  H   UNL     1      35.527 -15.212 -22.105  0.00  0.00    +0.295 HD
ENDBRANCH  27  28
ENDBRANCH   7  27
TORSDOF 4
ENDMDL
MODEL 5
REMARK VINA RESULT:     -10.0      9.018     13.345
REMARK  Name = 9863827
REMARK  4 active torsions:
REMARK  status: ('A' for Active; 'I' for Inactive)
REMARK    1  A    between atoms: N_2  and  C_23
REMARK    2  A    between atoms: C_7  and  C_27
REMARK    3  A    between atoms: C_9  and  C_15
REMARK    4  A    between atoms: C_27  and  O_28
REMARK                            x       y       z     vdW  Elec       q    Type
REMARK                         _______ _______ _______ _____ _____    ______ ____
ROOT
ATOM      1  O   UNL     1      31.194  -9.702 -19.991  0.00  0.00    -0.286 OA
ATOM      2  N   UNL     1      33.670 -10.649 -23.089  0.00  0.00    -0.287 N 
ATOM      3  C   UNL     1      33.479 -11.613 -22.060  0.00  0.00    +0.051 C 
ATOM      4  C   UNL     1      33.020  -9.432 -23.014  0.00  0.00    +0.075 C 
ATOM      5  C   UNL     1      32.626 -11.312 -20.975  0.00  0.00    +0.053 C 
ATOM      6  C   UNL     1      34.107 -12.869 -22.071  0.00  0.00    -0.008 C 
ATOM      7  C   UNL     1      32.194  -9.047 -22.034  0.00  0.00    +0.129 C 
ATOM      8  C   UNL     1      31.939  -9.995 -20.919  0.00  0.00    +0.204 C 
ATOM      9  C   UNL     1      33.893 -13.789 -21.041  0.00  0.00    -0.001 C 
ATOM     10  C   UNL     1      32.413 -12.236 -19.944  0.00  0.00    +0.004 C 
ATOM     11  C   UNL     1      35.036 -13.318 -23.160  0.00  0.00    +0.032 C 
ATOM     12  C   UNL     1      33.049 -13.474 -19.981  0.00  0.00    -0.000 C 
ENDROOT
BRANCH   9  15
ATOM     13  N   UNL     1      35.683 -16.815 -19.803  0.00  0.00    -0.230 NA
ATOM     14  N   UNL     1      36.382 -18.793 -20.912  0.00  0.00    -0.317 N 
ATOM     15  C   UNL     1      34.535 -15.092 -21.038  0.00  0.00    +0.019 C 
ATOM     16  C   UNL     1      34.619 -15.845 -22.198  0.00  0.00    +0.000 C 
ATOM     17  C   UNL     1      35.073 -15.611 -19.876  0.00  0.00    +0.100 C 
ATOM     18  C   UNL     1      35.239 -17.089 -22.164  0.00  0.00    +0.010 C 
ATOM     19  C   UNL     1      35.751 -17.525 -20.952  0.00  0.00    +0.124 C 
ATOM     20  C   UNL     1      35.332 -17.901 -23.411  0.00  0.00    +0.034 C 
ATOM     21  C   UNL     1      36.389 -19.613 -19.745  0.00  0.00    +0.110 C 
ATOM     22  H   UNL     1      36.836 -19.121 -21.722  0.00  0.00    +0.148 HD
ENDBRANCH   9  15
BRANCH   2  23
ATOM     23  C   UNL     1      34.537 -10.846 -24.275  0.00  0.00    +0.077 C 
ATOM     24  C   UNL     1      34.032 -10.550 -25.647  0.00  0.00    +0.022 C 
ATOM     25  C   UNL     1      35.082  -9.678 -25.024  0.00  0.00    +0.022 C 
ENDBRANCH   2  23
BRANCH   7  27
ATOM     26  O   UNL     1      31.006  -7.281 -23.093  0.00  0.00    -0.245 OA
ATOM     27  C   UNL     1      31.588  -7.717 -22.116  0.00  0.00    +0.342 C 
BRANCH  27  28
ATOM     28  O   UNL     1      31.778  -7.061 -20.952  0.00  0.00    -0.477 OA
ATOM     29  H   UNL     1      32.537  -6.525 -20.834  0.00  0.00    +0.295 HD
ENDBRANCH  27  28
ENDBRANCH   7  27
TORSDOF 4
ENDMDL
MODEL 6
REMARK VINA RESULT:      -9.7      1.777      2.726
REMARK  Name = 9863827
REMARK  4 active torsions:
REMARK  status: ('A' for Active; 'I' for Inactive)
REMARK    1  A    between atoms: N_2  and  C_23
REMARK    2  A    between atoms: C_7  and  C_27
REMARK    3  A    between atoms: C_9  and  C_15
REMARK    4  A    between atoms: C_27  and  O_28
REMARK                            x       y       z     vdW  Elec       q    Type
REMARK                         _______ _______ _______ _____ _____    ______ ____
ROOT
ATOM      1  O   UNL     1      37.680 -22.482 -14.972  0.00  0.00    -0.286 OA
ATOM      2  N   UNL     1      33.903 -22.358 -16.504  0.00  0.00    -0.287 N 
ATOM      3  C   UNL     1      34.925 -21.625 -17.170  0.00  0.00    +0.051 C 
ATOM      4  C   UNL     1      34.212 -23.084 -15.370  0.00  0.00    +0.075 C 
ATOM      5  C   UNL     1      36.243 -21.651 -16.662  0.00  0.00    +0.053 C 
ATOM      6  C   UNL     1      34.683 -20.865 -18.326  0.00  0.00    -0.008 C 
ATOM      7  C   UNL     1      35.423 -23.177 -14.807  0.00  0.00    +0.129 C 
ATOM      8  C   UNL     1      36.548 -22.441 -15.440  0.00  0.00    +0.204 C 
ATOM      9  C   UNL     1      35.714 -20.159 -18.951  0.00  0.00    -0.001 C 
ATOM     10  C   UNL     1      37.275 -20.942 -17.290  0.00  0.00    +0.004 C 
ATOM     11  C   UNL     1      33.334 -20.750 -18.970  0.00  0.00    +0.032 C 
ATOM     12  C   UNL     1      37.006 -20.198 -18.435  0.00  0.00    -0.000 C 
ENDROOT
BRANCH   9  15
ATOM     13  N   UNL     1      34.976 -19.308 -22.504  0.00  0.00    -0.230 NA
ATOM     14  N   UNL     1      34.798 -17.220 -23.617  0.00  0.00    -0.317 N 
ATOM     15  C   UNL     1      35.481 -19.369 -20.147  0.00  0.00    +0.019 C 
ATOM     16  C   UNL     1      35.531 -17.985 -20.105  0.00  0.00    +0.000 C 
ATOM     17  C   UNL     1      35.202 -19.982 -21.354  0.00  0.00    +0.100 C 
ATOM     18  C   UNL     1      35.302 -17.256 -21.267  0.00  0.00    +0.010 C 
ATOM     19  C   UNL     1      35.032 -17.959 -22.431  0.00  0.00    +0.124 C 
ATOM     20  C   UNL     1      35.356 -15.767 -21.225  0.00  0.00    +0.034 C 
ATOM     21  C   UNL     1      33.947 -17.690 -24.661  0.00  0.00    +0.110 C 
ATOM     22  H   UNL     1      35.241 -16.348 -23.726  0.00  0.00    +0.148 HD
ENDBRANCH   9  15
BRANCH   2  23
ATOM     23  C   UNL     1      32.488 -22.410 -16.938  0.00  0.00    +0.077 C 
ATOM     24  C   UNL     1      31.527 -23.354 -16.297  0.00  0.00    +0.022 C 
ATOM     25  C   UNL     1      31.402 -21.877 -16.065  0.00  0.00    +0.022 C 
ENDBRANCH   2  23
BRANCH   7  27
ATOM     26  O   UNL     1      35.156 -23.685 -12.501  0.00  0.00    -0.245 OA
ATOM     27  C   UNL     1      35.572 -23.995 -13.603  0.00  0.00    +0.342 C 
BRANCH  27  28
ATOM     28  O   UNL     1      36.235 -25.130 -13.906  0.00  0.00    -0.477 OA
ATOM     29  H   UNL     1      35.761 -25.922 -14.066  0.00  0.00    +0.295 HD
ENDBRANCH  27  28
ENDBRANCH   7  27
TORSDOF 4
ENDMDL
MODEL 7
REMARK VINA RESULT:      -9.6     11.548     15.019
REMARK  Name = 9863827
REMARK  4 active torsions:
REMARK  status: ('A' for Active; 'I' for Inactive)
REMARK    1  A    between atoms: N_2  and  C_23
REMARK    2  A    between atoms: C_7  and  C_27
REMARK    3  A    between atoms: C_9  and  C_15
REMARK    4  A    between atoms: C_27  and  O_28
REMARK                            x       y       z     vdW  Elec       q    Type
REMARK                         _______ _______ _______ _____ _____    ______ ____
ROOT
ATOM      1  O   UNL     1      34.623 -11.854 -25.390  0.00  0.00    -0.286 OA
ATOM      2  N   UNL     1      32.634 -12.113 -21.840  0.00  0.00    -0.287 N 
ATOM      3  C   UNL     1      32.853 -10.822 -22.398  0.00  0.00    +0.051 C 
ATOM      4  C   UNL     1      33.095 -13.231 -22.507  0.00  0.00    +0.075 C 
ATOM      5  C   UNL     1      33.538 -10.703 -23.628  0.00  0.00    +0.053 C 
ATOM      6  C   UNL     1      32.412  -9.642 -21.776  0.00  0.00    -0.008 C 
ATOM      7  C   UNL     1      33.754 -13.230 -23.672  0.00  0.00    +0.129 C 
ATOM      8  C   UNL     1      34.023 -11.923 -24.324  0.00  0.00    +0.204 C 
ATOM      9  C   UNL     1      32.646  -8.393 -22.357  0.00  0.00    -0.001 C 
ATOM     10  C   UNL     1      33.771  -9.449 -24.208  0.00  0.00    +0.004 C 
ATOM     11  C   UNL     1      31.674  -9.623 -20.471  0.00  0.00    +0.032 C 
ATOM     12  C   UNL     1      33.322  -8.297 -23.569  0.00  0.00    -0.000 C 
ENDROOT
BRANCH   9  15
ATOM     13  N   UNL     1      30.865  -5.157 -21.851  0.00  0.00    -0.230 NA
ATOM     14  N   UNL     1      30.850  -3.639 -20.029  0.00  0.00    -0.317 N 
ATOM     15  C   UNL     1      32.196  -7.164 -21.727  0.00  0.00    +0.019 C 
ATOM     16  C   UNL     1      32.633  -6.815 -20.459  0.00  0.00    +0.000 C 
ATOM     17  C   UNL     1      31.322  -6.315 -22.379  0.00  0.00    +0.100 C 
ATOM     18  C   UNL     1      32.185  -5.632 -19.882  0.00  0.00    +0.010 C 
ATOM     19  C   UNL     1      31.309  -4.845 -20.613  0.00  0.00    +0.124 C 
ATOM     20  C   UNL     1      32.653  -5.254 -18.518  0.00  0.00    +0.034 C 
ATOM     21  C   UNL     1      29.571  -3.079 -20.323  0.00  0.00    +0.110 C 
ATOM     22  H   UNL     1      31.436  -3.167 -19.394  0.00  0.00    +0.148 HD
ENDBRANCH   9  15
BRANCH   2  23
ATOM     23  C   UNL     1      31.931 -12.367 -20.561  0.00  0.00    +0.077 C 
ATOM     24  C   UNL     1      32.233 -13.584 -19.753  0.00  0.00    +0.022 C 
ATOM     25  C   UNL     1      32.645 -12.230 -19.259  0.00  0.00    +0.022 C 
ENDBRANCH   2  23
BRANCH   7  27
ATOM     26  O   UNL     1      34.810 -15.359 -23.639  0.00  0.00    -0.245 OA
ATOM     27  C   UNL     1      34.170 -14.514 -24.239  0.00  0.00    +0.342 C 
BRANCH  27  28
ATOM     28  O   UNL     1      33.738 -14.608 -25.514  0.00  0.00    -0.477 OA
ATOM     29  H   UNL     1      32.822 -14.682 -25.694  0.00  0.00    +0.295 HD
ENDBRANCH  27  28
ENDBRANCH   7  27
TORSDOF 4
ENDMDL
MODEL 8
REMARK VINA RESULT:      -9.5      2.232      4.050
REMARK  Name = 9863827
REMARK  4 active torsions:
REMARK  status: ('A' for Active; 'I' for Inactive)
REMARK    1  A    between atoms: N_2  and  C_23
REMARK    2  A    between atoms: C_7  and  C_27
REMARK    3  A    between atoms: C_9  and  C_15
REMARK    4  A    between atoms: C_27  and  O_28
REMARK                            x       y       z     vdW  Elec       q    Type
REMARK                         _______ _______ _______ _____ _____    ______ ____
ROOT
ATOM      1  O   UNL     1      31.290 -23.100 -15.473  0.00  0.00    -0.286 OA
ATOM      2  N   UNL     1      35.317 -22.516 -15.739  0.00  0.00    -0.287 N 
ATOM      3  C   UNL     1      34.483 -21.931 -16.734  0.00  0.00    +0.051 C 
ATOM      4  C   UNL     1      34.748 -23.257 -14.722  0.00  0.00    +0.075 C 
ATOM      5  C   UNL     1      33.085 -22.116 -16.665  0.00  0.00    +0.053 C 
ATOM      6  C   UNL     1      34.993 -21.165 -17.795  0.00  0.00    -0.008 C 
ATOM      7  C   UNL     1      33.440 -23.494 -14.565  0.00  0.00    +0.129 C 
ATOM      8  C   UNL     1      32.499 -22.919 -15.560  0.00  0.00    +0.204 C 
ATOM      9  C   UNL     1      34.141 -20.606 -18.752  0.00  0.00    -0.001 C 
ATOM     10  C   UNL     1      32.233 -21.555 -17.625  0.00  0.00    +0.004 C 
ATOM     11  C   UNL     1      36.454 -20.890 -17.988  0.00  0.00    +0.032 C 
ATOM     12  C   UNL     1      32.765 -20.800 -18.667  0.00  0.00    -0.000 C 
ENDROOT
BRANCH   9  15
ATOM     13  N   UNL     1      34.223 -18.664 -21.932  0.00  0.00    -0.230 NA
ATOM     14  N   UNL     1      35.994 -17.546 -23.046  0.00  0.00    -0.317 N 
ATOM     15  C   UNL     1      34.651 -19.812 -19.855  0.00  0.00    +0.019 C 
ATOM     16  C   UNL     1      35.986 -19.445 -19.908  0.00  0.00    +0.000 C 
ATOM     17  C   UNL     1      33.814 -19.404 -20.877  0.00  0.00    +0.100 C 
ATOM     18  C   UNL     1      36.444 -18.683 -20.977  0.00  0.00    +0.010 C 
ATOM     19  C   UNL     1      35.531 -18.322 -21.955  0.00  0.00    +0.124 C 
ATOM     20  C   UNL     1      37.880 -18.287 -21.037  0.00  0.00    +0.034 C 
ATOM     21  C   UNL     1      35.160 -16.620 -23.741  0.00  0.00    +0.110 C 
ATOM     22  H   UNL     1      36.929 -17.650 -23.338  0.00  0.00    +0.148 HD
ENDBRANCH   9  15
BRANCH   2  23
ATOM     23  C   UNL     1      36.793 -22.394 -15.702  0.00  0.00    +0.077 C 
ATOM     24  C   UNL     1      37.474 -21.716 -14.561  0.00  0.00    +0.022 C 
ATOM     25  C   UNL     1      37.601 -23.199 -14.742  0.00  0.00    +0.022 C 
ENDBRANCH   2  23
BRANCH   7  27
ATOM     26  O   UNL     1      31.997 -24.980 -13.398  0.00  0.00    -0.245 OA
ATOM     27  C   UNL     1      33.010 -24.304 -13.424  0.00  0.00    +0.342 C 
BRANCH  27  28
ATOM     28  O   UNL     1      33.903 -24.181 -12.419  0.00  0.00    -0.477 OA
ATOM     29  H   UNL     1      33.822 -24.712 -11.652  0.00  0.00    +0.295 HD
ENDBRANCH  27  28
ENDBRANCH   7  27
TORSDOF 4
ENDMDL
MODEL 9
REMARK VINA RESULT:      -9.3      7.474     11.485
REMARK  Name = 9863827
REMARK  4 active torsions:
REMARK  status: ('A' for Active; 'I' for Inactive)
REMARK    1  A    between atoms: N_2  and  C_23
REMARK    2  A    between atoms: C_7  and  C_27
REMARK    3  A    between atoms: C_9  and  C_15
REMARK    4  A    between atoms: C_27  and  O_28
REMARK                            x       y       z     vdW  Elec       q    Type
REMARK                         _______ _______ _______ _____ _____    ______ ____
ROOT
ATOM      1  O   UNL     1      35.639 -16.238 -19.277  0.00  0.00    -0.286 OA
ATOM      2  N   UNL     1      34.752 -15.873 -23.239  0.00  0.00    -0.287 N 
ATOM      3  C   UNL     1      34.665 -14.712 -22.419  0.00  0.00    +0.051 C 
ATOM      4  C   UNL     1      35.129 -17.078 -22.680  0.00  0.00    +0.075 C 
ATOM      5  C   UNL     1      34.968 -14.810 -21.043  0.00  0.00    +0.053 C 
ATOM      6  C   UNL     1      34.288 -13.456 -22.920  0.00  0.00    -0.008 C 
ATOM      7  C   UNL     1      35.437 -17.279 -21.392  0.00  0.00    +0.129 C 
ATOM      8  C   UNL     1      35.372 -16.119 -20.467  0.00  0.00    +0.204 C 
ATOM      9  C   UNL     1      34.215 -12.340 -22.082  0.00  0.00    -0.001 C 
ATOM     10  C   UNL     1      34.895 -13.690 -20.204  0.00  0.00    +0.004 C 
ATOM     11  C   UNL     1      33.940 -13.211 -24.358  0.00  0.00    +0.032 C 
ATOM     12  C   UNL     1      34.518 -12.457 -20.729  0.00  0.00    -0.000 C 
ENDROOT
BRANCH   9  15
ATOM     13  N   UNL     1      32.210  -9.246 -22.631  0.00  0.00    -0.230 NA
ATOM     14  N   UNL     1      32.623  -7.318 -23.950  0.00  0.00    -0.317 N 
ATOM     15  C   UNL     1      33.828 -11.034 -22.584  0.00  0.00    +0.019 C 
ATOM     16  C   UNL     1      34.648 -10.336 -23.456  0.00  0.00    +0.000 C 
ATOM     17  C   UNL     1      32.631 -10.457 -22.201  0.00  0.00    +0.100 C 
ATOM     18  C   UNL     1      34.250  -9.087 -23.919  0.00  0.00    +0.010 C 
ATOM     19  C   UNL     1      33.032  -8.591 -23.481  0.00  0.00    +0.124 C 
ATOM     20  C   UNL     1      35.130  -8.334 -24.857  0.00  0.00    +0.034 C 
ATOM     21  C   UNL     1      31.797  -6.444 -23.182  0.00  0.00    +0.110 C 
ATOM     22  H   UNL     1      32.918  -7.025 -24.842  0.00  0.00    +0.148 HD
ENDBRANCH   9  15
BRANCH   2  23
ATOM     23  C   UNL     1      34.460 -15.898 -24.692  0.00  0.00    +0.077 C 
ATOM     24  C   UNL     1      34.149 -17.182 -25.385  0.00  0.00    +0.022 C 
ATOM     25  C   UNL     1      33.076 -16.152 -25.187  0.00  0.00    +0.022 C 
ENDBRANCH   2  23
BRANCH   7  27
ATOM     26  O   UNL     1      35.107 -19.611 -21.070  0.00  0.00    -0.245 OA
ATOM     27  C   UNL     1      35.819 -18.628 -20.970  0.00  0.00    +0.342 C 
BRANCH  27  28
ATOM     28  O   UNL     1      37.067 -18.605 -20.456  0.00  0.00    -0.477 OA
ATOM     29  H   UNL     1      37.775 -18.256 -20.961  0.00  0.00    +0.295 HD
ENDBRANCH  27  28
ENDBRANCH   7  27
TORSDOF 4
ENDMDL
