MODEL 1
REMARK VINA RESULT:     -11.6      0.000      0.000
REMARK  Name = 15984937
REMARK  6 active torsions:
REMARK  status: ('A' for Active; 'I' for Inactive)
REMARK    1  A    between atoms: C_1  and  C_9
REMARK    2  A    between atoms: C_1  and  C_20
REMARK    3  A    between atoms: C_4  and  N_10
REMARK    4  A    between atoms: N_10  and  C_13
REMARK    5  A    between atoms: C_19  and  C_25
REMARK    6  A    between atoms: C_25  and  N_26
REMARK                            x       y       z     vdW  Elec       q    Type
REMARK                         _______ _______ _______ _____ _____    ______ ____
ROOT
ATOM      1  C   UNL     1      36.655 -17.911 -20.552  0.00  0.00    +0.112 C 
ENDROOT
BRANCH   1   9
ATOM      2  O   UNL     1      36.259 -18.068 -22.883  0.00  0.00    -0.275 OA
ATOM      3  N   UNL     1      35.184 -16.338 -21.763  0.00  0.00    -0.279 N 
ATOM      4  C   UNL     1      34.570 -13.502 -21.968  0.00  0.00    +0.072 C 
ATOM      5  C   UNL     1      35.219 -14.106 -20.718  0.00  0.00    +0.041 C 
ATOM      6  C   UNL     1      34.823 -14.371 -23.206  0.00  0.00    +0.041 C 
ATOM      7  C   UNL     1      34.881 -15.587 -20.540  0.00  0.00    +0.095 C 
ATOM      8  C   UNL     1      34.509 -15.848 -22.965  0.00  0.00    +0.095 C 
ATOM      9  C   UNL     1      36.019 -17.454 -21.839  0.00  0.00    +0.230 C 
BRANCH   4  10
ATOM     10  N   UNL     1      33.147 -13.331 -21.753  0.00  0.00    -0.334 N 
ATOM     11  H   UNL     1      32.533 -13.991 -22.151  0.00  0.00    +0.147 HD
BRANCH  10  13
ATOM     12  F   UNL     1      31.742  -8.756 -21.418  0.00  0.00    -0.204 F 
ATOM     13  C   UNL     1      32.603 -12.291 -21.022  0.00  0.00    +0.047 C 
ATOM     14  C   UNL     1      32.438 -11.013 -21.593  0.00  0.00    +0.044 C 
ATOM     15  C   UNL     1      32.200 -12.476 -19.686  0.00  0.00    +0.014 C 
ATOM     16  C   UNL     1      31.892  -9.963 -20.855  0.00  0.00    +0.141 C 
ATOM     17  C   UNL     1      31.653 -11.426 -18.948  0.00  0.00    +0.004 C 
ATOM     18  C   UNL     1      31.500 -10.170 -19.534  0.00  0.00    +0.030 C 
ENDBRANCH  10  13
ENDBRANCH   4  10
ENDBRANCH   1   9
BRANCH   1  20
ATOM     19  C   UNL     1      34.472 -21.187 -18.871  0.00  0.00    -0.043 C 
ATOM     20  C   UNL     1      35.892 -19.057 -19.965  0.00  0.00    -0.013 C 
ATOM     21  C   UNL     1      35.852 -21.102 -18.688  0.00  0.00    -0.007 C 
ATOM     22  C   UNL     1      33.804 -20.205 -19.602  0.00  0.00    -0.007 C 
ATOM     23  C   UNL     1      36.564 -20.035 -19.236  0.00  0.00    -0.004 C 
ATOM     24  C   UNL     1      34.515 -19.138 -20.150  0.00  0.00    -0.004 C 
BRANCH  19  25
ATOM     25  C   UNL     1      33.711 -22.329 -18.287  0.00  0.00    -0.050 C 
BRANCH  25  26
ATOM     26  N   UNL     1      33.426 -22.138 -16.865  0.00  0.00    +0.387 N 
ATOM     27  N   UNL     1      32.677 -23.075 -14.238  0.00  0.00    +0.382 N 
ATOM     28  C   UNL     1      34.063 -22.705 -14.542  0.00  0.00    -0.083 C 
ATOM     29  C   UNL     1      34.363 -22.908 -16.037  0.00  0.00    -0.099 C 
ATOM     30  C   UNL     1      32.040 -22.515 -16.558  0.00  0.00    -0.101 C 
ATOM     31  C   UNL     1      31.742 -22.320 -15.071  0.00  0.00    -0.105 C 
ATOM     32  C   UNL     1      35.004 -23.549 -13.685  0.00  0.00    -0.026 C 
ATOM     33  H   UNL     1      33.544 -21.148 -16.650  0.00  0.00    -0.079 HD
ATOM     34  H   UNL     1      32.485 -22.877 -13.256  0.00  0.00    -0.085 HD
ATOM     35  H   UNL     1      32.554 -24.069 -14.431  0.00  0.00    -0.085 HD
ENDBRANCH  25  26
ENDBRANCH  19  25
ENDBRANCH   1  20
TORSDOF 6
ENDMDL
MODEL 2
REMARK VINA RESULT:     -11.4      1.811      2.511
REMARK  Name = 15984937
REMARK  6 active torsions:
REMARK  status: ('A' for Active; 'I' for Inactive)
REMARK    1  A    between atoms: C_1  and  C_9
REMARK    2  A    between atoms: C_1  and  C_20
REMARK    3  A    between atoms: C_4  and  N_10
REMARK    4  A    between atoms: N_10  and  C_13
REMARK    5  A    between atoms: C_19  and  C_25
REMARK    6  A    between atoms: C_25  and  N_26
REMARK                            x       y       z     vdW  Elec       q    Type
REMARK                         _______ _______ _______ _____ _____    ______ ____
ROOT
ATOM      1  C   UNL     1      35.607 -17.482 -21.457  0.00  0.00    +0.112 C 
ENDROOT
BRANCH   1   9
ATOM      2  O   UNL     1      35.296 -16.315 -19.418  0.00  0.00    -0.275 OA
ATOM      3  N   UNL     1      35.157 -15.054 -21.365  0.00  0.00    -0.279 N 
ATOM      4  C   UNL     1      33.565 -12.988 -22.653  0.00  0.00    +0.072 C 
ATOM      5  C   UNL     1      33.911 -14.305 -23.356  0.00  0.00    +0.041 C 
ATOM      6  C   UNL     1      33.629 -13.133 -21.129  0.00  0.00    +0.041 C 
ATOM      7  C   UNL     1      35.203 -14.930 -22.826  0.00  0.00    +0.095 C 
ATOM      8  C   UNL     1      34.920 -13.799 -20.652  0.00  0.00    +0.095 C 
ATOM      9  C   UNL     1      35.341 -16.237 -20.649  0.00  0.00    +0.230 C 
BRANCH   4  10
ATOM     10  N   UNL     1      34.461 -11.939 -23.099  0.00  0.00    -0.334 N 
ATOM     11  H   UNL     1      35.373 -12.191 -23.373  0.00  0.00    +0.147 HD
BRANCH  10  13
ATOM     12  F   UNL     1      31.500  -8.354 -21.916  0.00  0.00    -0.204 F 
ATOM     13  C   UNL     1      34.106 -10.604 -23.158  0.00  0.00    +0.047 C 
ATOM     14  C   UNL     1      32.956 -10.130 -22.495  0.00  0.00    +0.044 C 
ATOM     15  C   UNL     1      34.880  -9.678 -23.884  0.00  0.00    +0.014 C 
ATOM     16  C   UNL     1      32.597  -8.784 -22.556  0.00  0.00    +0.141 C 
ATOM     17  C   UNL     1      34.521  -8.332 -23.945  0.00  0.00    +0.004 C 
ATOM     18  C   UNL     1      33.379  -7.886 -23.280  0.00  0.00    +0.030 C 
ENDBRANCH  10  13
ENDBRANCH   4  10
ENDBRANCH   1   9
BRANCH   1  20
ATOM     19  C   UNL     1      34.626 -20.982 -19.196  0.00  0.00    -0.043 C 
ATOM     20  C   UNL     1      35.264 -18.706 -20.667  0.00  0.00    -0.013 C 
ATOM     21  C   UNL     1      35.959 -20.606 -19.356  0.00  0.00    -0.007 C 
ATOM     22  C   UNL     1      33.612 -20.218 -19.773  0.00  0.00    -0.007 C 
ATOM     23  C   UNL     1      36.279 -19.466 -20.093  0.00  0.00    -0.004 C 
ATOM     24  C   UNL     1      33.931 -19.077 -20.511  0.00  0.00    -0.004 C 
BRANCH  19  25
ATOM     25  C   UNL     1      34.284 -22.202 -18.409  0.00  0.00    -0.050 C 
BRANCH  25  26
ATOM     26  N   UNL     1      34.208 -21.935 -16.974  0.00  0.00    +0.387 N 
ATOM     27  N   UNL     1      34.279 -22.727 -14.197  0.00  0.00    +0.382 N 
ATOM     28  C   UNL     1      35.394 -21.991 -14.802  0.00  0.00    -0.083 C 
ATOM     29  C   UNL     1      35.474 -22.275 -16.312  0.00  0.00    -0.099 C 
ATOM     30  C   UNL     1      33.096 -22.676 -16.365  0.00  0.00    -0.101 C 
ATOM     31  C   UNL     1      33.018 -22.401 -14.863  0.00  0.00    -0.105 C 
ATOM     32  C   UNL     1      36.694 -22.396 -14.109  0.00  0.00    -0.026 C 
ATOM     33  H   UNL     1      34.036 -20.937 -16.847  0.00  0.00    -0.079 HD
ATOM     34  H   UNL     1      34.210 -22.479 -13.210  0.00  0.00    -0.085 HD
ATOM     35  H   UNL     1      34.453 -23.727 -14.301  0.00  0.00    -0.085 HD
ENDBRANCH  25  26
ENDBRANCH  19  25
ENDBRANCH   1  20
TORSDOF 6
ENDMDL
MODEL 3
REMARK VINA RESULT:     -11.2      2.836      4.655
REMARK  Name = 15984937
REMARK  6 active torsions:
REMARK  status: ('A' for Active; 'I' for Inactive)
REMARK    1  A    between atoms: C_1  and  C_9
REMARK    2  A    between atoms: C_1  and  C_20
REMARK    3  A    between atoms: C_4  and  N_10
REMARK    4  A    between atoms: N_10  and  C_13
REMARK    5  A    between atoms: C_19  and  C_25
REMARK    6  A    between atoms: C_25  and  N_26
REMARK                            x       y       z     vdW  Elec       q    Type
REMARK                         _______ _______ _______ _____ _____    ______ ____
ROOT
ATOM      1  C   UNL     1      36.580 -20.779 -18.904  0.00  0.00    +0.112 C 
ENDROOT
BRANCH   1   9
ATOM      2  O   UNL     1      34.357 -21.020 -19.690  0.00  0.00    -0.275 OA
ATOM      3  N   UNL     1      35.493 -19.108 -20.365  0.00  0.00    -0.279 N 
ATOM      4  C   UNL     1      36.013 -17.450 -22.698  0.00  0.00    +0.072 C 
ATOM      5  C   UNL     1      37.143 -17.987 -21.814  0.00  0.00    +0.041 C 
ATOM      6  C   UNL     1      34.749 -18.309 -22.576  0.00  0.00    +0.041 C 
ATOM      7  C   UNL     1      36.687 -18.256 -20.378  0.00  0.00    +0.095 C 
ATOM      8  C   UNL     1      34.358 -18.583 -21.124  0.00  0.00    +0.095 C 
ATOM      9  C   UNL     1      35.374 -20.320 -19.684  0.00  0.00    +0.230 C 
BRANCH   4  10
ATOM     10  N   UNL     1      35.723 -16.073 -22.348  0.00  0.00    -0.334 N 
ATOM     11  H   UNL     1      36.059 -15.731 -21.487  0.00  0.00    +0.147 HD
BRANCH  10  13
ATOM     12  F   UNL     1      33.512 -11.873 -23.044  0.00  0.00    -0.204 F 
ATOM     13  C   UNL     1      34.997 -15.216 -23.154  0.00  0.00    +0.047 C 
ATOM     14  C   UNL     1      34.606 -13.943 -22.691  0.00  0.00    +0.044 C 
ATOM     15  C   UNL     1      34.627 -15.588 -24.461  0.00  0.00    +0.014 C 
ATOM     16  C   UNL     1      33.873 -13.079 -23.504  0.00  0.00    +0.141 C 
ATOM     17  C   UNL     1      33.894 -14.723 -25.274  0.00  0.00    +0.004 C 
ATOM     18  C   UNL     1      33.517 -13.468 -24.794  0.00  0.00    +0.030 C 
ENDBRANCH  10  13
ENDBRANCH   4  10
ENDBRANCH   1   9
BRANCH   1  20
ATOM     19  C   UNL     1      35.413 -22.268 -15.064  0.00  0.00    -0.043 C 
ATOM     20  C   UNL     1      36.172 -21.300 -17.562  0.00  0.00    -0.013 C 
ATOM     21  C   UNL     1      36.649 -21.641 -15.223  0.00  0.00    -0.007 C 
ATOM     22  C   UNL     1      34.558 -22.409 -16.156  0.00  0.00    -0.007 C 
ATOM     23  C   UNL     1      37.030 -21.156 -16.474  0.00  0.00    -0.004 C 
ATOM     24  C   UNL     1      34.938 -21.925 -17.408  0.00  0.00    -0.004 C 
BRANCH  19  25
ATOM     25  C   UNL     1      35.007 -22.787 -13.727  0.00  0.00    -0.050 C 
BRANCH  25  26
ATOM     26  N   UNL     1      36.127 -22.844 -12.788  0.00  0.00    +0.387 N 
ATOM     27  N   UNL     1      37.882 -24.216 -10.950  0.00  0.00    +0.382 N 
ATOM     28  C   UNL     1      38.345 -23.820 -12.284  0.00  0.00    -0.083 C 
ATOM     29  C   UNL     1      37.167 -23.763 -13.271  0.00  0.00    -0.099 C 
ATOM     30  C   UNL     1      35.667 -23.247 -11.453  0.00  0.00    -0.101 C 
ATOM     31  C   UNL     1      36.838 -23.311 -10.472  0.00  0.00    -0.105 C 
ATOM     32  C   UNL     1      39.399 -24.817 -12.762  0.00  0.00    -0.026 C 
ATOM     33  H   UNL     1      36.530 -21.910 -12.721  0.00  0.00    -0.079 HD
ATOM     34  H   UNL     1      38.669 -24.190 -10.301  0.00  0.00    -0.085 HD
ATOM     35  H   UNL     1      37.497 -25.159 -11.004  0.00  0.00    -0.085 HD
ENDBRANCH  25  26
ENDBRANCH  19  25
ENDBRANCH   1  20
TORSDOF 6
ENDMDL
MODEL 4
REMARK VINA RESULT:     -10.9      4.238     11.329
REMARK  Name = 15984937
REMARK  6 active torsions:
REMARK  status: ('A' for Active; 'I' for Inactive)
REMARK    1  A    between atoms: C_1  and  C_9
REMARK    2  A    between atoms: C_1  and  C_20
REMARK    3  A    between atoms: C_4  and  N_10
REMARK    4  A    between atoms: N_10  and  C_13
REMARK    5  A    between atoms: C_19  and  C_25
REMARK    6  A    between atoms: C_25  and  N_26
REMARK                            x       y       z     vdW  Elec       q    Type
REMARK                         _______ _______ _______ _____ _____    ______ ____
ROOT
ATOM      1  C   UNL     1      36.142 -20.439 -18.573  0.00  0.00    +0.112 C 
ENDROOT
BRANCH   1   9
ATOM      2  O   UNL     1      33.894 -21.060 -18.989  0.00  0.00    -0.275 OA
ATOM      3  N   UNL     1      34.923 -22.058 -17.160  0.00  0.00    -0.279 N 
ATOM      4  C   UNL     1      34.477 -22.755 -14.371  0.00  0.00    +0.072 C 
ATOM      5  C   UNL     1      35.713 -21.973 -14.827  0.00  0.00    +0.041 C 
ATOM      6  C   UNL     1      33.321 -22.606 -15.367  0.00  0.00    +0.041 C 
ATOM      7  C   UNL     1      36.083 -22.257 -16.284  0.00  0.00    +0.095 C 
ATOM      8  C   UNL     1      33.750 -22.860 -16.812  0.00  0.00    +0.095 C 
ATOM      9  C   UNL     1      34.884 -21.210 -18.267  0.00  0.00    +0.230 C 
BRANCH   4  10
ATOM     10  N   UNL     1      34.814 -24.154 -14.195  0.00  0.00    -0.334 N 
ATOM     11  H   UNL     1      34.138 -24.830 -14.432  0.00  0.00    +0.147 HD
BRANCH  10  13
ATOM     12  F   UNL     1      38.190 -24.157 -10.786  0.00  0.00    -0.204 F 
ATOM     13  C   UNL     1      36.033 -24.591 -13.711  0.00  0.00    +0.047 C 
ATOM     14  C   UNL     1      36.518 -24.149 -12.463  0.00  0.00    +0.044 C 
ATOM     15  C   UNL     1      36.827 -25.490 -14.449  0.00  0.00    +0.014 C 
ATOM     16  C   UNL     1      37.749 -24.589 -11.975  0.00  0.00    +0.141 C 
ATOM     17  C   UNL     1      38.058 -25.930 -13.961  0.00  0.00    +0.004 C 
ATOM     18  C   UNL     1      38.518 -25.479 -12.724  0.00  0.00    +0.030 C 
ENDBRANCH  10  13
ENDBRANCH   4  10
ENDBRANCH   1   9
BRANCH   1  20
ATOM     19  C   UNL     1      35.604 -17.995 -22.046  0.00  0.00    -0.043 C 
ATOM     20  C   UNL     1      35.955 -19.586 -19.787  0.00  0.00    -0.013 C 
ATOM     21  C   UNL     1      34.554 -18.787 -21.581  0.00  0.00    -0.007 C 
ATOM     22  C   UNL     1      36.829 -18.000 -21.380  0.00  0.00    -0.007 C 
ATOM     23  C   UNL     1      34.729 -19.584 -20.450  0.00  0.00    -0.004 C 
ATOM     24  C   UNL     1      37.005 -18.797 -20.249  0.00  0.00    -0.004 C 
BRANCH  19  25
ATOM     25  C   UNL     1      35.417 -17.145 -23.256  0.00  0.00    -0.050 C 
BRANCH  25  26
ATOM     26  N   UNL     1      34.625 -15.948 -22.978  0.00  0.00    +0.387 N 
ATOM     27  N   UNL     1      34.248 -13.089 -22.802  0.00  0.00    +0.382 N 
ATOM     28  C   UNL     1      33.648 -13.865 -23.893  0.00  0.00    -0.083 C 
ATOM     29  C   UNL     1      34.484 -15.123 -24.186  0.00  0.00    -0.099 C 
ATOM     30  C   UNL     1      35.227 -15.166 -21.891  0.00  0.00    -0.101 C 
ATOM     31  C   UNL     1      34.402 -13.912 -21.602  0.00  0.00    -0.105 C 
ATOM     32  C   UNL     1      33.550 -12.983 -25.136  0.00  0.00    -0.026 C 
ATOM     33  H   UNL     1      33.695 -16.246 -22.683  0.00  0.00    -0.079 HD
ATOM     34  H   UNL     1      33.647 -12.294 -22.587  0.00  0.00    -0.085 HD
ATOM     35  H   UNL     1      35.170 -12.769 -23.097  0.00  0.00    -0.085 HD
ENDBRANCH  25  26
ENDBRANCH  19  25
ENDBRANCH   1  20
TORSDOF 6
ENDMDL
MODEL 5
REMARK VINA RESULT:     -10.8      3.075      5.616
REMARK  Name = 15984937
REMARK  6 active torsions:
REMARK  status: ('A' for Active; 'I' for Inactive)
REMARK    1  A    between atoms: C_1  and  C_9
REMARK    2  A    between atoms: C_1  and  C_20
REMARK    3  A    between atoms: C_4  and  N_10
REMARK    4  A    between atoms: N_10  and  C_13
REMARK    5  A    between atoms: C_19  and  C_25
REMARK    6  A    between atoms: C_25  and  N_26
REMARK                            x       y       z     vdW  Elec       q    Type
REMARK                         _______ _______ _______ _____ _____    ______ ____
ROOT
ATOM      1  C   UNL     1      34.199 -13.249 -23.308  0.00  0.00    +0.112 C 
ENDROOT
BRANCH   1   9
ATOM      2  O   UNL     1      32.431 -13.175 -21.732  0.00  0.00    -0.275 OA
ATOM      3  N   UNL     1      33.385 -11.137 -22.315  0.00  0.00    -0.279 N 
ATOM      4  C   UNL     1      32.699  -8.404 -23.036  0.00  0.00    +0.072 C 
ATOM      5  C   UNL     1      33.644  -9.258 -23.888  0.00  0.00    +0.041 C 
ATOM      6  C   UNL     1      31.772  -9.276 -22.183  0.00  0.00    +0.041 C 
ATOM      7  C   UNL     1      34.355 -10.338 -23.072  0.00  0.00    +0.095 C 
ATOM      8  C   UNL     1      32.524 -10.366 -21.418  0.00  0.00    +0.095 C 
ATOM      9  C   UNL     1      33.257 -12.525 -22.379  0.00  0.00    +0.230 C 
BRANCH   4  10
ATOM     10  N   UNL     1      33.467  -7.508 -22.193  0.00  0.00    -0.334 N 
ATOM     11  H   UNL     1      34.446  -7.618 -22.166  0.00  0.00    +0.147 HD
BRANCH  10  13
ATOM     12  F   UNL     1      32.447  -5.620 -17.902  0.00  0.00    -0.204 F 
ATOM     13  C   UNL     1      32.900  -6.509 -21.423  0.00  0.00    +0.047 C 
ATOM     14  C   UNL     1      32.955  -6.559 -20.016  0.00  0.00    +0.044 C 
ATOM     15  C   UNL     1      32.249  -5.413 -22.022  0.00  0.00    +0.014 C 
ATOM     16  C   UNL     1      32.382  -5.553 -19.239  0.00  0.00    +0.141 C 
ATOM     17  C   UNL     1      31.676  -4.406 -21.245  0.00  0.00    +0.004 C 
ATOM     18  C   UNL     1      31.743  -4.477 -19.853  0.00  0.00    +0.030 C 
ENDBRANCH  10  13
ENDBRANCH   4  10
ENDBRANCH   1   9
BRANCH   1  20
ATOM     19  C   UNL     1      35.556 -16.899 -21.531  0.00  0.00    -0.043 C 
ATOM     20  C   UNL     1      34.674 -14.524 -22.687  0.00  0.00    -0.013 C 
ATOM     21  C   UNL     1      35.298 -15.787 -20.730  0.00  0.00    -0.007 C 
ATOM     22  C   UNL     1      35.372 -16.821 -22.911  0.00  0.00    -0.007 C 
ATOM     23  C   UNL     1      34.856 -14.598 -21.308  0.00  0.00    -0.004 C 
ATOM     24  C   UNL     1      34.930 -15.632 -23.491  0.00  0.00    -0.004 C 
BRANCH  19  25
ATOM     25  C   UNL     1      36.030 -18.170 -20.913  0.00  0.00    -0.050 C 
BRANCH  25  26
ATOM     26  N   UNL     1      34.990 -18.825 -20.120  0.00  0.00    +0.387 N 
ATOM     27  N   UNL     1      33.282 -21.055 -19.445  0.00  0.00    +0.382 N 
ATOM     28  C   UNL     1      34.429 -20.699 -18.603  0.00  0.00    -0.083 C 
ATOM     29  C   UNL     1      35.523 -20.013 -19.439  0.00  0.00    -0.099 C 
ATOM     30  C   UNL     1      33.844 -19.188 -20.962  0.00  0.00    -0.101 C 
ATOM     31  C   UNL     1      32.758 -19.876 -20.135  0.00  0.00    -0.105 C 
ATOM     32  C   UNL     1      34.972 -21.963 -17.940  0.00  0.00    -0.026 C 
ATOM     33  H   UNL     1      34.671 -18.164 -19.411  0.00  0.00    -0.079 HD
ATOM     34  H   UNL     1      32.548 -21.454 -18.861  0.00  0.00    -0.085 HD
ATOM     35  H   UNL     1      33.588 -21.732 -20.144  0.00  0.00    -0.085 HD
ENDBRANCH  25  26
ENDBRANCH  19  25
ENDBRANCH   1  20
TORSDOF 6
ENDMDL
MODEL 6
REMARK VINA RESULT:     -10.6      4.159     11.071
REMARK  Name = 15984937
REMARK  6 active torsions:
REMARK  status: ('A' for Active; 'I' for Inactive)
REMARK    1  A    between atoms: C_1  and  C_9
REMARK    2  A    between atoms: C_1  and  C_20
REMARK    3  A    between atoms: C_4  and  N_10
REMARK    4  A    between atoms: N_10  and  C_13
REMARK    5  A    between atoms: C_19  and  C_25
REMARK    6  A    between atoms: C_25  and  N_26
REMARK                            x       y       z     vdW  Elec       q    Type
REMARK                         _______ _______ _______ _____ _____    ______ ____
ROOT
ATOM      1  C   UNL     1      36.545 -19.426 -19.815  0.00  0.00    +0.112 C 
ENDROOT
BRANCH   1   9
ATOM      2  O   UNL     1      34.306 -20.200 -19.825  0.00  0.00    -0.275 OA
ATOM      3  N   UNL     1      35.724 -21.151 -18.248  0.00  0.00    -0.279 N 
ATOM      4  C   UNL     1      35.854 -21.922 -15.447  0.00  0.00    +0.072 C 
ATOM      5  C   UNL     1      36.928 -21.046 -16.100  0.00  0.00    +0.041 C 
ATOM      6  C   UNL     1      34.525 -21.840 -16.206  0.00  0.00    +0.041 C 
ATOM      7  C   UNL     1      37.037 -21.280 -17.608  0.00  0.00    +0.095 C 
ATOM      8  C   UNL     1      34.692 -22.040 -17.713  0.00  0.00    +0.095 C 
ATOM      9  C   UNL     1      35.421 -20.290 -19.303  0.00  0.00    +0.230 C 
BRANCH   4  10
ATOM     10  N   UNL     1      36.311 -23.296 -15.377  0.00  0.00    -0.334 N 
ATOM     11  H   UNL     1      36.155 -23.879 -16.155  0.00  0.00    +0.147 HD
BRANCH  10  13
ATOM     12  F   UNL     1      40.321 -24.770 -13.193  0.00  0.00    -0.204 F 
ATOM     13  C   UNL     1      36.953 -23.833 -14.276  0.00  0.00    +0.047 C 
ATOM     14  C   UNL     1      38.347 -24.040 -14.279  0.00  0.00    +0.044 C 
ATOM     15  C   UNL     1      36.233 -24.190 -13.119  0.00  0.00    +0.014 C 
ATOM     16  C   UNL     1      38.994 -24.583 -13.169  0.00  0.00    +0.141 C 
ATOM     17  C   UNL     1      36.880 -24.734 -12.009  0.00  0.00    +0.004 C 
ATOM     18  C   UNL     1      38.261 -24.930 -12.035  0.00  0.00    +0.030 C 
ENDBRANCH  10  13
ENDBRANCH   4  10
ENDBRANCH   1   9
BRANCH   1  20
ATOM     19  C   UNL     1      35.044 -16.389 -22.431  0.00  0.00    -0.043 C 
ATOM     20  C   UNL     1      36.020 -18.365 -20.729  0.00  0.00    -0.013 C 
ATOM     21  C   UNL     1      35.359 -16.077 -21.109  0.00  0.00    -0.007 C 
ATOM     22  C   UNL     1      35.219 -17.690 -22.901  0.00  0.00    -0.007 C 
ATOM     23  C   UNL     1      35.848 -17.066 -20.256  0.00  0.00    -0.004 C 
ATOM     24  C   UNL     1      35.707 -18.680 -22.049  0.00  0.00    -0.004 C 
BRANCH  19  25
ATOM     25  C   UNL     1      34.520 -15.331 -23.342  0.00  0.00    -0.050 C 
BRANCH  25  26
ATOM     26  N   UNL     1      34.474 -14.017 -22.702  0.00  0.00    +0.387 N 
ATOM     27  N   UNL     1      33.168 -11.542 -21.988  0.00  0.00    +0.382 N 
ATOM     28  C   UNL     1      33.386 -12.596 -20.992  0.00  0.00    -0.083 C 
ATOM     29  C   UNL     1      33.432 -13.978 -21.667  0.00  0.00    -0.099 C 
ATOM     30  C   UNL     1      34.249 -12.961 -23.696  0.00  0.00    -0.101 C 
ATOM     31  C   UNL     1      34.196 -11.587 -23.027  0.00  0.00    -0.105 C 
ATOM     32  C   UNL     1      32.266 -12.541 -19.955  0.00  0.00    -0.026 C 
ATOM     33  H   UNL     1      35.376 -13.851 -22.256  0.00  0.00    -0.079 HD
ATOM     34  H   UNL     1      33.199 -10.633 -21.526  0.00  0.00    -0.085 HD
ATOM     35  H   UNL     1      32.257 -11.688 -22.424  0.00  0.00    -0.085 HD
ENDBRANCH  25  26
ENDBRANCH  19  25
ENDBRANCH   1  20
TORSDOF 6
ENDMDL
MODEL 7
REMARK VINA RESULT:     -10.4      4.346     11.220
REMARK  Name = 15984937
REMARK  6 active torsions:
REMARK  status: ('A' for Active; 'I' for Inactive)
REMARK    1  A    between atoms: C_1  and  C_9
REMARK    2  A    between atoms: C_1  and  C_20
REMARK    3  A    between atoms: C_4  and  N_10
REMARK    4  A    between atoms: N_10  and  C_13
REMARK    5  A    between atoms: C_19  and  C_25
REMARK    6  A    between atoms: C_25  and  N_26
REMARK                            x       y       z     vdW  Elec       q    Type
REMARK                         _______ _______ _______ _____ _____    ______ ____
ROOT
ATOM      1  C   UNL     1      32.861 -21.706 -17.626  0.00  0.00    +0.112 C 
ENDROOT
BRANCH   1   9
ATOM      2  O   UNL     1      33.823 -23.836 -18.015  0.00  0.00    -0.275 OA
ATOM      3  N   UNL     1      34.187 -22.903 -15.919  0.00  0.00    -0.279 N 
ATOM      4  C   UNL     1      34.183 -23.554 -13.084  0.00  0.00    +0.072 C 
ATOM      5  C   UNL     1      33.409 -22.357 -13.645  0.00  0.00    +0.041 C 
ATOM      6  C   UNL     1      34.432 -24.616 -14.161  0.00  0.00    +0.041 C 
ATOM      7  C   UNL     1      34.017 -21.821 -14.942  0.00  0.00    +0.095 C 
ATOM      8  C   UNL     1      35.001 -24.026 -15.452  0.00  0.00    +0.095 C 
ATOM      9  C   UNL     1      33.666 -22.912 -17.213  0.00  0.00    +0.230 C 
BRANCH   4  10
ATOM     10  N   UNL     1      35.440 -23.108 -12.515  0.00  0.00    -0.334 N 
ATOM     11  H   UNL     1      35.447 -22.266 -12.003  0.00  0.00    +0.147 HD
BRANCH  10  13
ATOM     12  F   UNL     1      39.651 -23.759 -14.720  0.00  0.00    -0.204 F 
ATOM     13  C   UNL     1      36.630 -23.798 -12.655  0.00  0.00    +0.047 C 
ATOM     14  C   UNL     1      37.571 -23.430 -13.638  0.00  0.00    +0.044 C 
ATOM     15  C   UNL     1      36.938 -24.890 -11.820  0.00  0.00    +0.014 C 
ATOM     16  C   UNL     1      38.770 -24.127 -13.780  0.00  0.00    +0.141 C 
ATOM     17  C   UNL     1      38.138 -25.587 -11.962  0.00  0.00    +0.004 C 
ATOM     18  C   UNL     1      39.054 -25.204 -12.942  0.00  0.00    +0.030 C 
ENDBRANCH  10  13
ENDBRANCH   4  10
ENDBRANCH   1   9
BRANCH   1  20
ATOM     19  C   UNL     1      35.008 -19.380 -20.507  0.00  0.00    -0.043 C 
ATOM     20  C   UNL     1      33.611 -20.893 -18.633  0.00  0.00    -0.013 C 
ATOM     21  C   UNL     1      35.703 -20.141 -19.568  0.00  0.00    -0.007 C 
ATOM     22  C   UNL     1      33.613 -19.376 -20.507  0.00  0.00    -0.007 C 
ATOM     23  C   UNL     1      35.004 -20.900 -18.629  0.00  0.00    -0.004 C 
ATOM     24  C   UNL     1      32.913 -20.133 -19.568  0.00  0.00    -0.004 C 
BRANCH  19  25
ATOM     25  C   UNL     1      35.755 -18.568 -21.510  0.00  0.00    -0.050 C 
BRANCH  25  26
ATOM     26  N   UNL     1      35.085 -17.305 -21.816  0.00  0.00    +0.387 N 
ATOM     27  N   UNL     1      35.043 -14.561 -22.715  0.00  0.00    +0.382 N 
ATOM     28  C   UNL     1      34.522 -15.641 -23.559  0.00  0.00    -0.083 C 
ATOM     29  C   UNL     1      35.230 -16.969 -23.239  0.00  0.00    -0.099 C 
ATOM     30  C   UNL     1      35.610 -16.221 -20.977  0.00  0.00    -0.101 C 
ATOM     31  C   UNL     1      34.913 -14.899 -21.299  0.00  0.00    -0.105 C 
ATOM     32  C   UNL     1      34.720 -15.267 -25.027  0.00  0.00    -0.026 C 
ATOM     33  H   UNL     1      34.092 -17.417 -21.611  0.00  0.00    -0.079 HD
ATOM     34  H   UNL     1      34.520 -13.706 -22.904  0.00  0.00    -0.085 HD
ATOM     35  H   UNL     1      36.032 -14.427 -22.929  0.00  0.00    -0.085 HD
ENDBRANCH  25  26
ENDBRANCH  19  25
ENDBRANCH   1  20
TORSDOF 6
ENDMDL
MODEL 8
REMARK VINA RESULT:     -10.4      4.415     11.267
REMARK  Name = 15984937
REMARK  6 active torsions:
REMARK  status: ('A' for Active; 'I' for Inactive)
REMARK    1  A    between atoms: C_1  and  C_9
REMARK    2  A    between atoms: C_1  and  C_20
REMARK    3  A    between atoms: C_4  and  N_10
REMARK    4  A    between atoms: N_10  and  C_13
REMARK    5  A    between atoms: C_19  and  C_25
REMARK    6  A    between atoms: C_25  and  N_26
REMARK                            x       y       z     vdW  Elec       q    Type
REMARK                         _______ _______ _______ _____ _____    ______ ____
ROOT
ATOM      1  C   UNL     1      33.707 -22.563 -18.607  0.00  0.00    +0.112 C 
ENDROOT
BRANCH   1   9
ATOM      2  O   UNL     1      32.023 -21.870 -17.091  0.00  0.00    -0.275 OA
ATOM      3  N   UNL     1      33.967 -22.734 -16.155  0.00  0.00    -0.279 N 
ATOM      4  C   UNL     1      35.903 -22.258 -14.037  0.00  0.00    +0.072 C 
ATOM      5  C   UNL     1      36.327 -22.484 -15.492  0.00  0.00    +0.041 C 
ATOM      6  C   UNL     1      34.458 -21.753 -13.947  0.00  0.00    +0.041 C 
ATOM      7  C   UNL     1      35.310 -23.312 -16.278  0.00  0.00    +0.095 C 
ATOM      8  C   UNL     1      33.487 -22.588 -14.781  0.00  0.00    +0.095 C 
ATOM      9  C   UNL     1      33.150 -22.356 -17.221  0.00  0.00    +0.230 C 
BRANCH   4  10
ATOM     10  N   UNL     1      36.056 -23.486 -13.281  0.00  0.00    -0.334 N 
ATOM     11  H   UNL     1      35.338 -23.741 -12.656  0.00  0.00    +0.147 HD
BRANCH  10  13
ATOM     12  F   UNL     1      40.776 -24.232 -12.854  0.00  0.00    -0.204 F 
ATOM     13  C   UNL     1      37.157 -24.316 -13.387  0.00  0.00    +0.047 C 
ATOM     14  C   UNL     1      38.448 -23.854 -13.061  0.00  0.00    +0.044 C 
ATOM     15  C   UNL     1      37.021 -25.648 -13.824  0.00  0.00    +0.014 C 
ATOM     16  C   UNL     1      39.558 -24.691 -13.170  0.00  0.00    +0.141 C 
ATOM     17  C   UNL     1      38.131 -26.486 -13.933  0.00  0.00    +0.004 C 
ATOM     18  C   UNL     1      39.400 -26.006 -13.605  0.00  0.00    +0.030 C 
ENDBRANCH  10  13
ENDBRANCH   4  10
ENDBRANCH   1   9
BRANCH   1  20
ATOM     19  C   UNL     1      35.585 -18.986 -20.023  0.00  0.00    -0.043 C 
ATOM     20  C   UNL     1      34.364 -21.313 -19.102  0.00  0.00    -0.013 C 
ATOM     21  C   UNL     1      34.204 -19.141 -20.137  0.00  0.00    -0.007 C 
ATOM     22  C   UNL     1      36.354 -19.997 -19.448  0.00  0.00    -0.007 C 
ATOM     23  C   UNL     1      33.591 -20.306 -19.676  0.00  0.00    -0.004 C 
ATOM     24  C   UNL     1      35.743 -21.163 -18.987  0.00  0.00    -0.004 C 
BRANCH  19  25
ATOM     25  C   UNL     1      36.239 -17.741 -20.518  0.00  0.00    -0.050 C 
BRANCH  25  26
ATOM     26  N   UNL     1      35.296 -16.842 -21.180  0.00  0.00    +0.387 N 
ATOM     27  N   UNL     1      34.614 -14.462 -22.669  0.00  0.00    +0.382 N 
ATOM     28  C   UNL     1      34.608 -15.782 -23.309  0.00  0.00    -0.083 C 
ATOM     29  C   UNL     1      35.603 -16.726 -22.612  0.00  0.00    -0.099 C 
ATOM     30  C   UNL     1      35.305 -15.518 -20.545  0.00  0.00    -0.101 C 
ATOM     31  C   UNL     1      34.322 -14.575 -21.240  0.00  0.00    -0.105 C 
ATOM     32  C   UNL     1      34.963 -15.621 -24.786  0.00  0.00    -0.026 C 
ATOM     33  H   UNL     1      34.361 -17.237 -21.083  0.00  0.00    -0.079 HD
ATOM     34  H   UNL     1      33.907 -13.873 -23.109  0.00  0.00    -0.085 HD
ATOM     35  H   UNL     1      35.540 -14.049 -22.780  0.00  0.00    -0.085 HD
ENDBRANCH  25  26
ENDBRANCH  19  25
ENDBRANCH   1  20
TORSDOF 6
ENDMDL
MODEL 9
REMARK VINA RESULT:     -10.4      3.858      5.668
REMARK  Name = 15984937
REMARK  6 active torsions:
REMARK  status: ('A' for Active; 'I' for Inactive)
REMARK    1  A    between atoms: C_1  and  C_9
REMARK    2  A    between atoms: C_1  and  C_20
REMARK    3  A    between atoms: C_4  and  N_10
REMARK    4  A    between atoms: N_10  and  C_13
REMARK    5  A    between atoms: C_19  and  C_25
REMARK    6  A    between atoms: C_25  and  N_26
REMARK                            x       y       z     vdW  Elec       q    Type
REMARK                         _______ _______ _______ _____ _____    ______ ____
ROOT
ATOM      1  C   UNL     1      34.225 -21.337 -18.493  0.00  0.00    +0.112 C 
ENDROOT
BRANCH   1   9
ATOM      2  O   UNL     1      36.587 -21.513 -18.423  0.00  0.00    -0.275 OA
ATOM      3  N   UNL     1      35.704 -20.060 -20.006  0.00  0.00    -0.279 N 
ATOM      4  C   UNL     1      36.054 -17.400 -21.129  0.00  0.00    +0.072 C 
ATOM      5  C   UNL     1      34.699 -17.892 -20.610  0.00  0.00    +0.041 C 
ATOM      6  C   UNL     1      37.214 -18.171 -20.489  0.00  0.00    +0.041 C 
ATOM      7  C   UNL     1      34.566 -19.414 -20.670  0.00  0.00    +0.095 C 
ATOM      8  C   UNL     1      37.014 -19.686 -20.537  0.00  0.00    +0.095 C 
ATOM      9  C   UNL     1      35.613 -20.984 -18.965  0.00  0.00    +0.230 C 
BRANCH   4  10
ATOM     10  N   UNL     1      36.104 -17.522 -22.573  0.00  0.00    -0.334 N 
ATOM     11  H   UNL     1      36.830 -18.056 -22.971  0.00  0.00    +0.147 HD
BRANCH  10  13
ATOM     12  F   UNL     1      32.501 -17.863 -25.723  0.00  0.00    -0.204 F 
ATOM     13  C   UNL     1      35.189 -16.927 -23.423  0.00  0.00    +0.047 C 
ATOM     14  C   UNL     1      34.279 -17.704 -24.167  0.00  0.00    +0.044 C 
ATOM     15  C   UNL     1      35.140 -15.527 -23.570  0.00  0.00    +0.014 C 
ATOM     16  C   UNL     1      33.358 -17.104 -25.025  0.00  0.00    +0.141 C 
ATOM     17  C   UNL     1      34.218 -14.927 -24.428  0.00  0.00    +0.004 C 
ATOM     18  C   UNL     1      33.327 -15.717 -25.156  0.00  0.00    +0.030 C 
ENDBRANCH  10  13
ENDBRANCH   4  10
ENDBRANCH   1   9
BRANCH   1  20
ATOM     19  C   UNL     1      34.345 -22.942 -14.527  0.00  0.00    -0.043 C 
ATOM     20  C   UNL     1      34.267 -21.898 -17.107  0.00  0.00    -0.013 C 
ATOM     21  C   UNL     1      35.465 -22.298 -15.053  0.00  0.00    -0.007 C 
ATOM     22  C   UNL     1      33.186 -23.062 -15.293  0.00  0.00    -0.007 C 
ATOM     23  C   UNL     1      35.426 -21.775 -16.345  0.00  0.00    -0.004 C 
ATOM     24  C   UNL     1      33.147 -22.540 -16.586  0.00  0.00    -0.004 C 
BRANCH  19  25
ATOM     25  C   UNL     1      34.387 -23.501 -13.145  0.00  0.00    -0.050 C 
BRANCH  25  26
ATOM     26  N   UNL     1      35.662 -23.243 -12.478  0.00  0.00    +0.387 N 
ATOM     27  N   UNL     1      37.906 -24.000 -10.824  0.00  0.00    +0.382 N 
ATOM     28  C   UNL     1      38.048 -23.873 -12.279  0.00  0.00    -0.083 C 
ATOM     29  C   UNL     1      36.706 -24.148 -12.979  0.00  0.00    -0.099 C 
ATOM     30  C   UNL     1      35.524 -23.375 -11.023  0.00  0.00    -0.101 C 
ATOM     31  C   UNL     1      36.859 -23.110 -10.324  0.00  0.00    -0.105 C 
ATOM     32  C   UNL     1      39.117 -24.851 -12.763  0.00  0.00    -0.026 C 
ATOM     33  H   UNL     1      35.940 -22.284 -12.688  0.00  0.00    -0.079 HD
ATOM     34  H   UNL     1      38.791 -23.757 -10.379  0.00  0.00    -0.085 HD
ATOM     35  H   UNL     1      37.649 -24.962 -10.603  0.00  0.00    -0.085 HD
ENDBRANCH  25  26
ENDBRANCH  19  25
ENDBRANCH   1  20
TORSDOF 6
ENDMDL
