MODEL 1
REMARK VINA RESULT:     -11.5      0.000      0.000
REMARK  Name = 11712628
REMARK  7 active torsions:
REMARK  status: ('A' for Active; 'I' for Inactive)
REMARK    1  A    between atoms: C_1  and  C_10
REMARK    2  A    between atoms: C_2  and  C_16
REMARK    3  A    between atoms: C_3  and  C_14
REMARK    4  A    between atoms: C_4  and  S_25
REMARK    5  A    between atoms: C_15  and  C_24
REMARK    6  A    between atoms: S_25  and  C_26
REMARK    7  A    between atoms: C_29  and  N_32
REMARK                            x       y       z     vdW  Elec       q    Type
REMARK                         _______ _______ _______ _____ _____    ______ ____
ROOT
ATOM      1  C   UNL     1      34.410 -14.429 -22.234  0.00  0.00    +0.076 C 
ATOM      2  C   UNL     1      34.420 -14.084 -20.892  0.00  0.00    +0.004 C 
ATOM      3  C   UNL     1      34.875 -15.685 -22.623  0.00  0.00    +0.081 C 
ATOM      4  C   UNL     1      35.345 -16.582 -21.664  0.00  0.00    +0.033 C 
ATOM      5  C   UNL     1      34.884 -14.965 -19.927  0.00  0.00    +0.000 C 
ATOM      6  C   UNL     1      35.349 -16.222 -20.316  0.00  0.00    +0.006 C 
ENDROOT
BRANCH   1  10
ATOM      7  F   UNL     1      34.202 -13.848 -24.546  0.00  0.00    -0.166 F 
ATOM      8  F   UNL     1      32.552 -13.309 -23.244  0.00  0.00    -0.166 F 
ATOM      9  F   UNL     1      34.432 -12.222 -23.121  0.00  0.00    -0.166 F 
ATOM     10  C   UNL     1      33.906 -13.470 -23.270  0.00  0.00    +0.419 C 
ENDBRANCH   1  10
BRANCH   3  14
ATOM     11  F   UNL     1      33.644 -15.880 -24.664  0.00  0.00    -0.166 F 
ATOM     12  F   UNL     1      35.732 -15.318 -24.826  0.00  0.00    -0.166 F 
ATOM     13  F   UNL     1      35.196 -17.354 -24.286  0.00  0.00    -0.166 F 
ATOM     14  C   UNL     1      34.861 -16.051 -24.076  0.00  0.00    +0.419 C 
ENDBRANCH   3  14
BRANCH   2  16
ATOM     15  C   UNL     1      32.651 -12.464 -20.253  0.00  0.00    +0.058 C 
ATOM     16  C   UNL     1      33.935 -12.766 -20.446  0.00  0.00    +0.005 C 
BRANCH  15  24
ATOM     17  O   UNL     1      32.851  -7.854 -22.395  0.00  0.00    -0.350 OA
ATOM     18  O   UNL     1      32.114 -10.915 -18.613  0.00  0.00    -0.270 OA
ATOM     19  N   UNL     1      32.271 -10.094 -20.780  0.00  0.00    -0.271 N 
ATOM     20  C   UNL     1      31.801  -8.759 -20.406  0.00  0.00    +0.126 C 
ATOM     21  C   UNL     1      32.511 -10.249 -22.221  0.00  0.00    +0.126 C 
ATOM     22  C   UNL     1      32.728  -7.695 -20.979  0.00  0.00    +0.164 C 
ATOM     23  C   UNL     1      33.413  -9.127 -22.724  0.00  0.00    +0.164 C 
ATOM     24  C   UNL     1      32.324 -11.094 -19.814  0.00  0.00    +0.249 C 
ENDBRANCH  15  24
ENDBRANCH   2  16
BRANCH   4  25
ATOM     25  S   UNL     1      35.955 -18.205 -22.104  0.00  0.00    -0.087 S 
BRANCH  25  26
ATOM     26  C   UNL     1      35.242 -19.202 -20.807  0.00  0.00    +0.031 C 
ATOM     27  C   UNL     1      36.069 -19.812 -19.865  0.00  0.00    +0.021 C 
ATOM     28  C   UNL     1      33.861 -19.370 -20.741  0.00  0.00    +0.007 C 
ATOM     29  C   UNL     1      35.511 -20.592 -18.853  0.00  0.00    +0.042 C 
ATOM     30  C   UNL     1      33.303 -20.149 -19.727  0.00  0.00    +0.002 C 
ATOM     31  C   UNL     1      34.128 -20.760 -18.784  0.00  0.00    +0.014 C 
BRANCH  29  32
ATOM     32  N   UNL     1      36.344 -21.210 -17.898  0.00  0.00    -0.357 N 
ATOM     33  H   UNL     1      36.675 -22.125 -18.052  0.00  0.00    +0.142 HD
ATOM     34  H   UNL     1      36.595 -20.729 -17.076  0.00  0.00    +0.142 HD
ENDBRANCH  29  32
ENDBRANCH  25  26
ENDBRANCH   4  25
TORSDOF 7
ENDMDL
MODEL 2
REMARK VINA RESULT:     -11.3      7.595     10.818
REMARK  Name = 11712628
REMARK  7 active torsions:
REMARK  status: ('A' for Active; 'I' for Inactive)
REMARK    1  A    between atoms: C_1  and  C_10
REMARK    2  A    between atoms: C_2  and  C_16
REMARK    3  A    between atoms: C_3  and  C_14
REMARK    4  A    between atoms: C_4  and  S_25
REMARK    5  A    between atoms: C_15  and  C_24
REMARK    6  A    between atoms: S_25  and  C_26
REMARK    7  A    between atoms: C_29  and  N_32
REMARK                            x       y       z     vdW  Elec       q    Type
REMARK                         _______ _______ _______ _____ _____    ______ ____
ROOT
ATOM      1  C   UNL     1      32.723 -22.681 -15.400  0.00  0.00    +0.076 C 
ATOM      2  C   UNL     1      33.761 -22.265 -16.219  0.00  0.00    +0.004 C 
ATOM      3  C   UNL     1      33.014 -23.272 -14.170  0.00  0.00    +0.081 C 
ATOM      4  C   UNL     1      34.342 -23.438 -13.774  0.00  0.00    +0.033 C 
ATOM      5  C   UNL     1      35.085 -22.424 -15.838  0.00  0.00    +0.000 C 
ATOM      6  C   UNL     1      35.377 -23.014 -14.608  0.00  0.00    +0.006 C 
ENDROOT
BRANCH   1  10
ATOM      7  F   UNL     1      30.662 -23.681 -16.091  0.00  0.00    -0.166 F 
ATOM      8  F   UNL     1      30.527 -21.888 -14.877  0.00  0.00    -0.166 F 
ATOM      9  F   UNL     1      31.176 -21.750 -16.948  0.00  0.00    -0.166 F 
ATOM     10  C   UNL     1      31.295 -22.505 -15.820  0.00  0.00    +0.419 C 
ENDBRANCH   1  10
BRANCH   3  14
ATOM     11  F   UNL     1      30.884 -24.341 -13.971  0.00  0.00    -0.166 F 
ATOM     12  F   UNL     1      32.274 -24.602 -12.326  0.00  0.00    -0.166 F 
ATOM     13  F   UNL     1      31.302 -22.681 -12.630  0.00  0.00    -0.166 F 
ATOM     14  C   UNL     1      31.888 -23.718 -13.290  0.00  0.00    +0.419 C 
ENDBRANCH   3  14
BRANCH   2  16
ATOM     15  C   UNL     1      34.406 -21.010 -18.261  0.00  0.00    +0.058 C 
ATOM     16  C   UNL     1      33.489 -21.638 -17.525  0.00  0.00    +0.005 C 
BRANCH  15  24
ATOM     17  O   UNL     1      36.491 -17.838 -21.649  0.00  0.00    -0.350 OA
ATOM     18  O   UNL     1      32.787 -20.534 -19.851  0.00  0.00    -0.270 OA
ATOM     19  N   UNL     1      34.934 -19.782 -20.324  0.00  0.00    -0.271 N 
ATOM     20  C   UNL     1      34.577 -19.325 -21.668  0.00  0.00    +0.126 C 
ATOM     21  C   UNL     1      36.360 -19.620 -20.008  0.00  0.00    +0.126 C 
ATOM     22  C   UNL     1      35.084 -17.907 -21.893  0.00  0.00    +0.164 C 
ATOM     23  C   UNL     1      36.798 -18.188 -20.296  0.00  0.00    +0.164 C 
ATOM     24  C   UNL     1      33.976 -20.422 -19.544  0.00  0.00    +0.249 C 
ENDBRANCH  15  24
ENDBRANCH   2  16
BRANCH   4  25
ATOM     25  S   UNL     1      34.774 -24.189 -12.209  0.00  0.00    -0.087 S 
BRANCH  25  26
ATOM     26  C   UNL     1      36.552 -24.267 -12.346  0.00  0.00    +0.031 C 
ATOM     27  C   UNL     1      37.149 -25.299 -13.068  0.00  0.00    +0.021 C 
ATOM     28  C   UNL     1      37.339 -23.296 -11.730  0.00  0.00    +0.007 C 
ATOM     29  C   UNL     1      38.538 -25.359 -13.175  0.00  0.00    +0.042 C 
ATOM     30  C   UNL     1      38.729 -23.356 -11.836  0.00  0.00    +0.002 C 
ATOM     31  C   UNL     1      39.328 -24.388 -12.559  0.00  0.00    +0.014 C 
BRANCH  29  32
ATOM     32  N   UNL     1      39.146 -26.401 -13.905  0.00  0.00    -0.357 N 
ATOM     33  H   UNL     1      38.877 -27.335 -13.746  0.00  0.00    +0.142 HD
ATOM     34  H   UNL     1      39.839 -26.196 -14.574  0.00  0.00    +0.142 HD
ENDBRANCH  29  32
ENDBRANCH  25  26
ENDBRANCH   4  25
TORSDOF 7
ENDMDL
MODEL 3
REMARK VINA RESULT:     -11.0      6.100      8.977
REMARK  Name = 11712628
REMARK  7 active torsions:
REMARK  status: ('A' for Active; 'I' for Inactive)
REMARK    1  A    between atoms: C_1  and  C_10
REMARK    2  A    between atoms: C_2  and  C_16
REMARK    3  A    between atoms: C_3  and  C_14
REMARK    4  A    between atoms: C_4  and  S_25
REMARK    5  A    between atoms: C_15  and  C_24
REMARK    6  A    between atoms: S_25  and  C_26
REMARK    7  A    between atoms: C_29  and  N_32
REMARK                            x       y       z     vdW  Elec       q    Type
REMARK                         _______ _______ _______ _____ _____    ______ ____
ROOT
ATOM      1  C   UNL     1      35.630 -21.452 -17.316  0.00  0.00    +0.076 C 
ATOM      2  C   UNL     1      34.631 -21.289 -18.262  0.00  0.00    +0.004 C 
ATOM      3  C   UNL     1      35.335 -22.082 -16.107  0.00  0.00    +0.081 C 
ATOM      4  C   UNL     1      34.041 -22.543 -15.859  0.00  0.00    +0.033 C 
ATOM      5  C   UNL     1      33.341 -21.742 -18.029  0.00  0.00    +0.000 C 
ATOM      6  C   UNL     1      33.045 -22.373 -16.821  0.00  0.00    +0.006 C 
ENDROOT
BRANCH   1  10
ATOM      7  F   UNL     1      37.262 -19.720 -17.064  0.00  0.00    -0.166 F 
ATOM      8  F   UNL     1      37.987 -21.765 -17.048  0.00  0.00    -0.166 F 
ATOM      9  F   UNL     1      37.300 -20.873 -18.908  0.00  0.00    -0.166 F 
ATOM     10  C   UNL     1      37.022 -20.960 -17.577  0.00  0.00    +0.419 C 
ENDBRANCH   1  10
BRANCH   3  14
ATOM     11  F   UNL     1      37.312 -21.225 -15.070  0.00  0.00    -0.166 F 
ATOM     12  F   UNL     1      35.953 -22.354 -13.813  0.00  0.00    -0.166 F 
ATOM     13  F   UNL     1      37.157 -23.381 -15.303  0.00  0.00    -0.166 F 
ATOM     14  C   UNL     1      36.420 -22.255 -15.090  0.00  0.00    +0.419 C 
ENDBRANCH   3  14
BRANCH   2  16
ATOM     15  C   UNL     1      34.637 -19.350 -19.811  0.00  0.00    +0.058 C 
ATOM     16  C   UNL     1      34.908 -20.629 -19.550  0.00  0.00    +0.005 C 
BRANCH  15  24
ATOM     17  O   UNL     1      35.397 -14.736 -21.816  0.00  0.00    -0.350 OA
ATOM     18  O   UNL     1      34.880 -19.622 -22.101  0.00  0.00    -0.270 OA
ATOM     19  N   UNL     1      35.348 -17.504 -21.270  0.00  0.00    -0.271 N 
ATOM     20  C   UNL     1      35.827 -17.003 -22.559  0.00  0.00    +0.126 C 
ATOM     21  C   UNL     1      35.466 -16.525 -20.180  0.00  0.00    +0.126 C 
ATOM     22  C   UNL     1      35.174 -15.665 -22.879  0.00  0.00    +0.164 C 
ATOM     23  C   UNL     1      34.824 -15.205 -20.592  0.00  0.00    +0.164 C 
ATOM     24  C   UNL     1      34.965 -18.836 -21.155  0.00  0.00    +0.249 C 
ENDBRANCH  15  24
ENDBRANCH   2  16
BRANCH   4  25
ATOM     25  S   UNL     1      33.605 -23.357 -14.327  0.00  0.00    -0.087 S 
BRANCH  25  26
ATOM     26  C   UNL     1      31.823 -23.345 -14.429  0.00  0.00    +0.031 C 
ATOM     27  C   UNL     1      31.107 -24.525 -14.237  0.00  0.00    +0.021 C 
ATOM     28  C   UNL     1      31.152 -22.154 -14.700  0.00  0.00    +0.007 C 
ATOM     29  C   UNL     1      29.715 -24.514 -14.318  0.00  0.00    +0.042 C 
ATOM     30  C   UNL     1      29.759 -22.143 -14.781  0.00  0.00    +0.002 C 
ATOM     31  C   UNL     1      29.041 -23.324 -14.589  0.00  0.00    +0.014 C 
BRANCH  29  32
ATOM     32  N   UNL     1      28.988 -25.707 -14.124  0.00  0.00    -0.357 N 
ATOM     33  H   UNL     1      29.435 -26.501 -13.753  0.00  0.00    +0.142 HD
ATOM     34  H   UNL     1      28.033 -25.745 -14.361  0.00  0.00    +0.142 HD
ENDBRANCH  29  32
ENDBRANCH  25  26
ENDBRANCH   4  25
TORSDOF 7
ENDMDL
MODEL 4
REMARK VINA RESULT:     -10.9      6.184      8.979
REMARK  Name = 11712628
REMARK  7 active torsions:
REMARK  status: ('A' for Active; 'I' for Inactive)
REMARK    1  A    between atoms: C_1  and  C_10
REMARK    2  A    between atoms: C_2  and  C_16
REMARK    3  A    between atoms: C_3  and  C_14
REMARK    4  A    between atoms: C_4  and  S_25
REMARK    5  A    between atoms: C_15  and  C_24
REMARK    6  A    between atoms: S_25  and  C_26
REMARK    7  A    between atoms: C_29  and  N_32
REMARK                            x       y       z     vdW  Elec       q    Type
REMARK                         _______ _______ _______ _____ _____    ______ ____
ROOT
ATOM      1  C   UNL     1      34.937 -21.598 -17.394  0.00  0.00    +0.076 C 
ATOM      2  C   UNL     1      35.989 -20.946 -18.020  0.00  0.00    +0.004 C 
ATOM      3  C   UNL     1      35.088 -22.039 -16.080  0.00  0.00    +0.081 C 
ATOM      4  C   UNL     1      36.290 -21.822 -15.405  0.00  0.00    +0.033 C 
ATOM      5  C   UNL     1      37.189 -20.724 -17.362  0.00  0.00    +0.000 C 
ATOM      6  C   UNL     1      37.340 -21.164 -16.047  0.00  0.00    +0.006 C 
ENDROOT
BRANCH   1  10
ATOM      7  F   UNL     1      33.794 -22.000 -19.457  0.00  0.00    -0.166 F 
ATOM      8  F   UNL     1      32.979 -22.943 -17.681  0.00  0.00    -0.166 F 
ATOM      9  F   UNL     1      32.771 -20.797 -17.962  0.00  0.00    -0.166 F 
ATOM     10  C   UNL     1      33.643 -21.833 -18.113  0.00  0.00    +0.419 C 
ENDBRANCH   1  10
BRANCH   3  14
ATOM     11  F   UNL     1      34.074 -22.807 -14.054  0.00  0.00    -0.166 F 
ATOM     12  F   UNL     1      32.741 -22.147 -15.633  0.00  0.00    -0.166 F 
ATOM     13  F   UNL     1      33.811 -24.029 -15.833  0.00  0.00    -0.166 F 
ATOM     14  C   UNL     1      33.948 -22.742 -15.410  0.00  0.00    +0.419 C 
ENDBRANCH   3  14
BRANCH   2  16
ATOM     15  C   UNL     1      35.429 -19.253 -19.746  0.00  0.00    +0.058 C 
ATOM     16  C   UNL     1      35.864 -20.467 -19.407  0.00  0.00    +0.005 C 
BRANCH  15  24
ATOM     17  O   UNL     1      35.168 -14.950 -22.449  0.00  0.00    -0.350 OA
ATOM     18  O   UNL     1      35.112 -19.848 -21.965  0.00  0.00    -0.270 OA
ATOM     19  N   UNL     1      35.550 -17.602 -21.563  0.00  0.00    -0.271 N 
ATOM     20  C   UNL     1      35.632 -17.268 -22.985  0.00  0.00    +0.126 C 
ATOM     21  C   UNL     1      35.837 -16.466 -20.677  0.00  0.00    +0.126 C 
ATOM     22  C   UNL     1      34.782 -16.041 -23.288  0.00  0.00    +0.164 C 
ATOM     23  C   UNL     1      34.976 -15.269 -21.067  0.00  0.00    +0.164 C 
ATOM     24  C   UNL     1      35.350 -18.925 -21.183  0.00  0.00    +0.249 C 
ENDBRANCH  15  24
ENDBRANCH   2  16
BRANCH   4  25
ATOM     25  S   UNL     1      36.541 -22.366 -13.720  0.00  0.00    -0.087 S 
BRANCH  25  26
ATOM     26  C   UNL     1      37.292 -23.964 -13.984  0.00  0.00    +0.031 C 
ATOM     27  C   UNL     1      38.655 -24.138 -13.750  0.00  0.00    +0.021 C 
ATOM     28  C   UNL     1      36.514 -25.032 -14.424  0.00  0.00    +0.007 C 
ATOM     29  C   UNL     1      39.241 -25.386 -13.958  0.00  0.00    +0.042 C 
ATOM     30  C   UNL     1      37.100 -26.281 -14.631  0.00  0.00    +0.002 C 
ATOM     31  C   UNL     1      38.464 -26.458 -14.398  0.00  0.00    +0.014 C 
BRANCH  29  32
ATOM     32  N   UNL     1      40.619 -25.567 -13.722  0.00  0.00    -0.357 N 
ATOM     33  H   UNL     1      40.949 -26.423 -13.363  0.00  0.00    +0.142 HD
ATOM     34  H   UNL     1      41.253 -24.839 -13.918  0.00  0.00    +0.142 HD
ENDBRANCH  29  32
ENDBRANCH  25  26
ENDBRANCH   4  25
TORSDOF 7
ENDMDL
MODEL 5
REMARK VINA RESULT:     -10.6      5.191      9.675
REMARK  Name = 11712628
REMARK  7 active torsions:
REMARK  status: ('A' for Active; 'I' for Inactive)
REMARK    1  A    between atoms: C_1  and  C_10
REMARK    2  A    between atoms: C_2  and  C_16
REMARK    3  A    between atoms: C_3  and  C_14
REMARK    4  A    between atoms: C_4  and  S_25
REMARK    5  A    between atoms: C_15  and  C_24
REMARK    6  A    between atoms: S_25  and  C_26
REMARK    7  A    between atoms: C_29  and  N_32
REMARK                            x       y       z     vdW  Elec       q    Type
REMARK                         _______ _______ _______ _____ _____    ______ ____
ROOT
ATOM      1  C   UNL     1      35.401 -20.378 -19.078  0.00  0.00    +0.076 C 
ATOM      2  C   UNL     1      34.078 -20.761 -18.918  0.00  0.00    +0.004 C 
ATOM      3  C   UNL     1      35.749 -19.534 -20.133  0.00  0.00    +0.081 C 
ATOM      4  C   UNL     1      34.768 -19.082 -21.016  0.00  0.00    +0.033 C 
ATOM      5  C   UNL     1      33.093 -20.320 -19.789  0.00  0.00    +0.000 C 
ATOM      6  C   UNL     1      33.440 -19.475 -20.844  0.00  0.00    +0.006 C 
ENDROOT
BRANCH   1  10
ATOM      7  F   UNL     1      37.104 -19.849 -17.483  0.00  0.00    -0.166 F 
ATOM      8  F   UNL     1      35.977 -21.673 -17.150  0.00  0.00    -0.166 F 
ATOM      9  F   UNL     1      37.432 -21.576 -18.763  0.00  0.00    -0.166 F 
ATOM     10  C   UNL     1      36.459 -20.860 -18.132  0.00  0.00    +0.419 C 
ENDBRANCH   1  10
BRANCH   3  14
ATOM     11  F   UNL     1      38.049 -20.174 -20.269  0.00  0.00    -0.166 F 
ATOM     12  F   UNL     1      37.425 -18.484 -21.477  0.00  0.00    -0.166 F 
ATOM     13  F   UNL     1      37.592 -18.272 -19.320  0.00  0.00    -0.166 F 
ATOM     14  C   UNL     1      37.180 -19.125 -20.299  0.00  0.00    +0.419 C 
ENDBRANCH   3  14
BRANCH   2  16
ATOM     15  C   UNL     1      32.466 -21.652 -17.255  0.00  0.00    +0.058 C 
ATOM     16  C   UNL     1      33.676 -21.651 -17.815  0.00  0.00    +0.005 C 
BRANCH  15  24
ATOM     17  O   UNL     1      28.364 -23.149 -14.645  0.00  0.00    -0.350 OA
ATOM     18  O   UNL     1      33.201 -23.037 -15.546  0.00  0.00    -0.270 OA
ATOM     19  N   UNL     1      30.901 -22.935 -15.860  0.00  0.00    -0.271 N 
ATOM     20  C   UNL     1      30.628 -23.984 -14.877  0.00  0.00    +0.126 C 
ATOM     21  C   UNL     1      29.697 -22.444 -16.544  0.00  0.00    +0.126 C 
ATOM     22  C   UNL     1      29.533 -23.534 -13.918  0.00  0.00    +0.164 C 
ATOM     23  C   UNL     1      28.639 -22.051 -15.520  0.00  0.00    +0.164 C 
ATOM     24  C   UNL     1      32.220 -22.598 -16.150  0.00  0.00    +0.249 C 
ENDBRANCH  15  24
ENDBRANCH   2  16
BRANCH   4  25
ATOM     25  S   UNL     1      35.156 -18.000 -22.387  0.00  0.00    -0.087 S 
BRANCH  25  26
ATOM     26  C   UNL     1      35.024 -16.400 -21.608  0.00  0.00    +0.031 C 
ATOM     27  C   UNL     1      34.927 -15.251 -22.390  0.00  0.00    +0.021 C 
ATOM     28  C   UNL     1      35.020 -16.304 -20.218  0.00  0.00    +0.007 C 
ATOM     29  C   UNL     1      34.825 -14.001 -21.780  0.00  0.00    +0.042 C 
ATOM     30  C   UNL     1      34.917 -15.054 -19.607  0.00  0.00    +0.002 C 
ATOM     31  C   UNL     1      34.820 -13.902 -20.389  0.00  0.00    +0.014 C 
BRANCH  29  32
ATOM     32  N   UNL     1      34.726 -12.837 -22.569  0.00  0.00    -0.357 N 
ATOM     33  H   UNL     1      34.575 -12.911 -23.539  0.00  0.00    +0.142 HD
ATOM     34  H   UNL     1      34.808 -11.949 -22.150  0.00  0.00    +0.142 HD
ENDBRANCH  29  32
ENDBRANCH  25  26
ENDBRANCH   4  25
TORSDOF 7
ENDMDL
MODEL 6
REMARK VINA RESULT:     -10.6      1.123      1.524
REMARK  Name = 11712628
REMARK  7 active torsions:
REMARK  status: ('A' for Active; 'I' for Inactive)
REMARK    1  A    between atoms: C_1  and  C_10
REMARK    2  A    between atoms: C_2  and  C_16
REMARK    3  A    between atoms: C_3  and  C_14
REMARK    4  A    between atoms: C_4  and  S_25
REMARK    5  A    between atoms: C_15  and  C_24
REMARK    6  A    between atoms: S_25  and  C_26
REMARK    7  A    between atoms: C_29  and  N_32
REMARK                            x       y       z     vdW  Elec       q    Type
REMARK                         _______ _______ _______ _____ _____    ______ ____
ROOT
ATOM      1  C   UNL     1      34.096 -14.527 -22.702  0.00  0.00    +0.076 C 
ATOM      2  C   UNL     1      33.924 -13.878 -21.489  0.00  0.00    +0.004 C 
ATOM      3  C   UNL     1      34.862 -15.692 -22.754  0.00  0.00    +0.081 C 
ATOM      4  C   UNL     1      35.447 -16.195 -21.592  0.00  0.00    +0.033 C 
ATOM      5  C   UNL     1      34.500 -14.367 -20.325  0.00  0.00    +0.000 C 
ATOM      6  C   UNL     1      35.265 -15.532 -20.378  0.00  0.00    +0.006 C 
ENDROOT
BRANCH   1  10
ATOM      7  F   UNL     1      34.298 -13.176 -24.667  0.00  0.00    -0.166 F 
ATOM      8  F   UNL     1      33.084 -14.968 -24.824  0.00  0.00    -0.166 F 
ATOM      9  F   UNL     1      32.351 -13.257 -23.701  0.00  0.00    -0.166 F 
ATOM     10  C   UNL     1      33.470 -13.992 -23.954  0.00  0.00    +0.419 C 
ENDBRANCH   1  10
BRANCH   3  14
ATOM     11  F   UNL     1      35.819 -17.505 -23.986  0.00  0.00    -0.166 F 
ATOM     12  F   UNL     1      33.869 -16.802 -24.625  0.00  0.00    -0.166 F 
ATOM     13  F   UNL     1      35.635 -15.591 -25.000  0.00  0.00    -0.166 F 
ATOM     14  C   UNL     1      35.042 -16.387 -24.068  0.00  0.00    +0.419 C 
ENDBRANCH   3  14
BRANCH   2  16
ATOM     15  C   UNL     1      33.504 -11.464 -21.880  0.00  0.00    +0.058 C 
ATOM     16  C   UNL     1      33.122 -12.646 -21.397  0.00  0.00    +0.005 C 
BRANCH  15  24
ATOM     17  O   UNL     1      33.362  -6.671 -23.581  0.00  0.00    -0.350 OA
ATOM     18  O   UNL     1      31.741 -10.402 -20.811  0.00  0.00    -0.270 OA
ATOM     19  N   UNL     1      32.747  -9.220 -22.540  0.00  0.00    -0.271 N 
ATOM     20  C   UNL     1      31.766  -8.135 -22.492  0.00  0.00    +0.126 C 
ATOM     21  C   UNL     1      33.740  -9.066 -23.611  0.00  0.00    +0.126 C 
ATOM     22  C   UNL     1      32.474  -6.787 -22.466  0.00  0.00    +0.164 C 
ATOM     23  C   UNL     1      34.374  -7.681 -23.541  0.00  0.00    +0.164 C 
ATOM     24  C   UNL     1      32.591 -10.318 -21.700  0.00  0.00    +0.249 C 
ENDBRANCH  15  24
ENDBRANCH   2  16
BRANCH   4  25
ATOM     25  S   UNL     1      36.439 -17.683 -21.600  0.00  0.00    -0.087 S 
BRANCH  25  26
ATOM     26  C   UNL     1      35.393 -18.797 -20.678  0.00  0.00    +0.031 C 
ATOM     27  C   UNL     1      35.949 -19.635 -19.713  0.00  0.00    +0.021 C 
ATOM     28  C   UNL     1      34.022 -18.827 -20.927  0.00  0.00    +0.007 C 
ATOM     29  C   UNL     1      35.131 -20.505 -18.994  0.00  0.00    +0.042 C 
ATOM     30  C   UNL     1      33.203 -19.697 -20.207  0.00  0.00    +0.002 C 
ATOM     31  C   UNL     1      33.758 -20.537 -19.241  0.00  0.00    +0.014 C 
BRANCH  29  32
ATOM     32  N   UNL     1      35.690 -21.355 -18.017  0.00  0.00    -0.357 N 
ATOM     33  H   UNL     1      35.328 -21.356 -17.101  0.00  0.00    +0.142 HD
ATOM     34  H   UNL     1      36.441 -21.947 -18.250  0.00  0.00    +0.142 HD
ENDBRANCH  29  32
ENDBRANCH  25  26
ENDBRANCH   4  25
TORSDOF 7
ENDMDL
MODEL 7
REMARK VINA RESULT:     -10.6      3.844      8.746
REMARK  Name = 11712628
REMARK  7 active torsions:
REMARK  status: ('A' for Active; 'I' for Inactive)
REMARK    1  A    between atoms: C_1  and  C_10
REMARK    2  A    between atoms: C_2  and  C_16
REMARK    3  A    between atoms: C_3  and  C_14
REMARK    4  A    between atoms: C_4  and  S_25
REMARK    5  A    between atoms: C_15  and  C_24
REMARK    6  A    between atoms: S_25  and  C_26
REMARK    7  A    between atoms: C_29  and  N_32
REMARK                            x       y       z     vdW  Elec       q    Type
REMARK                         _______ _______ _______ _____ _____    ______ ____
ROOT
ATOM      1  C   UNL     1      34.484 -14.595 -21.735  0.00  0.00    +0.076 C 
ATOM      2  C   UNL     1      35.148 -15.623 -22.386  0.00  0.00    +0.004 C 
ATOM      3  C   UNL     1      33.745 -13.676 -22.480  0.00  0.00    +0.081 C 
ATOM      4  C   UNL     1      33.679 -13.796 -23.868  0.00  0.00    +0.033 C 
ATOM      5  C   UNL     1      35.091 -15.755 -23.765  0.00  0.00    +0.000 C 
ATOM      6  C   UNL     1      34.352 -14.836 -24.510  0.00  0.00    +0.006 C 
ENDROOT
BRANCH   1  10
ATOM      7  F   UNL     1      33.330 -14.518 -19.640  0.00  0.00    -0.166 F 
ATOM      8  F   UNL     1      35.299 -15.432 -19.646  0.00  0.00    -0.166 F 
ATOM      9  F   UNL     1      35.102 -13.276 -19.855  0.00  0.00    -0.166 F 
ATOM     10  C   UNL     1      34.551 -14.460 -20.244  0.00  0.00    +0.419 C 
ENDBRANCH   1  10
BRANCH   3  14
ATOM     11  F   UNL     1      32.118 -11.925 -22.552  0.00  0.00    -0.166 F 
ATOM     12  F   UNL     1      32.336 -12.989 -20.674  0.00  0.00    -0.166 F 
ATOM     13  F   UNL     1      33.881 -11.604 -21.322  0.00  0.00    -0.166 F 
ATOM     14  C   UNL     1      33.030 -12.568 -21.769  0.00  0.00    +0.419 C 
ENDBRANCH   3  14
BRANCH   2  16
ATOM     15  C   UNL     1      35.519 -17.843 -21.340  0.00  0.00    +0.058 C 
ATOM     16  C   UNL     1      35.938 -16.611 -21.630  0.00  0.00    +0.005 C 
BRANCH  15  24
ATOM     17  O   UNL     1      34.889 -21.723 -18.110  0.00  0.00    -0.350 OA
ATOM     18  O   UNL     1      37.608 -18.381 -20.489  0.00  0.00    -0.270 OA
ATOM     19  N   UNL     1      35.886 -19.852 -19.972  0.00  0.00    -0.271 N 
ATOM     20  C   UNL     1      36.779 -20.816 -19.328  0.00  0.00    +0.126 C 
ATOM     21  C   UNL     1      34.486 -20.296 -20.029  0.00  0.00    +0.126 C 
ATOM     22  C   UNL     1      36.222 -21.224 -17.970  0.00  0.00    +0.164 C 
ATOM     23  C   UNL     1      34.017 -20.722 -18.642  0.00  0.00    +0.164 C 
ATOM     24  C   UNL     1      36.424 -18.714 -20.565  0.00  0.00    +0.249 C 
ENDBRANCH  15  24
ENDBRANCH   2  16
BRANCH   4  25
ATOM     25  S   UNL     1      32.748 -12.647 -24.874  0.00  0.00    -0.087 S 
BRANCH  25  26
ATOM     26  C   UNL     1      33.996 -11.427 -25.245  0.00  0.00    +0.031 C 
ATOM     27  C   UNL     1      34.426 -10.547 -24.254  0.00  0.00    +0.021 C 
ATOM     28  C   UNL     1      34.538 -11.357 -26.527  0.00  0.00    +0.007 C 
ATOM     29  C   UNL     1      35.401  -9.594 -24.545  0.00  0.00    +0.042 C 
ATOM     30  C   UNL     1      35.514 -10.404 -26.819  0.00  0.00    +0.002 C 
ATOM     31  C   UNL     1      35.945  -9.522 -25.827  0.00  0.00    +0.014 C 
BRANCH  29  32
ATOM     32  N   UNL     1      35.838  -8.702 -23.544  0.00  0.00    -0.357 N 
ATOM     33  H   UNL     1      35.702  -8.924 -22.594  0.00  0.00    +0.142 HD
ATOM     34  H   UNL     1      36.279  -7.858 -23.794  0.00  0.00    +0.142 HD
ENDBRANCH  29  32
ENDBRANCH  25  26
ENDBRANCH   4  25
TORSDOF 7
ENDMDL
MODEL 8
REMARK VINA RESULT:     -10.3      5.759     10.653
REMARK  Name = 11712628
REMARK  7 active torsions:
REMARK  status: ('A' for Active; 'I' for Inactive)
REMARK    1  A    between atoms: C_1  and  C_10
REMARK    2  A    between atoms: C_2  and  C_16
REMARK    3  A    between atoms: C_3  and  C_14
REMARK    4  A    between atoms: C_4  and  S_25
REMARK    5  A    between atoms: C_15  and  C_24
REMARK    6  A    between atoms: S_25  and  C_26
REMARK    7  A    between atoms: C_29  and  N_32
REMARK                            x       y       z     vdW  Elec       q    Type
REMARK                         _______ _______ _______ _____ _____    ______ ____
ROOT
ATOM      1  C   UNL     1      34.705 -20.769 -18.549  0.00  0.00    +0.076 C 
ATOM      2  C   UNL     1      35.915 -20.932 -17.893  0.00  0.00    +0.004 C 
ATOM      3  C   UNL     1      34.668 -20.076 -19.759  0.00  0.00    +0.081 C 
ATOM      4  C   UNL     1      35.844 -19.555 -20.300  0.00  0.00    +0.033 C 
ATOM      5  C   UNL     1      37.092 -20.419 -18.419  0.00  0.00    +0.000 C 
ATOM      6  C   UNL     1      37.055 -19.727 -19.630  0.00  0.00    +0.006 C 
ENDROOT
BRANCH   1  10
ATOM      7  F   UNL     1      33.545 -21.663 -16.656  0.00  0.00    -0.166 F 
ATOM      8  F   UNL     1      32.386 -20.462 -18.043  0.00  0.00    -0.166 F 
ATOM      9  F   UNL     1      33.033 -22.458 -18.614  0.00  0.00    -0.166 F 
ATOM     10  C   UNL     1      33.438 -21.326 -17.973  0.00  0.00    +0.419 C 
ENDBRANCH   1  10
BRANCH   3  14
ATOM     11  F   UNL     1      33.485 -19.465 -21.746  0.00  0.00    -0.166 F 
ATOM     12  F   UNL     1      32.633 -21.057 -20.544  0.00  0.00    -0.166 F 
ATOM     13  F   UNL     1      32.548 -19.002 -19.839  0.00  0.00    -0.166 F 
ATOM     14  C   UNL     1      33.356 -19.904 -20.462  0.00  0.00    +0.419 C 
ENDBRANCH   3  14
BRANCH   2  16
ATOM     15  C   UNL     1      37.129 -21.972 -15.995  0.00  0.00    +0.058 C 
ATOM     16  C   UNL     1      35.991 -21.658 -16.613  0.00  0.00    +0.005 C 
BRANCH  15  24
ATOM     17  O   UNL     1      40.115 -25.275 -13.533  0.00  0.00    -0.350 OA
ATOM     18  O   UNL     1      35.949 -22.727 -14.147  0.00  0.00    -0.270 OA
ATOM     19  N   UNL     1      38.187 -23.345 -14.251  0.00  0.00    -0.271 N 
ATOM     20  C   UNL     1      38.175 -23.956 -12.922  0.00  0.00    +0.126 C 
ATOM     21  C   UNL     1      39.508 -23.361 -14.893  0.00  0.00    +0.126 C 
ATOM     22  C   UNL     1      38.801 -25.344 -12.975  0.00  0.00    +0.164 C 
ATOM     23  C   UNL     1      40.081 -24.773 -14.872  0.00  0.00    +0.164 C 
ATOM     24  C   UNL     1      37.040 -22.713 -14.721  0.00  0.00    +0.249 C 
ENDBRANCH  15  24
ENDBRANCH   2  16
BRANCH   4  25
ATOM     25  S   UNL     1      35.856 -18.658 -21.848  0.00  0.00    -0.087 S 
BRANCH  25  26
ATOM     26  C   UNL     1      35.454 -17.010 -21.291  0.00  0.00    +0.031 C 
ATOM     27  C   UNL     1      35.271 -15.988 -22.220  0.00  0.00    +0.021 C 
ATOM     28  C   UNL     1      35.326 -16.750 -19.929  0.00  0.00    +0.007 C 
ATOM     29  C   UNL     1      34.958 -14.701 -21.785  0.00  0.00    +0.042 C 
ATOM     30  C   UNL     1      35.012 -15.463 -19.492  0.00  0.00    +0.002 C 
ATOM     31  C   UNL     1      34.829 -14.438 -20.421  0.00  0.00    +0.014 C 
BRANCH  29  32
ATOM     32  N   UNL     1      34.772 -13.664 -22.722  0.00  0.00    -0.357 N 
ATOM     33  H   UNL     1      34.325 -12.829 -22.450  0.00  0.00    +0.142 HD
ATOM     34  H   UNL     1      35.088 -13.773 -23.648  0.00  0.00    +0.142 HD
ENDBRANCH  29  32
ENDBRANCH  25  26
ENDBRANCH   4  25
TORSDOF 7
ENDMDL
MODEL 9
REMARK VINA RESULT:     -10.3      5.095      9.929
REMARK  Name = 11712628
REMARK  7 active torsions:
REMARK  status: ('A' for Active; 'I' for Inactive)
REMARK    1  A    between atoms: C_1  and  C_10
REMARK    2  A    between atoms: C_2  and  C_16
REMARK    3  A    between atoms: C_3  and  C_14
REMARK    4  A    between atoms: C_4  and  S_25
REMARK    5  A    between atoms: C_15  and  C_24
REMARK    6  A    between atoms: S_25  and  C_26
REMARK    7  A    between atoms: C_29  and  N_32
REMARK                            x       y       z     vdW  Elec       q    Type
REMARK                         _______ _______ _______ _____ _____    ______ ____
ROOT
ATOM      1  C   UNL     1      35.099 -20.436 -19.196  0.00  0.00    +0.076 C 
ATOM      2  C   UNL     1      36.427 -20.518 -18.808  0.00  0.00    +0.004 C 
ATOM      3  C   UNL     1      34.749 -19.628 -20.278  0.00  0.00    +0.081 C 
ATOM      4  C   UNL     1      35.732 -18.912 -20.960  0.00  0.00    +0.033 C 
ATOM      5  C   UNL     1      37.415 -19.811 -19.477  0.00  0.00    +0.000 C 
ATOM      6  C   UNL     1      37.066 -19.004 -20.560  0.00  0.00    +0.006 C 
ENDROOT
BRANCH   1  10
ATOM      7  F   UNL     1      34.417 -21.599 -17.219  0.00  0.00    -0.166 F 
ATOM      8  F   UNL     1      32.885 -20.496 -18.290  0.00  0.00    -0.166 F 
ATOM      9  F   UNL     1      33.678 -22.341 -19.124  0.00  0.00    -0.166 F 
ATOM     10  C   UNL     1      34.038 -21.203 -18.467  0.00  0.00    +0.419 C 
ENDBRANCH   1  10
BRANCH   3  14
ATOM     11  F   UNL     1      33.143 -19.155 -21.986  0.00  0.00    -0.166 F 
ATOM     12  F   UNL     1      32.649 -20.731 -20.581  0.00  0.00    -0.166 F 
ATOM     13  F   UNL     1      32.606 -18.655 -19.940  0.00  0.00    -0.166 F 
ATOM     14  C   UNL     1      33.311 -19.545 -20.691  0.00  0.00    +0.419 C 
ENDBRANCH   3  14
BRANCH   2  16
ATOM     15  C   UNL     1      36.962 -20.921 -16.418  0.00  0.00    +0.058 C 
ATOM     16  C   UNL     1      36.833 -21.361 -17.670  0.00  0.00    +0.005 C 
BRANCH  15  24
ATOM     17  O   UNL     1      34.577 -23.720 -12.903  0.00  0.00    -0.350 OA
ATOM     18  O   UNL     1      38.593 -21.960 -15.138  0.00  0.00    -0.270 OA
ATOM     19  N   UNL     1      36.407 -22.656 -14.768  0.00  0.00    -0.271 N 
ATOM     20  C   UNL     1      36.805 -23.729 -13.856  0.00  0.00    +0.126 C 
ATOM     21  C   UNL     1      34.961 -22.612 -15.026  0.00  0.00    +0.126 C 
ATOM     22  C   UNL     1      35.969 -23.676 -12.584  0.00  0.00    +0.164 C 
ATOM     23  C   UNL     1      34.196 -22.600 -13.707  0.00  0.00    +0.164 C 
ATOM     24  C   UNL     1      37.388 -21.888 -15.388  0.00  0.00    +0.249 C 
ENDBRANCH  15  24
ENDBRANCH   2  16
BRANCH   4  25
ATOM     25  S   UNL     1      35.341 -17.861 -22.354  0.00  0.00    -0.087 S 
BRANCH  25  26
ATOM     26  C   UNL     1      35.141 -16.282 -21.546  0.00  0.00    +0.031 C 
ATOM     27  C   UNL     1      35.008 -15.123 -22.308  0.00  0.00    +0.021 C 
ATOM     28  C   UNL     1      35.119 -16.213 -20.155  0.00  0.00    +0.007 C 
ATOM     29  C   UNL     1      34.851 -13.890 -21.675  0.00  0.00    +0.042 C 
ATOM     30  C   UNL     1      34.963 -14.980 -19.521  0.00  0.00    +0.002 C 
ATOM     31  C   UNL     1      34.829 -13.818 -20.282  0.00  0.00    +0.014 C 
BRANCH  29  32
ATOM     32  N   UNL     1      34.716 -12.715 -22.443  0.00  0.00    -0.357 N 
ATOM     33  H   UNL     1      33.857 -12.508 -22.878  0.00  0.00    +0.142 HD
ATOM     34  H   UNL     1      35.479 -12.101 -22.544  0.00  0.00    +0.142 HD
ENDBRANCH  29  32
ENDBRANCH  25  26
ENDBRANCH   4  25
TORSDOF 7
ENDMDL
