MODEL 1
REMARK VINA RESULT:     -11.3      0.000      0.000
REMARK  Name = 127737
REMARK  3 active torsions:
REMARK  status: ('A' for Active; 'I' for Inactive)
REMARK    1  A    between atoms: N_2  and  S_15
REMARK    2  A    between atoms: N_3  and  C_9
REMARK    3  A    between atoms: S_15  and  C_23
REMARK                            x       y       z     vdW  Elec       q    Type
REMARK                         _______ _______ _______ _____ _____    ______ ____
ROOT
ATOM      1  O   UNL     1      33.149 -19.712 -20.481  0.00  0.00    -0.251 OA
ATOM      2  N   UNL     1      34.997 -20.588 -19.377  0.00  0.00    -0.169 N 
ATOM      3  N   UNL     1      35.293 -18.963 -21.021  0.00  0.00    -0.267 N 
ATOM      4  C   UNL     1      34.365 -19.726 -20.334  0.00  0.00    +0.323 C 
ATOM      5  H   UNL     1      35.974 -20.512 -19.276  0.00  0.00    +0.178 HD
ATOM      6  H   UNL     1      36.236 -19.104 -20.773  0.00  0.00    +0.156 HD
ENDROOT
BRANCH   3   9
ATOM      7 CL   UNL     1      35.137 -14.045 -22.337  0.00  0.00    -0.081 Cl
ATOM      8 CL   UNL     1      34.284 -15.013 -25.304  0.00  0.00    -0.081 Cl
ATOM      9  C   UNL     1      35.055 -18.007 -22.036  0.00  0.00    +0.053 C 
ATOM     10  C   UNL     1      35.192 -16.660 -21.743  0.00  0.00    +0.027 C 
ATOM     11  C   UNL     1      34.690 -18.437 -23.301  0.00  0.00    +0.016 C 
ATOM     12  C   UNL     1      34.957 -15.716 -22.743  0.00  0.00    +0.069 C 
ATOM     13  C   UNL     1      34.455 -17.493 -24.301  0.00  0.00    +0.014 C 
ATOM     14  C   UNL     1      34.588 -16.133 -24.023  0.00  0.00    +0.068 C 
ENDBRANCH   3   9
BRANCH   2  15
ATOM     15  S   UNL     1      34.189 -21.737 -18.397  0.00  0.00    +0.077 S 
ATOM     16  O   UNL     1      34.162 -23.015 -19.095  0.00  0.00    -0.150 OA
ATOM     17  O   UNL     1      32.944 -21.153 -17.919  0.00  0.00    -0.150 OA
BRANCH  15  23
ATOM     18  O   UNL     1      37.736 -22.185 -13.746  0.00  0.00    -0.475 OA
ATOM     19  C   UNL     1      35.729 -22.589 -14.807  0.00  0.00    +0.017 C 
ATOM     20  C   UNL     1      35.529 -23.151 -13.453  0.00  0.00    +0.077 C 
ATOM     21  C   UNL     1      36.997 -22.033 -14.891  0.00  0.00    +0.135 C 
ATOM     22  C   UNL     1      36.983 -23.153 -12.977  0.00  0.00    +0.210 C 
ATOM     23  C   UNL     1      35.271 -21.862 -17.031  0.00  0.00    +0.125 C 
ATOM     24  C   UNL     1      34.846 -22.509 -15.868  0.00  0.00    +0.019 C 
ATOM     25  C   UNL     1      37.434 -21.378 -16.026  0.00  0.00    +0.038 C 
ATOM     26  C   UNL     1      36.556 -21.299 -17.109  0.00  0.00    +0.023 C 
ENDBRANCH  15  23
ENDBRANCH   2  15
TORSDOF 3
ENDMDL
MODEL 2
REMARK VINA RESULT:     -11.2      1.252      1.899
REMARK  Name = 127737
REMARK  3 active torsions:
REMARK  status: ('A' for Active; 'I' for Inactive)
REMARK    1  A    between atoms: N_2  and  S_15
REMARK    2  A    between atoms: N_3  and  C_9
REMARK    3  A    between atoms: S_15  and  C_23
REMARK                            x       y       z     vdW  Elec       q    Type
REMARK                         _______ _______ _______ _____ _____    ______ ____
ROOT
ATOM      1  O   UNL     1      33.083 -20.171 -19.851  0.00  0.00    -0.251 OA
ATOM      2  N   UNL     1      34.726 -21.057 -18.466  0.00  0.00    -0.169 N 
ATOM      3  N   UNL     1      35.274 -19.375 -19.982  0.00  0.00    -0.267 N 
ATOM      4  C   UNL     1      34.255 -20.173 -19.493  0.00  0.00    +0.323 C 
ATOM      5  H   UNL     1      35.668 -20.971 -18.193  0.00  0.00    +0.178 HD
ATOM      6  H   UNL     1      36.161 -19.511 -19.577  0.00  0.00    +0.156 HD
ENDROOT
BRANCH   3   9
ATOM      7 CL   UNL     1      34.091 -18.252 -24.807  0.00  0.00    -0.081 Cl
ATOM      8 CL   UNL     1      34.984 -15.208 -24.169  0.00  0.00    -0.081 Cl
ATOM      9  C   UNL     1      35.199 -18.389 -20.994  0.00  0.00    +0.053 C 
ATOM     10  C   UNL     1      34.741 -18.742 -22.252  0.00  0.00    +0.027 C 
ATOM     11  C   UNL     1      35.586 -17.090 -20.705  0.00  0.00    +0.016 C 
ATOM     12  C   UNL     1      34.667 -17.769 -23.250  0.00  0.00    +0.069 C 
ATOM     13  C   UNL     1      35.512 -16.118 -21.703  0.00  0.00    +0.014 C 
ATOM     14  C   UNL     1      35.052 -16.457 -22.975  0.00  0.00    +0.068 C 
ENDBRANCH   3   9
BRANCH   2  15
ATOM     15  S   UNL     1      33.781 -22.250 -17.679  0.00  0.00    +0.077 S 
ATOM     16  O   UNL     1      33.883 -23.498 -18.423  0.00  0.00    -0.150 OA
ATOM     17  O   UNL     1      32.469 -21.691 -17.388  0.00  0.00    -0.150 OA
BRANCH  15  23
ATOM     18  O   UNL     1      36.522 -22.861 -12.528  0.00  0.00    -0.475 OA
ATOM     19  C   UNL     1      34.668 -23.110 -13.876  0.00  0.00    +0.017 C 
ATOM     20  C   UNL     1      34.211 -23.600 -12.557  0.00  0.00    +0.077 C 
ATOM     21  C   UNL     1      35.983 -22.681 -13.777  0.00  0.00    +0.135 C 
ATOM     22  C   UNL     1      35.569 -23.723 -11.863  0.00  0.00    +0.210 C 
ATOM     23  C   UNL     1      34.627 -22.426 -16.160  0.00  0.00    +0.125 C 
ATOM     24  C   UNL     1      33.969 -22.986 -15.062  0.00  0.00    +0.019 C 
ATOM     25  C   UNL     1      36.650 -22.114 -14.845  0.00  0.00    +0.038 C 
ATOM     26  C   UNL     1      35.958 -21.992 -16.052  0.00  0.00    +0.023 C 
ENDBRANCH  15  23
ENDBRANCH   2  15
TORSDOF 3
ENDMDL
MODEL 3
REMARK VINA RESULT:     -11.1      3.697      5.182
REMARK  Name = 127737
REMARK  3 active torsions:
REMARK  status: ('A' for Active; 'I' for Inactive)
REMARK    1  A    between atoms: N_2  and  S_15
REMARK    2  A    between atoms: N_3  and  C_9
REMARK    3  A    between atoms: S_15  and  C_23
REMARK                            x       y       z     vdW  Elec       q    Type
REMARK                         _______ _______ _______ _____ _____    ______ ____
ROOT
ATOM      1  O   UNL     1      34.823 -15.599 -22.793  0.00  0.00    -0.251 OA
ATOM      2  N   UNL     1      35.491 -16.656 -20.834  0.00  0.00    -0.169 N 
ATOM      3  N   UNL     1      34.508 -14.545 -20.734  0.00  0.00    -0.267 N 
ATOM      4  C   UNL     1      34.915 -15.568 -21.572  0.00  0.00    +0.323 C 
ATOM      5  H   UNL     1      35.488 -16.587 -19.851  0.00  0.00    +0.178 HD
ATOM      6  H   UNL     1      34.660 -14.689 -19.772  0.00  0.00    +0.156 HD
ENDROOT
BRANCH   3   9
ATOM      7 CL   UNL     1      30.946 -11.056 -19.698  0.00  0.00    -0.081 Cl
ATOM      8 CL   UNL     1      32.015  -9.407 -22.268  0.00  0.00    -0.081 Cl
ATOM      9  C   UNL     1      33.902 -13.317 -21.089  0.00  0.00    +0.053 C 
ATOM     10  C   UNL     1      32.852 -12.834 -20.325  0.00  0.00    +0.027 C 
ATOM     11  C   UNL     1      34.371 -12.624 -22.192  0.00  0.00    +0.016 C 
ATOM     12  C   UNL     1      32.254 -11.623 -20.675  0.00  0.00    +0.069 C 
ATOM     13  C   UNL     1      33.773 -11.413 -22.542  0.00  0.00    +0.014 C 
ATOM     14  C   UNL     1      32.715 -10.912 -21.784  0.00  0.00    +0.068 C 
ENDBRANCH   3   9
BRANCH   2  15
ATOM     15  S   UNL     1      36.182 -18.063 -21.525  0.00  0.00    +0.077 S 
ATOM     16  O   UNL     1      37.622 -17.872 -21.638  0.00  0.00    -0.150 OA
ATOM     17  O   UNL     1      35.411 -18.434 -22.702  0.00  0.00    -0.150 OA
BRANCH  15  23
ATOM     18  O   UNL     1      35.011 -22.042 -17.375  0.00  0.00    -0.475 OA
ATOM     19  C   UNL     1      34.335 -20.569 -19.017  0.00  0.00    +0.017 C 
ATOM     20  C   UNL     1      33.064 -21.091 -18.468  0.00  0.00    +0.077 C 
ATOM     21  C   UNL     1      35.398 -21.134 -18.328  0.00  0.00    +0.135 C 
ATOM     22  C   UNL     1      33.614 -22.276 -17.672  0.00  0.00    +0.210 C 
ATOM     23  C   UNL     1      35.866 -19.257 -20.289  0.00  0.00    +0.125 C 
ATOM     24  C   UNL     1      34.548 -19.622 -20.000  0.00  0.00    +0.019 C 
ATOM     25  C   UNL     1      36.708 -20.780 -18.588  0.00  0.00    +0.038 C 
ATOM     26  C   UNL     1      36.938 -19.831 -19.586  0.00  0.00    +0.023 C 
ENDBRANCH  15  23
ENDBRANCH   2  15
TORSDOF 3
ENDMDL
MODEL 4
REMARK VINA RESULT:     -11.0      3.580      5.102
REMARK  Name = 127737
REMARK  3 active torsions:
REMARK  status: ('A' for Active; 'I' for Inactive)
REMARK    1  A    between atoms: N_2  and  S_15
REMARK    2  A    between atoms: N_3  and  C_9
REMARK    3  A    between atoms: S_15  and  C_23
REMARK                            x       y       z     vdW  Elec       q    Type
REMARK                         _______ _______ _______ _____ _____    ______ ____
ROOT
ATOM      1  O   UNL     1      34.932 -15.607 -22.725  0.00  0.00    -0.251 OA
ATOM      2  N   UNL     1      35.519 -16.685 -20.752  0.00  0.00    -0.169 N 
ATOM      3  N   UNL     1      34.516 -14.583 -20.669  0.00  0.00    -0.267 N 
ATOM      4  C   UNL     1      34.968 -15.592 -21.501  0.00  0.00    +0.323 C 
ATOM      5  H   UNL     1      35.471 -16.629 -19.770  0.00  0.00    +0.178 HD
ATOM      6  H   UNL     1      34.625 -14.739 -19.703  0.00  0.00    +0.156 HD
ENDROOT
BRANCH   3   9
ATOM      7 CL   UNL     1      34.425 -10.641 -23.893  0.00  0.00    -0.081 Cl
ATOM      8 CL   UNL     1      31.973  -9.454 -22.149  0.00  0.00    -0.081 Cl
ATOM      9  C   UNL     1      33.917 -13.355 -21.035  0.00  0.00    +0.053 C 
ATOM     10  C   UNL     1      34.393 -12.673 -22.143  0.00  0.00    +0.027 C 
ATOM     11  C   UNL     1      32.869 -12.860 -20.278  0.00  0.00    +0.016 C 
ATOM     12  C   UNL     1      33.802 -11.461 -22.505  0.00  0.00    +0.069 C 
ATOM     13  C   UNL     1      32.279 -11.648 -20.639  0.00  0.00    +0.014 C 
ATOM     14  C   UNL     1      32.745 -10.949 -21.752  0.00  0.00    +0.068 C 
ENDBRANCH   3   9
BRANCH   2  15
ATOM     15  S   UNL     1      36.252 -18.078 -21.429  0.00  0.00    +0.077 S 
ATOM     16  O   UNL     1      37.691 -17.864 -21.500  0.00  0.00    -0.150 OA
ATOM     17  O   UNL     1      35.520 -18.455 -22.629  0.00  0.00    -0.150 OA
BRANCH  15  23
ATOM     18  O   UNL     1      35.025 -22.095 -17.333  0.00  0.00    -0.475 OA
ATOM     19  C   UNL     1      34.373 -20.625 -18.986  0.00  0.00    +0.017 C 
ATOM     20  C   UNL     1      33.095 -21.169 -18.476  0.00  0.00    +0.077 C 
ATOM     21  C   UNL     1      35.425 -21.177 -18.270  0.00  0.00    +0.135 C 
ATOM     22  C   UNL     1      33.641 -22.349 -17.670  0.00  0.00    +0.210 C 
ATOM     23  C   UNL     1      35.919 -19.282 -20.208  0.00  0.00    +0.125 C 
ATOM     24  C   UNL     1      34.600 -19.669 -19.959  0.00  0.00    +0.019 C 
ATOM     25  C   UNL     1      36.736 -20.801 -18.491  0.00  0.00    +0.038 C 
ATOM     26  C   UNL     1      36.980 -19.844 -19.478  0.00  0.00    +0.023 C 
ENDBRANCH  15  23
ENDBRANCH   2  15
TORSDOF 3
ENDMDL
MODEL 5
REMARK VINA RESULT:     -10.1      4.865      9.390
REMARK  Name = 127737
REMARK  3 active torsions:
REMARK  status: ('A' for Active; 'I' for Inactive)
REMARK    1  A    between atoms: N_2  and  S_15
REMARK    2  A    between atoms: N_3  and  C_9
REMARK    3  A    between atoms: S_15  and  C_23
REMARK                            x       y       z     vdW  Elec       q    Type
REMARK                         _______ _______ _______ _____ _____    ______ ____
ROOT
ATOM      1  O   UNL     1      34.485 -23.329 -16.594  0.00  0.00    -0.251 OA
ATOM      2  N   UNL     1      35.183 -21.311 -17.513  0.00  0.00    -0.169 N 
ATOM      3  N   UNL     1      36.217 -22.128 -15.591  0.00  0.00    -0.267 N 
ATOM      4  C   UNL     1      35.239 -22.364 -16.540  0.00  0.00    +0.323 C 
ATOM      5  H   UNL     1      35.851 -20.591 -17.438  0.00  0.00    +0.178 HD
ATOM      6  H   UNL     1      36.733 -21.296 -15.701  0.00  0.00    +0.156 HD
ENDROOT
BRANCH   3   9
ATOM      7 CL   UNL     1      39.772 -24.956 -13.287  0.00  0.00    -0.081 Cl
ATOM      8 CL   UNL     1      37.621 -25.483 -10.928  0.00  0.00    -0.081 Cl
ATOM      9  C   UNL     1      36.567 -22.932 -14.481  0.00  0.00    +0.053 C 
ATOM     10  C   UNL     1      37.835 -23.488 -14.420  0.00  0.00    +0.027 C 
ATOM     11  C   UNL     1      35.635 -23.149 -13.480  0.00  0.00    +0.016 C 
ATOM     12  C   UNL     1      38.181 -24.282 -13.326  0.00  0.00    +0.069 C 
ATOM     13  C   UNL     1      35.981 -23.943 -12.386  0.00  0.00    +0.014 C 
ATOM     14  C   UNL     1      37.253 -24.509 -12.309  0.00  0.00    +0.068 C 
ENDBRANCH   3   9
BRANCH   2  15
ATOM     15  S   UNL     1      34.050 -21.206 -18.793  0.00  0.00    +0.077 S 
ATOM     16  O   UNL     1      32.809 -20.644 -18.278  0.00  0.00    -0.150 OA
ATOM     17  O   UNL     1      34.024 -22.478 -19.501  0.00  0.00    -0.150 OA
BRANCH  15  23
ATOM     18  O   UNL     1      36.521 -17.292 -22.398  0.00  0.00    -0.475 OA
ATOM     19  C   UNL     1      34.763 -18.655 -21.787  0.00  0.00    +0.017 C 
ATOM     20  C   UNL     1      34.317 -18.059 -23.066  0.00  0.00    +0.077 C 
ATOM     21  C   UNL     1      36.036 -18.194 -21.484  0.00  0.00    +0.135 C 
ATOM     22  C   UNL     1      35.359 -16.945 -23.188  0.00  0.00    +0.210 C 
ATOM     23  C   UNL     1      34.809 -20.034 -19.843  0.00  0.00    +0.125 C 
ATOM     24  C   UNL     1      34.133 -19.582 -20.979  0.00  0.00    +0.019 C 
ATOM     25  C   UNL     1      36.727 -18.635 -20.374  0.00  0.00    +0.038 C 
ATOM     26  C   UNL     1      36.098 -19.564 -19.543  0.00  0.00    +0.023 C 
ENDBRANCH  15  23
ENDBRANCH   2  15
TORSDOF 3
ENDMDL
MODEL 6
REMARK VINA RESULT:      -9.7      7.814     11.959
REMARK  Name = 127737
REMARK  3 active torsions:
REMARK  status: ('A' for Active; 'I' for Inactive)
REMARK    1  A    between atoms: N_2  and  S_15
REMARK    2  A    between atoms: N_3  and  C_9
REMARK    3  A    between atoms: S_15  and  C_23
REMARK                            x       y       z     vdW  Elec       q    Type
REMARK                         _______ _______ _______ _____ _____    ______ ____
ROOT
ATOM      1  O   UNL     1      31.936 -13.318 -20.191  0.00  0.00    -0.251 OA
ATOM      2  N   UNL     1      32.897 -11.213 -19.976  0.00  0.00    -0.169 N 
ATOM      3  N   UNL     1      34.176 -12.996 -20.762  0.00  0.00    -0.267 N 
ATOM      4  C   UNL     1      32.927 -12.608 -20.311  0.00  0.00    +0.323 C 
ATOM      5  H   UNL     1      33.715 -10.691 -20.145  0.00  0.00    +0.178 HD
ATOM      6  H   UNL     1      34.861 -12.289 -20.795  0.00  0.00    +0.156 HD
ENDROOT
BRANCH   3   9
ATOM      7 CL   UNL     1      34.960 -16.206 -24.637  0.00  0.00    -0.081 Cl
ATOM      8 CL   UNL     1      35.921 -18.388 -22.450  0.00  0.00    -0.081 Cl
ATOM      9  C   UNL     1      34.591 -14.282 -21.181  0.00  0.00    +0.053 C 
ATOM     10  C   UNL     1      34.580 -14.591 -22.531  0.00  0.00    +0.027 C 
ATOM     11  C   UNL     1      34.999 -15.205 -20.232  0.00  0.00    +0.016 C 
ATOM     12  C   UNL     1      34.989 -15.860 -22.944  0.00  0.00    +0.069 C 
ATOM     13  C   UNL     1      35.408 -16.473 -20.645  0.00  0.00    +0.014 C 
ATOM     14  C   UNL     1      35.403 -16.801 -22.001  0.00  0.00    +0.068 C 
ENDBRANCH   3   9
BRANCH   2  15
ATOM     15  S   UNL     1      31.555 -10.386 -19.308  0.00  0.00    +0.077 S 
ATOM     16  O   UNL     1      31.631 -10.461 -17.855  0.00  0.00    -0.150 OA
ATOM     17  O   UNL     1      30.346 -10.827 -19.988  0.00  0.00    -0.150 OA
BRANCH  15  23
ATOM     18  O   UNL     1      32.618  -4.896 -21.085  0.00  0.00    -0.475 OA
ATOM     19  C   UNL     1      32.047  -7.089 -21.516  0.00  0.00    +0.017 C 
ATOM     20  C   UNL     1      32.099  -6.470 -22.859  0.00  0.00    +0.077 C 
ATOM     21  C   UNL     1      32.380  -6.141 -20.560  0.00  0.00    +0.135 C 
ATOM     22  C   UNL     1      32.128  -4.998 -22.443  0.00  0.00    +0.210 C 
ATOM     23  C   UNL     1      31.869  -8.740 -19.806  0.00  0.00    +0.125 C 
ATOM     24  C   UNL     1      31.792  -8.400 -21.158  0.00  0.00    +0.019 C 
ATOM     25  C   UNL     1      32.473  -6.458 -19.219  0.00  0.00    +0.038 C 
ATOM     26  C   UNL     1      32.208  -7.776 -18.842  0.00  0.00    +0.023 C 
ENDBRANCH  15  23
ENDBRANCH   2  15
TORSDOF 3
ENDMDL
MODEL 7
REMARK VINA RESULT:      -9.6      3.579      4.808
REMARK  Name = 127737
REMARK  3 active torsions:
REMARK  status: ('A' for Active; 'I' for Inactive)
REMARK    1  A    between atoms: N_2  and  S_15
REMARK    2  A    between atoms: N_3  and  C_9
REMARK    3  A    between atoms: S_15  and  C_23
REMARK                            x       y       z     vdW  Elec       q    Type
REMARK                         _______ _______ _______ _____ _____    ______ ____
ROOT
ATOM      1  O   UNL     1      34.355 -21.756 -15.497  0.00  0.00    -0.251 OA
ATOM      2  N   UNL     1      32.640 -23.323 -15.425  0.00  0.00    -0.169 N 
ATOM      3  N   UNL     1      33.101 -22.202 -17.415  0.00  0.00    -0.267 N 
ATOM      4  C   UNL     1      33.461 -22.351 -16.087  0.00  0.00    +0.323 C 
ATOM      5  H   UNL     1      31.973 -23.799 -15.972  0.00  0.00    +0.178 HD
ATOM      6  H   UNL     1      32.355 -22.764 -17.725  0.00  0.00    +0.156 HD
ENDROOT
BRANCH   3   9
ATOM      7 CL   UNL     1      37.334 -20.499 -19.679  0.00  0.00    -0.081 Cl
ATOM      8 CL   UNL     1      35.436 -18.586 -21.470  0.00  0.00    -0.081 Cl
ATOM      9  C   UNL     1      33.674 -21.342 -18.382  0.00  0.00    +0.053 C 
ATOM     10  C   UNL     1      35.049 -21.331 -18.549  0.00  0.00    +0.027 C 
ATOM     11  C   UNL     1      32.848 -20.529 -19.140  0.00  0.00    +0.016 C 
ATOM     12  C   UNL     1      35.614 -20.483 -19.502  0.00  0.00    +0.069 C 
ATOM     13  C   UNL     1      33.413 -19.681 -20.093  0.00  0.00    +0.014 C 
ATOM     14  C   UNL     1      34.796 -19.658 -20.274  0.00  0.00    +0.068 C 
ENDBRANCH   3   9
BRANCH   2  15
ATOM     15  S   UNL     1      32.726 -23.721 -13.761  0.00  0.00    +0.077 S 
ATOM     16  O   UNL     1      32.091 -25.016 -13.554  0.00  0.00    -0.150 OA
ATOM     17  O   UNL     1      32.289 -22.573 -12.981  0.00  0.00    -0.150 OA
BRANCH  15  23
ATOM     18  O   UNL     1      38.510 -24.210 -12.904  0.00  0.00    -0.475 OA
ATOM     19  C   UNL     1      36.438 -23.385 -12.314  0.00  0.00    +0.017 C 
ATOM     20  C   UNL     1      37.356 -22.760 -11.337  0.00  0.00    +0.077 C 
ATOM     21  C   UNL     1      37.168 -24.175 -13.190  0.00  0.00    +0.135 C 
ATOM     22  C   UNL     1      38.595 -23.623 -11.584  0.00  0.00    +0.210 C 
ATOM     23  C   UNL     1      34.449 -23.893 -13.527  0.00  0.00    +0.125 C 
ATOM     24  C   UNL     1      35.074 -23.227 -12.469  0.00  0.00    +0.019 C 
ATOM     25  C   UNL     1      36.574 -24.833 -14.249  0.00  0.00    +0.038 C 
ATOM     26  C   UNL     1      35.195 -24.690 -14.412  0.00  0.00    +0.023 C 
ENDBRANCH  15  23
ENDBRANCH   2  15
TORSDOF 3
ENDMDL
MODEL 8
REMARK VINA RESULT:      -9.5      7.865     12.001
REMARK  Name = 127737
REMARK  3 active torsions:
REMARK  status: ('A' for Active; 'I' for Inactive)
REMARK    1  A    between atoms: N_2  and  S_15
REMARK    2  A    between atoms: N_3  and  C_9
REMARK    3  A    between atoms: S_15  and  C_23
REMARK                            x       y       z     vdW  Elec       q    Type
REMARK                         _______ _______ _______ _____ _____    ______ ____
ROOT
ATOM      1  O   UNL     1      32.073 -13.349 -20.366  0.00  0.00    -0.251 OA
ATOM      2  N   UNL     1      32.837 -11.167 -20.605  0.00  0.00    -0.169 N 
ATOM      3  N   UNL     1      34.032 -12.924 -21.562  0.00  0.00    -0.267 N 
ATOM      4  C   UNL     1      32.917 -12.584 -20.816  0.00  0.00    +0.323 C 
ATOM      5  H   UNL     1      33.522 -10.606 -21.037  0.00  0.00    +0.178 HD
ATOM      6  H   UNL     1      34.607 -12.176 -21.843  0.00  0.00    +0.156 HD
ENDROOT
BRANCH   3   9
ATOM      7 CL   UNL     1      35.995 -17.428 -20.221  0.00  0.00    -0.081 Cl
ATOM      8 CL   UNL     1      35.754 -18.298 -23.328  0.00  0.00    -0.081 Cl
ATOM      9  C   UNL     1      34.448 -14.213 -21.970  0.00  0.00    +0.053 C 
ATOM     10  C   UNL     1      34.956 -15.091 -21.027  0.00  0.00    +0.027 C 
ATOM     11  C   UNL     1      34.339 -14.570 -23.304  0.00  0.00    +0.016 C 
ATOM     12  C   UNL     1      35.366 -16.363 -21.428  0.00  0.00    +0.069 C 
ATOM     13  C   UNL     1      34.749 -15.842 -23.705  0.00  0.00    +0.014 C 
ATOM     14  C   UNL     1      35.262 -16.738 -22.768  0.00  0.00    +0.068 C 
ENDBRANCH   3   9
BRANCH   2  15
ATOM     15  S   UNL     1      31.647 -10.375 -19.661  0.00  0.00    +0.077 S 
ATOM     16  O   UNL     1      31.947 -10.585 -18.251  0.00  0.00    -0.150 OA
ATOM     17  O   UNL     1      30.331 -10.724 -20.176  0.00  0.00    -0.150 OA
BRANCH  15  23
ATOM     18  O   UNL     1      32.632  -4.773 -21.099  0.00  0.00    -0.475 OA
ATOM     19  C   UNL     1      32.027  -6.928 -21.652  0.00  0.00    +0.017 C 
ATOM     20  C   UNL     1      32.004  -6.214 -22.948  0.00  0.00    +0.077 C 
ATOM     21  C   UNL     1      32.419  -6.052 -20.651  0.00  0.00    +0.135 C 
ATOM     22  C   UNL     1      32.064  -4.776 -22.430  0.00  0.00    +0.210 C 
ATOM     23  C   UNL     1      31.940  -8.698 -20.057  0.00  0.00    +0.125 C 
ATOM     24  C   UNL     1      31.787  -8.261 -21.375  0.00  0.00    +0.019 C 
ATOM     25  C   UNL     1      32.587  -6.464 -19.344  0.00  0.00    +0.038 C 
ATOM     26  C   UNL     1      32.339  -7.805 -19.048  0.00  0.00    +0.023 C 
ENDBRANCH  15  23
ENDBRANCH   2  15
TORSDOF 3
ENDMDL
MODEL 9
REMARK VINA RESULT:      -9.5      7.419     10.073
REMARK  Name = 127737
REMARK  3 active torsions:
REMARK  status: ('A' for Active; 'I' for Inactive)
REMARK    1  A    between atoms: N_2  and  S_15
REMARK    2  A    between atoms: N_3  and  C_9
REMARK    3  A    between atoms: S_15  and  C_23
REMARK                            x       y       z     vdW  Elec       q    Type
REMARK                         _______ _______ _______ _____ _____    ______ ____
ROOT
ATOM      1  O   UNL     1      33.278  -9.802 -23.576  0.00  0.00    -0.251 OA
ATOM      2  N   UNL     1      33.170 -11.713 -22.258  0.00  0.00    -0.169 N 
ATOM      3  N   UNL     1      32.498  -9.663 -21.380  0.00  0.00    -0.267 N 
ATOM      4  C   UNL     1      32.998 -10.309 -22.497  0.00  0.00    +0.323 C 
ATOM      5  H   UNL     1      32.879 -12.063 -21.385  0.00  0.00    +0.178 HD
ATOM      6  H   UNL     1      32.330 -10.229 -20.593  0.00  0.00    +0.156 HD
ENDROOT
BRANCH   3   9
ATOM      7 CL   UNL     1      32.598  -5.548 -18.380  0.00  0.00    -0.081 Cl
ATOM      8 CL   UNL     1      31.227  -3.915 -20.814  0.00  0.00    -0.081 Cl
ATOM      9  C   UNL     1      32.200  -8.288 -21.230  0.00  0.00    +0.053 C 
ATOM     10  C   UNL     1      32.501  -7.655 -20.035  0.00  0.00    +0.027 C 
ATOM     11  C   UNL     1      31.613  -7.603 -22.281  0.00  0.00    +0.016 C 
ATOM     12  C   UNL     1      32.207  -6.299 -19.887  0.00  0.00    +0.069 C 
ATOM     13  C   UNL     1      31.319  -6.247 -22.133  0.00  0.00    +0.014 C 
ATOM     14  C   UNL     1      31.616  -5.595 -20.936  0.00  0.00    +0.068 C 
ENDBRANCH   3   9
BRANCH   2  15
ATOM     15  S   UNL     1      33.842 -12.829 -23.371  0.00  0.00    +0.077 S 
ATOM     16  O   UNL     1      34.976 -12.204 -24.038  0.00  0.00    -0.150 OA
ATOM     17  O   UNL     1      32.767 -13.404 -24.166  0.00  0.00    -0.150 OA
BRANCH  15  23
ATOM     18  O   UNL     1      35.830 -17.101 -19.875  0.00  0.00    -0.475 OA
ATOM     19  C   UNL     1      35.408 -16.231 -21.968  0.00  0.00    +0.017 C 
ATOM     20  C   UNL     1      35.937 -17.583 -22.251  0.00  0.00    +0.077 C 
ATOM     21  C   UNL     1      35.350 -16.037 -20.596  0.00  0.00    +0.135 C 
ATOM     22  C   UNL     1      36.498 -17.916 -20.867  0.00  0.00    +0.210 C 
ATOM     23  C   UNL     1      34.434 -14.080 -22.304  0.00  0.00    +0.125 C 
ATOM     24  C   UNL     1      34.948 -15.263 -22.842  0.00  0.00    +0.019 C 
ATOM     25  C   UNL     1      34.836 -14.882 -20.042  0.00  0.00    +0.038 C 
ATOM     26  C   UNL     1      34.377 -13.892 -20.913  0.00  0.00    +0.023 C 
ENDBRANCH  15  23
ENDBRANCH   2  15
TORSDOF 3
ENDMDL
