MODEL 1
REMARK VINA RESULT:     -13.6      0.000      0.000
REMARK  Name = 10138993
REMARK  4 active torsions:
REMARK  status: ('A' for Active; 'I' for Inactive)
REMARK    1  A    between atoms: C_5  and  N_18
REMARK    2  A    between atoms: C_12  and  C_22
REMARK    3  A    between atoms: C_22  and  C_26
REMARK    4  A    between atoms: C_23  and  N_29
REMARK                            x       y       z     vdW  Elec       q    Type
REMARK                         _______ _______ _______ _____ _____    ______ ____
ROOT
ATOM      1  O   UNL     1      33.492 -20.519 -19.952  0.00  0.00    -0.274 OA
ATOM      2  N   UNL     1      32.411 -22.604 -16.465  0.00  0.00    -0.275 N 
ATOM      3  N   UNL     1      34.964 -21.113 -18.220  0.00  0.00    -0.268 N 
ATOM      4  N   UNL     1      32.829 -21.936 -17.553  0.00  0.00    -0.157 NA
ATOM      5  C   UNL     1      35.765 -23.086 -14.160  0.00  0.00    +0.069 C 
ATOM      6  C   UNL     1      35.766 -22.430 -15.398  0.00  0.00    +0.020 C 
ATOM      7  C   UNL     1      34.588 -23.623 -13.633  0.00  0.00    +0.018 C 
ATOM      8  C   UNL     1      34.556 -22.323 -16.103  0.00  0.00    +0.052 A 
ATOM      9  C   UNL     1      33.399 -22.868 -15.555  0.00  0.00    +0.077 A 
ATOM     10  C   UNL     1      33.376 -23.526 -14.323  0.00  0.00    +0.020 C 
ATOM     11  C   UNL     1      34.123 -21.776 -17.318  0.00  0.00    +0.155 A 
ATOM     12  C   UNL     1      34.606 -20.546 -19.440  0.00  0.00    +0.232 C 
ATOM     13  H   UNL     1      31.476 -22.882 -16.334  0.00  0.00    +0.189 HD
ATOM     14  H   UNL     1      35.912 -21.041 -17.965  0.00  0.00    +0.156 HD
ENDROOT
BRANCH   5  18
ATOM     15  S   UNL     1      38.283 -24.177 -14.089  0.00  0.00    +0.057 S 
ATOM     16  O   UNL     1      37.743 -25.383 -14.685  0.00  0.00    -0.154 OA
ATOM     17  O   UNL     1      39.214 -23.320 -14.793  0.00  0.00    -0.154 OA
ATOM     18  N   UNL     1      37.006 -23.206 -13.415  0.00  0.00    -0.194 N 
ATOM     19  C   UNL     1      38.973 -24.609 -12.500  0.00  0.00    +0.174 C 
ATOM     20  C   UNL     1      38.446 -23.558 -11.537  0.00  0.00    +0.051 C 
ATOM     21  C   UNL     1      36.989 -23.320 -11.928  0.00  0.00    +0.117 C 
ENDBRANCH   5  18
BRANCH  12  22
ATOM     22  C   UNL     1      35.819 -19.917 -20.123  0.00  0.00    +0.112 C 
BRANCH  22  26
ATOM     23  C   UNL     1      34.894 -16.409 -22.445  0.00  0.00    +0.048 C 
ATOM     24  C   UNL     1      34.796 -17.696 -23.008  0.00  0.00    +0.014 C 
ATOM     25  C   UNL     1      35.302 -16.300 -21.101  0.00  0.00    +0.014 C 
ATOM     26  C   UNL     1      35.498 -18.702 -20.926  0.00  0.00    -0.013 C 
ATOM     27  C   UNL     1      35.096 -18.832 -22.256  0.00  0.00    -0.003 C 
ATOM     28  C   UNL     1      35.602 -17.436 -20.350  0.00  0.00    -0.003 C 
BRANCH  23  29
ATOM     29  N   UNL     1      34.592 -15.268 -23.200  0.00  0.00    -0.307 N 
ATOM     30  C   UNL     1      34.099 -12.934 -24.826  0.00  0.00    +0.004 C 
ATOM     31  C   UNL     1      33.991 -12.882 -23.307  0.00  0.00    +0.021 C 
ATOM     32  C   UNL     1      33.771 -14.336 -25.328  0.00  0.00    +0.021 C 
ATOM     33  C   UNL     1      34.870 -13.939 -22.641  0.00  0.00    +0.091 C 
ATOM     34  C   UNL     1      34.656 -15.388 -24.663  0.00  0.00    +0.091 C 
ENDBRANCH  23  29
ENDBRANCH  22  26
ENDBRANCH  12  22
TORSDOF 4
ENDMDL
MODEL 2
REMARK VINA RESULT:     -11.6      1.762      2.320
REMARK  Name = 10138993
REMARK  4 active torsions:
REMARK  status: ('A' for Active; 'I' for Inactive)
REMARK    1  A    between atoms: C_5  and  N_18
REMARK    2  A    between atoms: C_12  and  C_22
REMARK    3  A    between atoms: C_22  and  C_26
REMARK    4  A    between atoms: C_23  and  N_29
REMARK                            x       y       z     vdW  Elec       q    Type
REMARK                         _______ _______ _______ _____ _____    ______ ____
ROOT
ATOM      1  O   UNL     1      32.730 -21.481 -18.689  0.00  0.00    -0.274 OA
ATOM      2  N   UNL     1      31.758 -22.915 -14.859  0.00  0.00    -0.275 N 
ATOM      3  N   UNL     1      34.281 -22.238 -17.095  0.00  0.00    -0.268 N 
ATOM      4  N   UNL     1      32.143 -22.469 -16.066  0.00  0.00    -0.157 NA
ATOM      5  C   UNL     1      35.234 -23.951 -12.951  0.00  0.00    +0.069 C 
ATOM      6  C   UNL     1      35.191 -23.433 -14.252  0.00  0.00    +0.020 C 
ATOM      7  C   UNL     1      34.061 -24.144 -12.217  0.00  0.00    +0.018 C 
ATOM      8  C   UNL     1      33.941 -23.113 -14.807  0.00  0.00    +0.052 A 
ATOM      9  C   UNL     1      32.790 -23.316 -14.054  0.00  0.00    +0.077 A 
ATOM     10  C   UNL     1      32.809 -23.830 -12.755  0.00  0.00    +0.020 C 
ATOM     11  C   UNL     1      33.461 -22.596 -16.018  0.00  0.00    +0.155 A 
ATOM     12  C   UNL     1      33.876 -21.721 -18.323  0.00  0.00    +0.232 C 
ATOM     13  H   UNL     1      30.815 -22.950 -14.578  0.00  0.00    +0.189 HD
ATOM     14  H   UNL     1      35.248 -22.367 -16.972  0.00  0.00    +0.156 HD
ENDROOT
BRANCH   5  18
ATOM     15  S   UNL     1      37.139 -23.259 -11.101  0.00  0.00    +0.057 S 
ATOM     16  O   UNL     1      36.899 -21.865 -11.419  0.00  0.00    -0.154 OA
ATOM     17  O   UNL     1      36.805 -23.823  -9.810  0.00  0.00    -0.154 OA
ATOM     18  N   UNL     1      36.516 -24.288 -12.358  0.00  0.00    -0.194 N 
ATOM     19  C   UNL     1      38.849 -23.621 -11.471  0.00  0.00    +0.174 C 
ATOM     20  C   UNL     1      38.820 -24.923 -12.254  0.00  0.00    +0.051 C 
ATOM     21  C   UNL     1      37.625 -24.820 -13.200  0.00  0.00    +0.117 C 
ENDBRANCH   5  18
BRANCH  12  22
ATOM     22  C   UNL     1      35.079 -21.462 -19.226  0.00  0.00    +0.112 C 
BRANCH  22  26
ATOM     23  C   UNL     1      34.981 -17.643 -21.218  0.00  0.00    +0.048 C 
ATOM     24  C   UNL     1      36.175 -18.137 -20.657  0.00  0.00    +0.014 C 
ATOM     25  C   UNL     1      33.820 -18.433 -21.110  0.00  0.00    +0.014 C 
ATOM     26  C   UNL     1      35.044 -20.140 -19.916  0.00  0.00    -0.013 C 
ATOM     27  C   UNL     1      36.207 -19.373 -20.012  0.00  0.00    -0.003 C 
ATOM     28  C   UNL     1      33.852 -19.669 -20.465  0.00  0.00    -0.003 C 
BRANCH  23  29
ATOM     29  N   UNL     1      34.949 -16.402 -21.866  0.00  0.00    -0.307 N 
ATOM     30  C   UNL     1      35.024 -13.868 -23.246  0.00  0.00    +0.004 C 
ATOM     31  C   UNL     1      34.593 -13.966 -21.789  0.00  0.00    +0.021 C 
ATOM     32  C   UNL     1      34.694 -15.163 -23.980  0.00  0.00    +0.021 C 
ATOM     33  C   UNL     1      35.213 -15.180 -21.097  0.00  0.00    +0.091 C 
ATOM     34  C   UNL     1      35.319 -16.371 -23.289  0.00  0.00    +0.091 C 
ENDBRANCH  23  29
ENDBRANCH  22  26
ENDBRANCH  12  22
TORSDOF 4
ENDMDL
MODEL 3
REMARK VINA RESULT:     -11.4      1.814      2.937
REMARK  Name = 10138993
REMARK  4 active torsions:
REMARK  status: ('A' for Active; 'I' for Inactive)
REMARK    1  A    between atoms: C_5  and  N_18
REMARK    2  A    between atoms: C_12  and  C_22
REMARK    3  A    between atoms: C_22  and  C_26
REMARK    4  A    between atoms: C_23  and  N_29
REMARK                            x       y       z     vdW  Elec       q    Type
REMARK                         _______ _______ _______ _____ _____    ______ ____
ROOT
ATOM      1  O   UNL     1      32.081 -21.758 -17.129  0.00  0.00    -0.274 OA
ATOM      2  N   UNL     1      33.070 -22.644 -13.141  0.00  0.00    -0.275 N 
ATOM      3  N   UNL     1      34.081 -22.768 -16.425  0.00  0.00    -0.268 N 
ATOM      4  N   UNL     1      32.822 -22.390 -14.437  0.00  0.00    -0.157 NA
ATOM      5  C   UNL     1      36.781 -24.382 -13.091  0.00  0.00    +0.069 C 
ATOM      6  C   UNL     1      36.142 -23.959 -14.263  0.00  0.00    +0.020 C 
ATOM      7  C   UNL     1      36.170 -24.228 -11.844  0.00  0.00    +0.018 C 
ATOM      8  C   UNL     1      34.869 -23.375 -14.161  0.00  0.00    +0.052 A 
ATOM      9  C   UNL     1      34.283 -23.235 -12.908  0.00  0.00    +0.077 A 
ATOM     10  C   UNL     1      34.902 -23.649 -11.726  0.00  0.00    +0.020 C 
ATOM     11  C   UNL     1      33.915 -22.838 -15.036  0.00  0.00    +0.155 A 
ATOM     12  C   UNL     1      33.182 -22.250 -17.353  0.00  0.00    +0.232 C 
ATOM     13  H   UNL     1      32.435 -22.425 -12.422  0.00  0.00    +0.189 HD
ATOM     14  H   UNL     1      34.924 -23.125 -16.785  0.00  0.00    +0.156 HD
ENDROOT
BRANCH   5  18
ATOM     15  S   UNL     1      39.445 -23.976 -13.608  0.00  0.00    +0.057 S 
ATOM     16  O   UNL     1      39.069 -23.054 -14.661  0.00  0.00    -0.154 OA
ATOM     17  O   UNL     1      40.123 -23.537 -12.406  0.00  0.00    -0.154 OA
ATOM     18  N   UNL     1      38.098 -24.988 -13.173  0.00  0.00    -0.194 N 
ATOM     19  C   UNL     1      40.376 -25.308 -14.350  0.00  0.00    +0.174 C 
ATOM     20  C   UNL     1      39.780 -26.581 -13.772  0.00  0.00    +0.051 C 
ATOM     21  C   UNL     1      38.270 -26.359 -13.733  0.00  0.00    +0.117 C 
ENDBRANCH   5  18
BRANCH  12  22
ATOM     22  C   UNL     1      33.740 -22.359 -18.770  0.00  0.00    +0.112 C 
BRANCH  22  26
ATOM     23  C   UNL     1      34.560 -18.560 -20.626  0.00  0.00    +0.048 C 
ATOM     24  C   UNL     1      33.245 -19.058 -20.548  0.00  0.00    +0.014 C 
ATOM     25  C   UNL     1      35.599 -19.338 -20.080  0.00  0.00    +0.014 C 
ATOM     26  C   UNL     1      34.024 -21.044 -19.412  0.00  0.00    -0.013 C 
ATOM     27  C   UNL     1      32.979 -20.289 -19.947  0.00  0.00    -0.003 C 
ATOM     28  C   UNL     1      35.333 -20.568 -19.479  0.00  0.00    -0.003 C 
BRANCH  23  29
ATOM     29  N   UNL     1      34.826 -17.323 -21.228  0.00  0.00    -0.307 N 
ATOM     30  C   UNL     1      35.511 -14.827 -22.504  0.00  0.00    +0.004 C 
ATOM     31  C   UNL     1      34.951 -14.868 -21.088  0.00  0.00    +0.021 C 
ATOM     32  C   UNL     1      34.994 -16.014 -23.309  0.00  0.00    +0.021 C 
ATOM     33  C   UNL     1      35.261 -16.195 -20.397  0.00  0.00    +0.091 C 
ATOM     34  C   UNL     1      35.311 -17.337 -22.616  0.00  0.00    +0.091 C 
ENDBRANCH  23  29
ENDBRANCH  22  26
ENDBRANCH  12  22
TORSDOF 4
ENDMDL
MODEL 4
REMARK VINA RESULT:     -10.8      3.382      5.091
REMARK  Name = 10138993
REMARK  4 active torsions:
REMARK  status: ('A' for Active; 'I' for Inactive)
REMARK    1  A    between atoms: C_5  and  N_18
REMARK    2  A    between atoms: C_12  and  C_22
REMARK    3  A    between atoms: C_22  and  C_26
REMARK    4  A    between atoms: C_23  and  N_29
REMARK                            x       y       z     vdW  Elec       q    Type
REMARK                         _______ _______ _______ _____ _____    ______ ____
ROOT
ATOM      1  O   UNL     1      37.406 -21.471 -17.592  0.00  0.00    -0.274 OA
ATOM      2  N   UNL     1      35.472 -22.309 -13.955  0.00  0.00    -0.275 N 
ATOM      3  N   UNL     1      35.100 -21.843 -17.341  0.00  0.00    -0.268 N 
ATOM      4  N   UNL     1      36.022 -22.046 -15.152  0.00  0.00    -0.157 NA
ATOM      5  C   UNL     1      31.470 -22.776 -14.702  0.00  0.00    +0.069 C 
ATOM      6  C   UNL     1      32.413 -22.487 -15.696  0.00  0.00    +0.020 C 
ATOM      7  C   UNL     1      31.856 -22.926 -13.368  0.00  0.00    +0.018 C 
ATOM      8  C   UNL     1      33.760 -22.348 -15.325  0.00  0.00    +0.052 A 
ATOM      9  C   UNL     1      34.117 -22.501 -13.990  0.00  0.00    +0.077 A 
ATOM     10  C   UNL     1      33.194 -22.790 -12.982  0.00  0.00    +0.020 C 
ATOM     11  C   UNL     1      34.976 -22.073 -15.965  0.00  0.00    +0.155 A 
ATOM     12  C   UNL     1      36.270 -21.566 -18.043  0.00  0.00    +0.232 C 
ATOM     13  H   UNL     1      35.998 -22.359 -13.124  0.00  0.00    +0.189 HD
ATOM     14  H   UNL     1      34.271 -21.882 -17.869  0.00  0.00    +0.156 HD
ENDROOT
BRANCH   5  18
ATOM     15  S   UNL     1      29.364 -24.513 -14.991  0.00  0.00    +0.057 S 
ATOM     16  O   UNL     1      30.292 -25.506 -15.495  0.00  0.00    -0.154 OA
ATOM     17  O   UNL     1      28.676 -24.673 -13.727  0.00  0.00    -0.154 OA
ATOM     18  N   UNL     1      30.071 -22.925 -15.064  0.00  0.00    -0.194 N 
ATOM     19  C   UNL     1      28.163 -24.182 -16.271  0.00  0.00    +0.174 C 
ATOM     20  C   UNL     1      28.066 -22.667 -16.344  0.00  0.00    +0.051 C 
ATOM     21  C   UNL     1      29.494 -22.145 -16.196  0.00  0.00    +0.117 C 
ENDBRANCH   5  18
BRANCH  12  22
ATOM     22  C   UNL     1      35.979 -21.380 -19.531  0.00  0.00    +0.112 C 
BRANCH  22  26
ATOM     23  C   UNL     1      35.264 -17.290 -20.676  0.00  0.00    +0.048 C 
ATOM     24  C   UNL     1      36.574 -17.773 -20.496  0.00  0.00    +0.014 C 
ATOM     25  C   UNL     1      34.193 -18.182 -20.472  0.00  0.00    +0.014 C 
ATOM     26  C   UNL     1      35.730 -19.964 -19.928  0.00  0.00    -0.013 C 
ATOM     27  C   UNL     1      36.806 -19.097 -20.125  0.00  0.00    -0.003 C 
ATOM     28  C   UNL     1      34.425 -19.506 -20.101  0.00  0.00    -0.003 C 
BRANCH  23  29
ATOM     29  N   UNL     1      35.031 -15.960 -21.049  0.00  0.00    -0.307 N 
ATOM     30  C   UNL     1      34.698 -13.206 -21.845  0.00  0.00    +0.004 C 
ATOM     31  C   UNL     1      34.150 -13.722 -20.520  0.00  0.00    +0.021 C 
ATOM     32  C   UNL     1      34.733 -14.330 -22.873  0.00  0.00    +0.021 C 
ATOM     33  C   UNL     1      34.944 -14.925 -20.012  0.00  0.00    +0.091 C 
ATOM     34  C   UNL     1      35.531 -15.528 -22.363  0.00  0.00    +0.091 C 
ENDBRANCH  23  29
ENDBRANCH  22  26
ENDBRANCH  12  22
TORSDOF 4
ENDMDL
MODEL 5
REMARK VINA RESULT:     -10.6      2.753      4.202
REMARK  Name = 10138993
REMARK  4 active torsions:
REMARK  status: ('A' for Active; 'I' for Inactive)
REMARK    1  A    between atoms: C_5  and  N_18
REMARK    2  A    between atoms: C_12  and  C_22
REMARK    3  A    between atoms: C_22  and  C_26
REMARK    4  A    between atoms: C_23  and  N_29
REMARK                            x       y       z     vdW  Elec       q    Type
REMARK                         _______ _______ _______ _____ _____    ______ ____
ROOT
ATOM      1  O   UNL     1      37.509 -20.136 -19.344  0.00  0.00    -0.274 OA
ATOM      2  N   UNL     1      36.986 -21.574 -15.429  0.00  0.00    -0.275 N 
ATOM      3  N   UNL     1      35.549 -21.135 -18.522  0.00  0.00    -0.268 N 
ATOM      4  N   UNL     1      37.081 -21.136 -16.696  0.00  0.00    -0.157 NA
ATOM      5  C   UNL     1      33.198 -23.105 -15.115  0.00  0.00    +0.069 C 
ATOM      6  C   UNL     1      33.708 -22.540 -16.291  0.00  0.00    +0.020 C 
ATOM      7  C   UNL     1      33.977 -23.179 -13.958  0.00  0.00    +0.018 C 
ATOM      8  C   UNL     1      35.022 -22.045 -16.284  0.00  0.00    +0.052 A 
ATOM      9  C   UNL     1      35.775 -22.130 -15.117  0.00  0.00    +0.077 A 
ATOM     10  C   UNL     1      35.287 -22.690 -13.934  0.00  0.00    +0.020 C 
ATOM     11  C   UNL     1      35.889 -21.428 -17.195  0.00  0.00    +0.155 A 
ATOM     12  C   UNL     1      36.355 -20.527 -19.480  0.00  0.00    +0.232 C 
ATOM     13  H   UNL     1      37.723 -21.499 -14.781  0.00  0.00    +0.189 HD
ATOM     14  H   UNL     1      34.642 -21.386 -18.808  0.00  0.00    +0.156 HD
ENDROOT
BRANCH   5  18
ATOM     15  S   UNL     1      30.524 -22.486 -15.092  0.00  0.00    +0.057 S 
ATOM     16  O   UNL     1      30.821 -21.371 -14.214  0.00  0.00    -0.154 OA
ATOM     17  O   UNL     1      30.047 -22.294 -16.445  0.00  0.00    -0.154 OA
ATOM     18  N   UNL     1      31.841 -23.623 -15.101  0.00  0.00    -0.194 N 
ATOM     19  C   UNL     1      29.409 -23.583 -14.230  0.00  0.00    +0.174 C 
ATOM     20  C   UNL     1      29.984 -24.975 -14.432  0.00  0.00    +0.051 C 
ATOM     21  C   UNL     1      31.498 -24.830 -14.295  0.00  0.00    +0.117 C 
ENDBRANCH   5  18
BRANCH  12  22
ATOM     22  C   UNL     1      35.611 -20.388 -20.807  0.00  0.00    +0.112 C 
BRANCH  22  26
ATOM     23  C   UNL     1      34.883 -16.310 -21.987  0.00  0.00    +0.048 C 
ATOM     24  C   UNL     1      34.785 -17.362 -22.918  0.00  0.00    +0.014 C 
ATOM     25  C   UNL     1      35.226 -16.629 -20.659  0.00  0.00    +0.014 C 
ATOM     26  C   UNL     1      35.359 -18.976 -21.215  0.00  0.00    -0.013 C 
ATOM     27  C   UNL     1      35.021 -18.683 -22.537  0.00  0.00    -0.003 C 
ATOM     28  C   UNL     1      35.462 -17.950 -20.277  0.00  0.00    -0.003 C 
BRANCH  23  29
ATOM     29  N   UNL     1      34.646 -14.984 -22.371  0.00  0.00    -0.307 N 
ATOM     30  C   UNL     1      34.286 -12.253 -23.233  0.00  0.00    +0.004 C 
ATOM     31  C   UNL     1      34.149 -12.648 -21.768  0.00  0.00    +0.021 C 
ATOM     32  C   UNL     1      33.909 -13.426 -24.131  0.00  0.00    +0.021 C 
ATOM     33  C   UNL     1      34.969 -13.896 -21.441  0.00  0.00    +0.091 C 
ATOM     34  C   UNL     1      34.735 -14.668 -23.804  0.00  0.00    +0.091 C 
ENDBRANCH  23  29
ENDBRANCH  22  26
ENDBRANCH  12  22
TORSDOF 4
ENDMDL
