MODEL 1
REMARK VINA RESULT:     -12.2      0.000      0.000
REMARK  Name = 17758816
REMARK  9 active torsions:
REMARK  status: ('A' for Active; 'I' for Inactive)
REMARK    1  A    between atoms: C_3  and  C_8
REMARK    2  A    between atoms: C_4  and  C_20
REMARK    3  A    between atoms: C_11  and  O_14
REMARK    4  A    between atoms: O_14  and  C_15
REMARK    5  A    between atoms: C_15  and  C_17
REMARK    6  A    between atoms: C_17  and  O_18
REMARK    7  A    between atoms: C_20  and  N_23
REMARK    8  A    between atoms: C_28  and  S_32
REMARK    9  A    between atoms: S_32  and  C_34
REMARK                            x       y       z     vdW  Elec       q    Type
REMARK                         _______ _______ _______ _____ _____    ______ ____
ROOT
ATOM      1  N   UNL     1      36.598 -20.320 -18.283  0.00  0.00    -0.317 N 
ATOM      2  N   UNL     1      34.828 -20.480 -19.613  0.00  0.00    -0.316 N 
ATOM      3  C   UNL     1      35.749 -21.197 -17.670  0.00  0.00    +0.060 C 
ATOM      4  C   UNL     1      36.004 -19.916 -19.445  0.00  0.00    +0.164 C 
ATOM      5  C   UNL     1      34.663 -21.279 -18.511  0.00  0.00    +0.074 C 
ATOM      6  H   UNL     1      37.478 -20.032 -17.948  0.00  0.00    +0.148 HD
ATOM      7  H   UNL     1      34.205 -20.357 -20.365  0.00  0.00    +0.148 HD
ENDROOT
BRANCH   3   8
ATOM      8  C   UNL     1      36.038 -21.836 -16.410  0.00  0.00    +0.015 C 
ATOM      9  C   UNL     1      37.296 -21.688 -15.826  0.00  0.00    +0.004 C 
ATOM     10  C   UNL     1      35.060 -22.601 -15.775  0.00  0.00    +0.004 C 
ATOM     11  C   UNL     1      36.597 -23.069 -13.971  0.00  0.00    +0.139 C 
ATOM     12  C   UNL     1      37.576 -22.305 -14.606  0.00  0.00    +0.037 C 
ATOM     13  C   UNL     1      35.339 -23.218 -14.556  0.00  0.00    +0.037 C 
BRANCH  11  14
ATOM     14  O   UNL     1      36.871 -23.671 -12.782  0.00  0.00    -0.464 OA
BRANCH  14  15
ATOM     15  C   UNL     1      36.789 -22.861 -11.609  0.00  0.00    +0.314 C 
BRANCH  15  17
ATOM     16  O   UNL     1      36.448 -23.592  -9.317  0.00  0.00    -0.246 OA
ATOM     17  C   UNL     1      36.139 -23.638 -10.498  0.00  0.00    +0.359 C 
BRANCH  17  18
ATOM     18  O   UNL     1      35.141 -24.414 -10.992  0.00  0.00    -0.478 OA
ATOM     19  H   UNL     1      34.705 -25.027 -10.434  0.00  0.00    +0.295 HD
ENDBRANCH  17  18
ENDBRANCH  15  17
ENDBRANCH  14  15
ENDBRANCH  11  14
ENDBRANCH   3   8
BRANCH   4  20
ATOM     20  C   UNL     1      36.663 -18.960 -20.353  0.00  0.00    +0.131 C 
BRANCH  20  23
ATOM     21  S   UNL     1      34.106 -13.227 -20.855  0.00  0.00    -0.045 S 
ATOM     22  O   UNL     1      35.906 -17.205 -22.478  0.00  0.00    -0.252 OA
ATOM     23  N   UNL     1      36.074 -17.646 -20.218  0.00  0.00    -0.285 N 
ATOM     24  N   UNL     1      35.187 -15.640 -20.876  0.00  0.00    -0.248 N 
ATOM     25  N   UNL     1      34.721 -14.540 -22.996  0.00  0.00    -0.222 NA
ATOM     26  C   UNL     1      35.733 -16.848 -21.315  0.00  0.00    +0.306 C 
ATOM     27  C   UNL     1      34.730 -14.596 -21.683  0.00  0.00    +0.167 C 
ATOM     28  C   UNL     1      33.794 -12.486 -22.369  0.00  0.00    +0.082 C 
ATOM     29  C   UNL     1      34.184 -13.329 -23.388  0.00  0.00    +0.114 C 
ATOM     30  H   UNL     1      35.907 -17.297 -19.312  0.00  0.00    +0.151 HD
ATOM     31  H   UNL     1      35.117 -15.511 -19.902  0.00  0.00    +0.158 HD
BRANCH  28  32
ATOM     32  S   UNL     1      33.083 -10.897 -22.526  0.00  0.00    -0.060 S 
BRANCH  32  34
ATOM     33  N   UNL     1      34.200 -10.777 -24.962  0.00  0.00    -0.237 NA
ATOM     34  C   UNL     1      34.214 -10.212 -23.734  0.00  0.00    +0.111 C 
ATOM     35  C   UNL     1      35.038  -9.160 -23.373  0.00  0.00    +0.026 C 
ATOM     36  C   UNL     1      35.905  -8.652 -24.335  0.00  0.00    +0.004 C 
ATOM     37  C   UNL     1      35.920  -9.206 -25.610  0.00  0.00    +0.021 C 
ATOM     38  C   UNL     1      35.056 -10.257 -25.871  0.00  0.00    +0.099 C 
ENDBRANCH  32  34
ENDBRANCH  28  32
ENDBRANCH  20  23
ENDBRANCH   4  20
TORSDOF 9
ENDMDL
MODEL 2
REMARK VINA RESULT:     -11.6      4.530     13.612
REMARK  Name = 17758816
REMARK  9 active torsions:
REMARK  status: ('A' for Active; 'I' for Inactive)
REMARK    1  A    between atoms: C_3  and  C_8
REMARK    2  A    between atoms: C_4  and  C_20
REMARK    3  A    between atoms: C_11  and  O_14
REMARK    4  A    between atoms: O_14  and  C_15
REMARK    5  A    between atoms: C_15  and  C_17
REMARK    6  A    between atoms: C_17  and  O_18
REMARK    7  A    between atoms: C_20  and  N_23
REMARK    8  A    between atoms: C_28  and  S_32
REMARK    9  A    between atoms: S_32  and  C_34
REMARK                            x       y       z     vdW  Elec       q    Type
REMARK                         _______ _______ _______ _____ _____    ______ ____
ROOT
ATOM      1  N   UNL     1      35.726 -16.652 -21.994  0.00  0.00    -0.317 N 
ATOM      2  N   UNL     1      35.599 -16.823 -19.784  0.00  0.00    -0.316 N 
ATOM      3  C   UNL     1      35.153 -15.489 -21.561  0.00  0.00    +0.060 C 
ATOM      4  C   UNL     1      35.976 -17.422 -20.893  0.00  0.00    +0.164 C 
ATOM      5  C   UNL     1      35.085 -15.619 -20.193  0.00  0.00    +0.074 C 
ATOM      6  H   UNL     1      35.922 -16.891 -22.929  0.00  0.00    +0.148 HD
ATOM      7  H   UNL     1      35.671 -17.164 -18.863  0.00  0.00    +0.148 HD
ENDROOT
BRANCH   3   8
ATOM      8  C   UNL     1      34.747 -14.425 -22.446  0.00  0.00    +0.015 C 
ATOM      9  C   UNL     1      34.411 -14.710 -23.769  0.00  0.00    +0.004 C 
ATOM     10  C   UNL     1      34.689 -13.113 -21.978  0.00  0.00    +0.004 C 
ATOM     11  C   UNL     1      33.958 -12.368 -24.157  0.00  0.00    +0.139 C 
ATOM     12  C   UNL     1      34.017 -13.680 -24.625  0.00  0.00    +0.037 C 
ATOM     13  C   UNL     1      34.295 -12.084 -22.833  0.00  0.00    +0.037 C 
BRANCH  11  14
ATOM     14  O   UNL     1      33.574 -11.365 -24.992  0.00  0.00    -0.464 OA
BRANCH  14  15
ATOM     15  C   UNL     1      33.951 -10.036 -24.628  0.00  0.00    +0.314 C 
BRANCH  15  17
ATOM     16  O   UNL     1      35.634  -9.796 -26.363  0.00  0.00    -0.246 OA
ATOM     17  C   UNL     1      35.310  -9.722 -25.188  0.00  0.00    +0.359 C 
BRANCH  17  18
ATOM     18  O   UNL     1      36.148  -9.335 -24.192  0.00  0.00    -0.478 OA
ATOM     19  H   UNL     1      37.074  -9.342 -24.330  0.00  0.00    +0.295 HD
ENDBRANCH  17  18
ENDBRANCH  15  17
ENDBRANCH  14  15
ENDBRANCH  11  14
ENDBRANCH   3   8
BRANCH   4  20
ATOM     20  C   UNL     1      36.597 -18.753 -21.011  0.00  0.00    +0.131 C 
BRANCH  20  23
ATOM     21  S   UNL     1      36.668 -21.748 -15.473  0.00  0.00    -0.045 S 
ATOM     22  O   UNL     1      34.914 -20.606 -19.633  0.00  0.00    -0.252 OA
ATOM     23  N   UNL     1      36.830 -19.320 -19.701  0.00  0.00    -0.285 N 
ATOM     24  N   UNL     1      36.437 -20.596 -17.840  0.00  0.00    -0.248 N 
ATOM     25  N   UNL     1      34.700 -22.134 -17.104  0.00  0.00    -0.222 NA
ATOM     26  C   UNL     1      35.951 -20.224 -19.096  0.00  0.00    +0.306 C 
ATOM     27  C   UNL     1      35.830 -21.483 -16.947  0.00  0.00    +0.167 C 
ATOM     28  C   UNL     1      35.424 -22.824 -14.989  0.00  0.00    +0.082 C 
ATOM     29  C   UNL     1      34.469 -22.903 -15.981  0.00  0.00    +0.114 C 
ATOM     30  H   UNL     1      37.644 -19.058 -19.213  0.00  0.00    +0.151 HD
ATOM     31  H   UNL     1      37.290 -20.196 -17.558  0.00  0.00    +0.158 HD
BRANCH  28  32
ATOM     32  S   UNL     1      35.429 -23.665 -13.458  0.00  0.00    -0.060 S 
BRANCH  32  34
ATOM     33  N   UNL     1      37.360 -25.240 -14.452  0.00  0.00    -0.237 NA
ATOM     34  C   UNL     1      37.100 -24.309 -13.507  0.00  0.00    +0.111 C 
ATOM     35  C   UNL     1      38.035 -23.844 -12.598  0.00  0.00    +0.026 C 
ATOM     36  C   UNL     1      39.322 -24.367 -12.663  0.00  0.00    +0.004 C 
ATOM     37  C   UNL     1      39.629 -25.326 -13.622  0.00  0.00    +0.021 C 
ATOM     38  C   UNL     1      38.622 -25.725 -14.486  0.00  0.00    +0.099 C 
ENDBRANCH  32  34
ENDBRANCH  28  32
ENDBRANCH  20  23
ENDBRANCH   4  20
TORSDOF 9
ENDMDL
MODEL 3
REMARK VINA RESULT:     -11.5      1.935      2.618
REMARK  Name = 17758816
REMARK  9 active torsions:
REMARK  status: ('A' for Active; 'I' for Inactive)
REMARK    1  A    between atoms: C_3  and  C_8
REMARK    2  A    between atoms: C_4  and  C_20
REMARK    3  A    between atoms: C_11  and  O_14
REMARK    4  A    between atoms: O_14  and  C_15
REMARK    5  A    between atoms: C_15  and  C_17
REMARK    6  A    between atoms: C_17  and  O_18
REMARK    7  A    between atoms: C_20  and  N_23
REMARK    8  A    between atoms: C_28  and  S_32
REMARK    9  A    between atoms: S_32  and  C_34
REMARK                            x       y       z     vdW  Elec       q    Type
REMARK                         _______ _______ _______ _____ _____    ______ ____
ROOT
ATOM      1  N   UNL     1      36.578 -20.596 -18.239  0.00  0.00    -0.317 N 
ATOM      2  N   UNL     1      34.722 -20.518 -19.456  0.00  0.00    -0.316 N 
ATOM      3  C   UNL     1      35.638 -21.294 -17.533  0.00  0.00    +0.060 C 
ATOM      4  C   UNL     1      35.983 -20.150 -19.385  0.00  0.00    +0.164 C 
ATOM      5  C   UNL     1      34.501 -21.230 -18.305  0.00  0.00    +0.074 C 
ATOM      6  H   UNL     1      37.513 -20.444 -17.970  0.00  0.00    +0.148 HD
ATOM      7  H   UNL     1      34.079 -20.325 -20.176  0.00  0.00    +0.148 HD
ENDROOT
BRANCH   3   8
ATOM      8  C   UNL     1      35.901 -21.918 -16.259  0.00  0.00    +0.015 C 
ATOM      9  C   UNL     1      37.176 -21.847 -15.699  0.00  0.00    +0.004 C 
ATOM     10  C   UNL     1      34.880 -22.589 -15.588  0.00  0.00    +0.004 C 
ATOM     11  C   UNL     1      36.409 -23.121 -13.795  0.00  0.00    +0.139 C 
ATOM     12  C   UNL     1      37.430 -22.450 -14.466  0.00  0.00    +0.037 C 
ATOM     13  C   UNL     1      35.134 -23.192 -14.356  0.00  0.00    +0.037 C 
BRANCH  11  14
ATOM     14  O   UNL     1      36.658 -23.709 -12.593  0.00  0.00    -0.464 OA
BRANCH  14  15
ATOM     15  C   UNL     1      35.600 -23.698 -11.633  0.00  0.00    +0.314 C 
BRANCH  15  17
ATOM     16  O   UNL     1      35.518 -23.948  -9.218  0.00  0.00    -0.246 OA
ATOM     17  C   UNL     1      36.165 -23.887 -10.252  0.00  0.00    +0.359 C 
BRANCH  17  18
ATOM     18  O   UNL     1      37.517 -23.986 -10.310  0.00  0.00    -0.478 OA
ATOM     19  H   UNL     1      38.023 -23.949  -9.523  0.00  0.00    +0.295 HD
ENDBRANCH  17  18
ENDBRANCH  15  17
ENDBRANCH  14  15
ENDBRANCH  11  14
ENDBRANCH   3   8
BRANCH   4  20
ATOM     20  C   UNL     1      36.728 -19.356 -20.379  0.00  0.00    +0.131 C 
BRANCH  20  23
ATOM     21  S   UNL     1      34.702 -13.445 -21.154  0.00  0.00    -0.045 S 
ATOM     22  O   UNL     1      35.587 -17.816 -22.498  0.00  0.00    -0.252 OA
ATOM     23  N   UNL     1      36.331 -17.967 -20.317  0.00  0.00    -0.285 N 
ATOM     24  N   UNL     1      35.495 -15.964 -21.049  0.00  0.00    -0.248 N 
ATOM     25  N   UNL     1      34.570 -15.106 -23.130  0.00  0.00    -0.222 NA
ATOM     26  C   UNL     1      35.778 -17.285 -21.406  0.00  0.00    +0.306 C 
ATOM     27  C   UNL     1      34.936 -14.985 -21.874  0.00  0.00    +0.167 C 
ATOM     28  C   UNL     1      34.057 -12.877 -22.637  0.00  0.00    +0.082 C 
ATOM     29  C   UNL     1      34.065 -13.897 -23.566  0.00  0.00    +0.114 C 
ATOM     30  H   UNL     1      36.455 -17.479 -19.471  0.00  0.00    +0.151 HD
ATOM     31  H   UNL     1      35.710 -15.698 -20.126  0.00  0.00    +0.158 HD
BRANCH  28  32
ATOM     32  S   UNL     1      33.487 -11.242 -22.868  0.00  0.00    -0.060 S 
BRANCH  32  34
ATOM     33  N   UNL     1      32.149 -12.187 -20.744  0.00  0.00    -0.237 NA
ATOM     34  C   UNL     1      32.579 -11.051 -21.337  0.00  0.00    +0.111 C 
ATOM     35  C   UNL     1      32.355  -9.781 -20.833  0.00  0.00    +0.026 C 
ATOM     36  C   UNL     1      31.645  -9.668 -19.642  0.00  0.00    +0.004 C 
ATOM     37  C   UNL     1      31.187 -10.815 -19.002  0.00  0.00    +0.021 C 
ATOM     38  C   UNL     1      31.463 -12.039 -19.589  0.00  0.00    +0.099 C 
ENDBRANCH  32  34
ENDBRANCH  28  32
ENDBRANCH  20  23
ENDBRANCH   4  20
TORSDOF 9
ENDMDL
MODEL 4
REMARK VINA RESULT:     -11.2      4.411     13.569
REMARK  Name = 17758816
REMARK  9 active torsions:
REMARK  status: ('A' for Active; 'I' for Inactive)
REMARK    1  A    between atoms: C_3  and  C_8
REMARK    2  A    between atoms: C_4  and  C_20
REMARK    3  A    between atoms: C_11  and  O_14
REMARK    4  A    between atoms: O_14  and  C_15
REMARK    5  A    between atoms: C_15  and  C_17
REMARK    6  A    between atoms: C_17  and  O_18
REMARK    7  A    between atoms: C_20  and  N_23
REMARK    8  A    between atoms: C_28  and  S_32
REMARK    9  A    between atoms: S_32  and  C_34
REMARK                            x       y       z     vdW  Elec       q    Type
REMARK                         _______ _______ _______ _____ _____    ______ ____
ROOT
ATOM      1  N   UNL     1      35.070 -16.696 -22.287  0.00  0.00    -0.317 N 
ATOM      2  N   UNL     1      35.453 -17.010 -20.123  0.00  0.00    -0.316 N 
ATOM      3  C   UNL     1      34.928 -15.470 -21.700  0.00  0.00    +0.060 C 
ATOM      4  C   UNL     1      35.385 -17.589 -21.302  0.00  0.00    +0.164 C 
ATOM      5  C   UNL     1      35.169 -15.690 -20.364  0.00  0.00    +0.074 C 
ATOM      6  H   UNL     1      34.964 -16.898 -23.245  0.00  0.00    +0.148 HD
ATOM      7  H   UNL     1      35.662 -17.431 -19.258  0.00  0.00    +0.148 HD
ENDROOT
BRANCH   3   8
ATOM      8  C   UNL     1      34.593 -14.272 -22.432  0.00  0.00    +0.015 C 
ATOM      9  C   UNL     1      34.630 -13.033 -21.793  0.00  0.00    +0.004 C 
ATOM     10  C   UNL     1      34.233 -14.354 -23.776  0.00  0.00    +0.004 C 
ATOM     11  C   UNL     1      33.948 -11.956 -23.846  0.00  0.00    +0.139 C 
ATOM     12  C   UNL     1      34.307 -11.874 -22.501  0.00  0.00    +0.037 C 
ATOM     13  C   UNL     1      33.909 -13.196 -24.484  0.00  0.00    +0.037 C 
BRANCH  11  14
ATOM     14  O   UNL     1      33.632 -10.826 -24.535  0.00  0.00    -0.464 OA
BRANCH  14  15
ATOM     15  C   UNL     1      34.711  -9.965 -24.901  0.00  0.00    +0.314 C 
BRANCH  15  17
ATOM     16  O   UNL     1      33.975  -8.161 -23.449  0.00  0.00    -0.246 OA
ATOM     17  C   UNL     1      34.867  -8.881 -23.871  0.00  0.00    +0.359 C 
BRANCH  17  18
ATOM     18  O   UNL     1      36.159  -8.807 -23.462  0.00  0.00    -0.478 OA
ATOM     19  H   UNL     1      36.735  -8.173 -23.841  0.00  0.00    +0.295 HD
ENDBRANCH  17  18
ENDBRANCH  15  17
ENDBRANCH  14  15
ENDBRANCH  11  14
ENDBRANCH   3   8
BRANCH   4  20
ATOM     20  C   UNL     1      35.608 -19.015 -21.600  0.00  0.00    +0.131 C 
BRANCH  20  23
ATOM     21  S   UNL     1      34.318 -22.465 -16.493  0.00  0.00    -0.045 S 
ATOM     22  O   UNL     1      36.985 -19.791 -19.219  0.00  0.00    -0.252 OA
ATOM     23  N   UNL     1      35.087 -19.842 -20.534  0.00  0.00    -0.285 N 
ATOM     24  N   UNL     1      35.070 -20.981 -18.547  0.00  0.00    -0.248 N 
ATOM     25  N   UNL     1      36.641 -21.355 -16.727  0.00  0.00    -0.222 NA
ATOM     26  C   UNL     1      35.832 -20.176 -19.398  0.00  0.00    +0.306 C 
ATOM     27  C   UNL     1      35.479 -21.508 -17.320  0.00  0.00    +0.167 C 
ATOM     28  C   UNL     1      35.453 -22.706 -15.231  0.00  0.00    +0.082 C 
ATOM     29  C   UNL     1      36.625 -22.042 -15.529  0.00  0.00    +0.114 C 
ATOM     30  H   UNL     1      34.168 -20.185 -20.611  0.00  0.00    +0.151 HD
ATOM     31  H   UNL     1      34.156 -21.199 -18.842  0.00  0.00    +0.158 HD
BRANCH  28  32
ATOM     32  S   UNL     1      35.111 -23.658 -13.806  0.00  0.00    -0.060 S 
BRANCH  32  34
ATOM     33  N   UNL     1      37.186 -25.282 -14.306  0.00  0.00    -0.237 NA
ATOM     34  C   UNL     1      36.759 -24.287 -13.497  0.00  0.00    +0.111 C 
ATOM     35  C   UNL     1      37.512 -23.747 -12.468  0.00  0.00    +0.026 C 
ATOM     36  C   UNL     1      38.787 -24.260 -12.255  0.00  0.00    +0.004 C 
ATOM     37  C   UNL     1      39.262 -25.284 -13.067  0.00  0.00    +0.021 C 
ATOM     38  C   UNL     1      38.431 -25.755 -14.070  0.00  0.00    +0.099 C 
ENDBRANCH  32  34
ENDBRANCH  28  32
ENDBRANCH  20  23
ENDBRANCH   4  20
TORSDOF 9
ENDMDL
MODEL 5
REMARK VINA RESULT:     -11.2      2.179      2.984
REMARK  Name = 17758816
REMARK  9 active torsions:
REMARK  status: ('A' for Active; 'I' for Inactive)
REMARK    1  A    between atoms: C_3  and  C_8
REMARK    2  A    between atoms: C_4  and  C_20
REMARK    3  A    between atoms: C_11  and  O_14
REMARK    4  A    between atoms: O_14  and  C_15
REMARK    5  A    between atoms: C_15  and  C_17
REMARK    6  A    between atoms: C_17  and  O_18
REMARK    7  A    between atoms: C_20  and  N_23
REMARK    8  A    between atoms: C_28  and  S_32
REMARK    9  A    between atoms: S_32  and  C_34
REMARK                            x       y       z     vdW  Elec       q    Type
REMARK                         _______ _______ _______ _____ _____    ______ ____
ROOT
ATOM      1  N   UNL     1      36.369 -19.279 -19.793  0.00  0.00    -0.317 N 
ATOM      2  N   UNL     1      34.676 -19.014 -21.205  0.00  0.00    -0.316 N 
ATOM      3  C   UNL     1      35.366 -20.082 -19.329  0.00  0.00    +0.060 C 
ATOM      4  C   UNL     1      35.910 -18.658 -20.920  0.00  0.00    +0.164 C 
ATOM      5  C   UNL     1      34.331 -19.900 -20.217  0.00  0.00    +0.074 C 
ATOM      6  H   UNL     1      37.260 -19.169 -19.389  0.00  0.00    +0.148 HD
ATOM      7  H   UNL     1      34.123 -18.710 -21.961  0.00  0.00    +0.148 HD
ENDROOT
BRANCH   3   8
ATOM      8  C   UNL     1      35.484 -20.900 -18.146  0.00  0.00    +0.015 C 
ATOM      9  C   UNL     1      34.402 -21.669 -17.720  0.00  0.00    +0.004 C 
ATOM     10  C   UNL     1      36.679 -20.921 -17.430  0.00  0.00    +0.004 C 
ATOM     11  C   UNL     1      35.713 -22.483 -15.861  0.00  0.00    +0.139 C 
ATOM     12  C   UNL     1      34.516 -22.461 -16.576  0.00  0.00    +0.037 C 
ATOM     13  C   UNL     1      36.795 -21.712 -16.286  0.00  0.00    +0.037 C 
BRANCH  11  14
ATOM     14  O   UNL     1      35.824 -23.254 -14.745  0.00  0.00    -0.464 OA
BRANCH  14  15
ATOM     15  C   UNL     1      37.034 -23.995 -14.586  0.00  0.00    +0.314 C 
BRANCH  15  17
ATOM     16  O   UNL     1      36.488 -26.209 -15.426  0.00  0.00    -0.246 OA
ATOM     17  C   UNL     1      36.722 -25.463 -14.487  0.00  0.00    +0.359 C 
BRANCH  17  18
ATOM     18  O   UNL     1      36.736 -25.858 -13.189  0.00  0.00    -0.478 OA
ATOM     19  H   UNL     1      37.065 -26.705 -12.961  0.00  0.00    +0.295 HD
ENDBRANCH  17  18
ENDBRANCH  15  17
ENDBRANCH  14  15
ENDBRANCH  11  14
ENDBRANCH   3   8
BRANCH   4  20
ATOM     20  C   UNL     1      36.754 -17.714 -21.675  0.00  0.00    +0.131 C 
BRANCH  20  23
ATOM     21  S   UNL     1      33.125 -12.654 -22.611  0.00  0.00    -0.045 S 
ATOM     22  O   UNL     1      35.274 -15.893 -20.045  0.00  0.00    -0.252 OA
ATOM     23  N   UNL     1      35.969 -16.589 -22.134  0.00  0.00    -0.285 N 
ATOM     24  N   UNL     1      34.608 -14.753 -21.992  0.00  0.00    -0.248 N 
ATOM     25  N   UNL     1      33.533 -13.501 -20.203  0.00  0.00    -0.222 NA
ATOM     26  C   UNL     1      35.271 -15.744 -21.264  0.00  0.00    +0.306 C 
ATOM     27  C   UNL     1      33.813 -13.732 -21.466  0.00  0.00    +0.167 C 
ATOM     28  C   UNL     1      32.384 -11.799 -21.324  0.00  0.00    +0.082 C 
ATOM     29  C   UNL     1      32.714 -12.392 -20.123  0.00  0.00    +0.114 C 
ATOM     30  H   UNL     1      35.922 -16.411 -23.101  0.00  0.00    +0.151 HD
ATOM     31  H   UNL     1      34.711 -14.776 -22.971  0.00  0.00    +0.158 HD
BRANCH  28  32
ATOM     32  S   UNL     1      31.377 -10.392 -21.565  0.00  0.00    -0.060 S 
BRANCH  32  34
ATOM     33  N   UNL     1      32.841  -8.172 -21.215  0.00  0.00    -0.237 NA
ATOM     34  C   UNL     1      32.649  -9.225 -22.040  0.00  0.00    +0.111 C 
ATOM     35  C   UNL     1      33.367  -9.438 -23.205  0.00  0.00    +0.026 C 
ATOM     36  C   UNL     1      34.346  -8.511 -23.546  0.00  0.00    +0.004 C 
ATOM     37  C   UNL     1      34.574  -7.415 -22.721  0.00  0.00    +0.021 C 
ATOM     38  C   UNL     1      33.802  -7.292 -21.577  0.00  0.00    +0.099 C 
ENDBRANCH  32  34
ENDBRANCH  28  32
ENDBRANCH  20  23
ENDBRANCH   4  20
TORSDOF 9
ENDMDL
MODEL 6
REMARK VINA RESULT:     -11.1      2.338      3.303
REMARK  Name = 17758816
REMARK  9 active torsions:
REMARK  status: ('A' for Active; 'I' for Inactive)
REMARK    1  A    between atoms: C_3  and  C_8
REMARK    2  A    between atoms: C_4  and  C_20
REMARK    3  A    between atoms: C_11  and  O_14
REMARK    4  A    between atoms: O_14  and  C_15
REMARK    5  A    between atoms: C_15  and  C_17
REMARK    6  A    between atoms: C_17  and  O_18
REMARK    7  A    between atoms: C_20  and  N_23
REMARK    8  A    between atoms: C_28  and  S_32
REMARK    9  A    between atoms: S_32  and  C_34
REMARK                            x       y       z     vdW  Elec       q    Type
REMARK                         _______ _______ _______ _____ _____    ______ ____
ROOT
ATOM      1  N   UNL     1      36.260 -19.804 -19.240  0.00  0.00    -0.317 N 
ATOM      2  N   UNL     1      34.323 -19.722 -20.322  0.00  0.00    -0.316 N 
ATOM      3  C   UNL     1      35.411 -20.619 -18.547  0.00  0.00    +0.060 C 
ATOM      4  C   UNL     1      35.564 -19.288 -20.297  0.00  0.00    +0.164 C 
ATOM      5  C   UNL     1      34.221 -20.551 -19.234  0.00  0.00    +0.074 C 
ATOM      6  H   UNL     1      37.203 -19.623 -19.019  0.00  0.00    +0.148 HD
ATOM      7  H   UNL     1      33.622 -19.501 -20.977  0.00  0.00    +0.148 HD
ENDROOT
BRANCH   3   8
ATOM      8  C   UNL     1      35.794 -21.343 -17.360  0.00  0.00    +0.015 C 
ATOM      9  C   UNL     1      37.095 -21.236 -16.868  0.00  0.00    +0.004 C 
ATOM     10  C   UNL     1      34.865 -22.149 -16.704  0.00  0.00    +0.004 C 
ATOM     11  C   UNL     1      36.536 -22.740 -15.062  0.00  0.00    +0.139 C 
ATOM     12  C   UNL     1      37.466 -21.935 -15.719  0.00  0.00    +0.037 C 
ATOM     13  C   UNL     1      35.235 -22.848 -15.555  0.00  0.00    +0.037 C 
BRANCH  11  14
ATOM     14  O   UNL     1      36.898 -23.422 -13.942  0.00  0.00    -0.464 OA
BRANCH  14  15
ATOM     15  C   UNL     1      37.922 -24.407 -14.084  0.00  0.00    +0.314 C 
BRANCH  15  17
ATOM     16  O   UNL     1      37.282 -26.363 -15.376  0.00  0.00    -0.246 OA
ATOM     17  C   UNL     1      37.301 -25.757 -14.315  0.00  0.00    +0.359 C 
BRANCH  17  18
ATOM     18  O   UNL     1      36.754 -26.224 -13.165  0.00  0.00    -0.478 OA
ATOM     19  H   UNL     1      37.217 -26.853 -12.648  0.00  0.00    +0.295 HD
ENDBRANCH  17  18
ENDBRANCH  15  17
ENDBRANCH  14  15
ENDBRANCH  11  14
ENDBRANCH   3   8
BRANCH   4  20
ATOM     20  C   UNL     1      36.196 -18.362 -21.254  0.00  0.00    +0.131 C 
BRANCH  20  23
ATOM     21  S   UNL     1      34.124 -12.416 -21.267  0.00  0.00    -0.045 S 
ATOM     22  O   UNL     1      35.279 -16.489 -23.208  0.00  0.00    -0.252 OA
ATOM     23  N   UNL     1      35.757 -17.006 -21.009  0.00  0.00    -0.285 N 
ATOM     24  N   UNL     1      34.964 -14.912 -21.491  0.00  0.00    -0.248 N 
ATOM     25  N   UNL     1      34.274 -13.717 -23.496  0.00  0.00    -0.222 NA
ATOM     26  C   UNL     1      35.322 -16.151 -22.028  0.00  0.00    +0.306 C 
ATOM     27  C   UNL     1      34.484 -13.810 -22.202  0.00  0.00    +0.167 C 
ATOM     28  C   UNL     1      33.647 -11.608 -22.702  0.00  0.00    +0.082 C 
ATOM     29  C   UNL     1      33.795 -12.454 -23.781  0.00  0.00    +0.114 C 
ATOM     30  H   UNL     1      35.766 -16.668 -20.084  0.00  0.00    +0.151 HD
ATOM     31  H   UNL     1      35.060 -14.805 -20.517  0.00  0.00    +0.158 HD
BRANCH  28  32
ATOM     32  S   UNL     1      33.068  -9.959 -22.724  0.00  0.00    -0.060 S 
BRANCH  32  34
ATOM     33  N   UNL     1      32.691  -9.090 -20.214  0.00  0.00    -0.237 NA
ATOM     34  C   UNL     1      32.220  -9.949 -21.146  0.00  0.00    +0.111 C 
ATOM     35  C   UNL     1      31.147 -10.800 -20.944  0.00  0.00    +0.026 C 
ATOM     36  C   UNL     1      30.513 -10.768 -19.707  0.00  0.00    +0.004 C 
ATOM     37  C   UNL     1      30.967  -9.897 -18.723  0.00  0.00    +0.021 C 
ATOM     38  C   UNL     1      32.049  -9.085 -19.024  0.00  0.00    +0.099 C 
ENDBRANCH  32  34
ENDBRANCH  28  32
ENDBRANCH  20  23
ENDBRANCH   4  20
TORSDOF 9
ENDMDL
MODEL 7
REMARK VINA RESULT:     -11.0      2.433      4.233
REMARK  Name = 17758816
REMARK  9 active torsions:
REMARK  status: ('A' for Active; 'I' for Inactive)
REMARK    1  A    between atoms: C_3  and  C_8
REMARK    2  A    between atoms: C_4  and  C_20
REMARK    3  A    between atoms: C_11  and  O_14
REMARK    4  A    between atoms: O_14  and  C_15
REMARK    5  A    between atoms: C_15  and  C_17
REMARK    6  A    between atoms: C_17  and  O_18
REMARK    7  A    between atoms: C_20  and  N_23
REMARK    8  A    between atoms: C_28  and  S_32
REMARK    9  A    between atoms: S_32  and  C_34
REMARK                            x       y       z     vdW  Elec       q    Type
REMARK                         _______ _______ _______ _____ _____    ______ ____
ROOT
ATOM      1  N   UNL     1      34.854 -18.559 -21.400  0.00  0.00    -0.317 N 
ATOM      2  N   UNL     1      36.854 -17.662 -21.757  0.00  0.00    -0.316 N 
ATOM      3  C   UNL     1      35.683 -19.109 -20.463  0.00  0.00    +0.060 C 
ATOM      4  C   UNL     1      35.600 -17.697 -22.153  0.00  0.00    +0.164 C 
ATOM      5  C   UNL     1      36.912 -18.540 -20.705  0.00  0.00    +0.074 C 
ATOM      6  H   UNL     1      33.895 -18.748 -21.511  0.00  0.00    +0.148 HD
ATOM      7  H   UNL     1      37.588 -17.124 -22.132  0.00  0.00    +0.148 HD
ENDROOT
BRANCH   3   8
ATOM      8  C   UNL     1      35.247 -20.073 -19.483  0.00  0.00    +0.015 C 
ATOM      9  C   UNL     1      33.899 -20.419 -19.398  0.00  0.00    +0.004 C 
ATOM     10  C   UNL     1      36.173 -20.659 -18.622  0.00  0.00    +0.004 C 
ATOM     11  C   UNL     1      34.404 -21.940 -17.590  0.00  0.00    +0.139 C 
ATOM     12  C   UNL     1      33.477 -21.353 -18.451  0.00  0.00    +0.037 C 
ATOM     13  C   UNL     1      35.752 -21.593 -17.674  0.00  0.00    +0.037 C 
BRANCH  11  14
ATOM     14  O   UNL     1      33.992 -22.850 -16.666  0.00  0.00    -0.464 OA
BRANCH  14  15
ATOM     15  C   UNL     1      34.379 -22.621 -15.311  0.00  0.00    +0.314 C 
BRANCH  15  17
ATOM     16  O   UNL     1      36.304 -24.091 -15.115  0.00  0.00    -0.246 OA
ATOM     17  C   UNL     1      35.160 -23.800 -14.799  0.00  0.00    +0.359 C 
BRANCH  17  18
ATOM     18  O   UNL     1      34.410 -24.511 -13.919  0.00  0.00    -0.478 OA
ATOM     19  H   UNL     1      34.523 -24.384 -12.998  0.00  0.00    +0.295 HD
ENDBRANCH  17  18
ENDBRANCH  15  17
ENDBRANCH  14  15
ENDBRANCH  11  14
ENDBRANCH   3   8
BRANCH   4  20
ATOM     20  C   UNL     1      35.003 -16.930 -23.262  0.00  0.00    +0.131 C 
BRANCH  20  23
ATOM     21  S   UNL     1      34.062 -10.732 -22.679  0.00  0.00    -0.045 S 
ATOM     22  O   UNL     1      34.353 -14.758 -25.001  0.00  0.00    -0.252 OA
ATOM     23  N   UNL     1      34.834 -15.544 -22.884  0.00  0.00    -0.285 N 
ATOM     24  N   UNL     1      34.417 -13.308 -23.150  0.00  0.00    -0.248 N 
ATOM     25  N   UNL     1      33.864 -11.837 -25.007  0.00  0.00    -0.222 NA
ATOM     26  C   UNL     1      34.515 -14.539 -23.803  0.00  0.00    +0.306 C 
ATOM     27  C   UNL     1      34.114 -12.079 -23.741  0.00  0.00    +0.167 C 
ATOM     28  C   UNL     1      33.674  -9.727 -24.013  0.00  0.00    +0.082 C 
ATOM     29  C   UNL     1      33.611 -10.488 -25.162  0.00  0.00    +0.114 C 
ATOM     30  H   UNL     1      34.948 -15.297 -21.938  0.00  0.00    +0.151 HD
ATOM     31  H   UNL     1      34.577 -13.307 -22.178  0.00  0.00    +0.158 HD
BRANCH  28  32
ATOM     32  S   UNL     1      33.407  -8.007 -23.868  0.00  0.00    -0.060 S 
BRANCH  32  34
ATOM     33  N   UNL     1      32.104  -8.798 -21.661  0.00  0.00    -0.237 NA
ATOM     34  C   UNL     1      33.039  -7.935 -22.117  0.00  0.00    +0.111 C 
ATOM     35  C   UNL     1      33.707  -7.021 -21.319  0.00  0.00    +0.026 C 
ATOM     36  C   UNL     1      33.396  -6.991 -19.964  0.00  0.00    +0.004 C 
ATOM     37  C   UNL     1      32.440  -7.863 -19.457  0.00  0.00    +0.021 C 
ATOM     38  C   UNL     1      31.828  -8.740 -20.338  0.00  0.00    +0.099 C 
ENDBRANCH  32  34
ENDBRANCH  28  32
ENDBRANCH  20  23
ENDBRANCH   4  20
TORSDOF 9
ENDMDL
MODEL 8
REMARK VINA RESULT:     -10.9      3.952      6.268
REMARK  Name = 17758816
REMARK  9 active torsions:
REMARK  status: ('A' for Active; 'I' for Inactive)
REMARK    1  A    between atoms: C_3  and  C_8
REMARK    2  A    between atoms: C_4  and  C_20
REMARK    3  A    between atoms: C_11  and  O_14
REMARK    4  A    between atoms: O_14  and  C_15
REMARK    5  A    between atoms: C_15  and  C_17
REMARK    6  A    between atoms: C_17  and  O_18
REMARK    7  A    between atoms: C_20  and  N_23
REMARK    8  A    between atoms: C_28  and  S_32
REMARK    9  A    between atoms: S_32  and  C_34
REMARK                            x       y       z     vdW  Elec       q    Type
REMARK                         _______ _______ _______ _____ _____    ______ ____
ROOT
ATOM      1  N   UNL     1      33.186 -23.406 -14.936  0.00  0.00    -0.317 N 
ATOM      2  N   UNL     1      31.725 -22.290 -13.690  0.00  0.00    -0.316 N 
ATOM      3  C   UNL     1      33.788 -23.229 -13.722  0.00  0.00    +0.060 C 
ATOM      4  C   UNL     1      31.950 -22.827 -14.870  0.00  0.00    +0.164 C 
ATOM      5  C   UNL     1      32.867 -22.537 -12.971  0.00  0.00    +0.074 C 
ATOM      6  H   UNL     1      33.572 -23.868 -15.715  0.00  0.00    +0.148 HD
ATOM      7  H   UNL     1      30.916 -21.816 -13.391  0.00  0.00    +0.148 HD
ENDROOT
BRANCH   3   8
ATOM      8  C   UNL     1      35.113 -23.709 -13.414  0.00  0.00    +0.015 C 
ATOM      9  C   UNL     1      35.879 -24.322 -14.404  0.00  0.00    +0.004 C 
ATOM     10  C   UNL     1      35.626 -23.560 -12.126  0.00  0.00    +0.004 C 
ATOM     11  C   UNL     1      37.676 -24.636 -12.819  0.00  0.00    +0.139 C 
ATOM     12  C   UNL     1      37.162 -24.786 -14.106  0.00  0.00    +0.037 C 
ATOM     13  C   UNL     1      36.908 -24.024 -11.828  0.00  0.00    +0.037 C 
BRANCH  11  14
ATOM     14  O   UNL     1      38.926 -25.089 -12.529  0.00  0.00    -0.464 OA
BRANCH  14  15
ATOM     15  C   UNL     1      39.601 -25.829 -13.546  0.00  0.00    +0.314 C 
BRANCH  15  17
ATOM     16  O   UNL     1      41.090 -23.933 -13.854  0.00  0.00    -0.246 OA
ATOM     17  C   UNL     1      40.528 -24.920 -14.305  0.00  0.00    +0.359 C 
BRANCH  17  18
ATOM     18  O   UNL     1      40.663 -25.352 -15.584  0.00  0.00    -0.478 OA
ATOM     19  H   UNL     1      39.933 -25.320 -16.169  0.00  0.00    +0.295 HD
ENDBRANCH  17  18
ENDBRANCH  15  17
ENDBRANCH  14  15
ENDBRANCH  11  14
ENDBRANCH   3   8
BRANCH   4  20
ATOM     20  C   UNL     1      31.032 -22.841 -16.023  0.00  0.00    +0.131 C 
BRANCH  20  23
ATOM     21  S   UNL     1      33.858 -19.141 -20.262  0.00  0.00    -0.045 S 
ATOM     22  O   UNL     1      33.654 -22.582 -17.130  0.00  0.00    -0.252 OA
ATOM     23  N   UNL     1      31.456 -21.882 -17.019  0.00  0.00    -0.285 N 
ATOM     24  N   UNL     1      32.875 -20.800 -18.455  0.00  0.00    -0.248 N 
ATOM     25  N   UNL     1      35.222 -20.988 -19.073  0.00  0.00    -0.222 NA
ATOM     26  C   UNL     1      32.765 -21.822 -17.508  0.00  0.00    +0.306 C 
ATOM     27  C   UNL     1      34.029 -20.444 -19.158  0.00  0.00    +0.167 C 
ATOM     28  C   UNL     1      35.515 -19.304 -20.671  0.00  0.00    +0.082 C 
ATOM     29  C   UNL     1      36.073 -20.333 -19.942  0.00  0.00    +0.114 C 
ATOM     30  H   UNL     1      30.794 -21.242 -17.368  0.00  0.00    +0.151 HD
ATOM     31  H   UNL     1      32.061 -20.281 -18.645  0.00  0.00    +0.158 HD
BRANCH  28  32
ATOM     32  S   UNL     1      36.314 -18.288 -21.847  0.00  0.00    -0.060 S 
BRANCH  32  34
ATOM     33  N   UNL     1      35.485 -16.508 -20.018  0.00  0.00    -0.237 NA
ATOM     34  C   UNL     1      35.634 -16.708 -21.347  0.00  0.00    +0.111 C 
ATOM     35  C   UNL     1      35.294 -15.778 -22.314  0.00  0.00    +0.026 C 
ATOM     36  C   UNL     1      34.767 -14.562 -21.892  0.00  0.00    +0.004 C 
ATOM     37  C   UNL     1      34.599 -14.319 -20.533  0.00  0.00    +0.021 C 
ATOM     38  C   UNL     1      34.971 -15.315 -19.645  0.00  0.00    +0.099 C 
ENDBRANCH  32  34
ENDBRANCH  28  32
ENDBRANCH  20  23
ENDBRANCH   4  20
TORSDOF 9
ENDMDL
MODEL 9
REMARK VINA RESULT:     -10.8      2.452      2.985
REMARK  Name = 17758816
REMARK  9 active torsions:
REMARK  status: ('A' for Active; 'I' for Inactive)
REMARK    1  A    between atoms: C_3  and  C_8
REMARK    2  A    between atoms: C_4  and  C_20
REMARK    3  A    between atoms: C_11  and  O_14
REMARK    4  A    between atoms: O_14  and  C_15
REMARK    5  A    between atoms: C_15  and  C_17
REMARK    6  A    between atoms: C_17  and  O_18
REMARK    7  A    between atoms: C_20  and  N_23
REMARK    8  A    between atoms: C_28  and  S_32
REMARK    9  A    between atoms: S_32  and  C_34
REMARK                            x       y       z     vdW  Elec       q    Type
REMARK                         _______ _______ _______ _____ _____    ______ ____
ROOT
ATOM      1  N   UNL     1      35.290 -20.191 -19.129  0.00  0.00    -0.317 N 
ATOM      2  N   UNL     1      33.883 -19.531 -20.715  0.00  0.00    -0.316 N 
ATOM      3  C   UNL     1      34.073 -20.713 -18.790  0.00  0.00    +0.060 C 
ATOM      4  C   UNL     1      35.127 -19.490 -20.291  0.00  0.00    +0.164 C 
ATOM      5  C   UNL     1      33.221 -20.291 -19.784  0.00  0.00    +0.074 C 
ATOM      6  H   UNL     1      36.130 -20.301 -18.628  0.00  0.00    +0.148 HD
ATOM      7  H   UNL     1      33.509 -19.109 -21.523  0.00  0.00    +0.148 HD
ENDROOT
BRANCH   3   8
ATOM      8  C   UNL     1      33.853 -21.518 -17.614  0.00  0.00    +0.015 C 
ATOM      9  C   UNL     1      34.939 -21.969 -16.865  0.00  0.00    +0.004 C 
ATOM     10  C   UNL     1      32.554 -21.844 -17.226  0.00  0.00    +0.004 C 
ATOM     11  C   UNL     1      33.427 -23.073 -15.337  0.00  0.00    +0.139 C 
ATOM     12  C   UNL     1      34.726 -22.747 -15.726  0.00  0.00    +0.037 C 
ATOM     13  C   UNL     1      32.340 -22.622 -16.088  0.00  0.00    +0.037 C 
BRANCH  11  14
ATOM     14  O   UNL     1      33.219 -23.832 -14.228  0.00  0.00    -0.464 OA
BRANCH  14  15
ATOM     15  C   UNL     1      32.247 -23.364 -13.293  0.00  0.00    +0.314 C 
BRANCH  15  17
ATOM     16  O   UNL     1      30.761 -25.128 -14.057  0.00  0.00    -0.246 OA
ATOM     17  C   UNL     1      31.129 -24.364 -13.178  0.00  0.00    +0.359 C 
BRANCH  17  18
ATOM     18  O   UNL     1      30.573 -24.304 -11.942  0.00  0.00    -0.478 OA
ATOM     19  H   UNL     1      29.904 -23.675 -11.759  0.00  0.00    +0.295 HD
ENDBRANCH  17  18
ENDBRANCH  15  17
ENDBRANCH  14  15
ENDBRANCH  11  14
ENDBRANCH   3   8
BRANCH   4  20
ATOM     20  C   UNL     1      36.258 -18.796 -20.934  0.00  0.00    +0.131 C 
BRANCH  20  23
ATOM     21  S   UNL     1      34.216 -14.417 -24.972  0.00  0.00    -0.045 S 
ATOM     22  O   UNL     1      35.630 -16.011 -20.830  0.00  0.00    -0.252 OA
ATOM     23  N   UNL     1      35.790 -17.977 -22.030  0.00  0.00    -0.285 N 
ATOM     24  N   UNL     1      35.074 -16.091 -23.115  0.00  0.00    -0.248 N 
ATOM     25  N   UNL     1      34.680 -13.766 -22.514  0.00  0.00    -0.222 NA
ATOM     26  C   UNL     1      35.504 -16.614 -21.893  0.00  0.00    +0.306 C 
ATOM     27  C   UNL     1      34.701 -14.768 -23.363  0.00  0.00    +0.167 C 
ATOM     28  C   UNL     1      33.950 -12.788 -24.510  0.00  0.00    +0.082 C 
ATOM     29  C   UNL     1      34.249 -12.631 -23.173  0.00  0.00    +0.114 C 
ATOM     30  H   UNL     1      35.667 -18.396 -22.912  0.00  0.00    +0.151 HD
ATOM     31  H   UNL     1      35.029 -16.715 -23.874  0.00  0.00    +0.158 HD
BRANCH  28  32
ATOM     32  S   UNL     1      33.386 -11.560 -25.618  0.00  0.00    -0.060 S 
BRANCH  32  34
ATOM     33  N   UNL     1      35.425  -9.852 -25.268  0.00  0.00    -0.237 NA
ATOM     34  C   UNL     1      34.167 -10.135 -24.864  0.00  0.00    +0.111 C 
ATOM     35  C   UNL     1      33.472  -9.399 -23.919  0.00  0.00    +0.026 C 
ATOM     36  C   UNL     1      34.108  -8.300 -23.352  0.00  0.00    +0.004 C 
ATOM     37  C   UNL     1      35.403  -7.976 -23.743  0.00  0.00    +0.021 C 
ATOM     38  C   UNL     1      36.012  -8.776 -24.696  0.00  0.00    +0.099 C 
ENDBRANCH  32  34
ENDBRANCH  28  32
ENDBRANCH  20  23
ENDBRANCH   4  20
TORSDOF 9
ENDMDL
