MODEL 1
REMARK VINA RESULT:     -13.1      0.000      0.000
REMARK  Name = 10297043
REMARK  6 active torsions:
REMARK  status: ('A' for Active; 'I' for Inactive)
REMARK    1  A    between atoms: N_2  and  C_30
REMARK    2  A    between atoms: C_5  and  C_16
REMARK    3  A    between atoms: C_13  and  C_19
REMARK    4  A    between atoms: C_19  and  N_20
REMARK    5  A    between atoms: N_21  and  C_28
REMARK    6  A    between atoms: C_30  and  C_32
REMARK                            x       y       z     vdW  Elec       q    Type
REMARK                         _______ _______ _______ _____ _____    ______ ____
ROOT
ATOM      1  N   UNL     1      32.693 -21.334 -18.058  0.00  0.00    -0.301 N 
ATOM      2  N   UNL     1      35.302 -23.408 -14.794  0.00  0.00    -0.319 N 
ATOM      3  N   UNL     1      31.474 -22.574 -16.388  0.00  0.00    -0.233 NA
ATOM      4  N   UNL     1      32.924 -23.616 -14.733  0.00  0.00    -0.233 NA
ATOM      5  C   UNL     1      34.008 -21.055 -18.330  0.00  0.00    +0.046 C 
ATOM      6  C   UNL     1      33.905 -22.341 -16.479  0.00  0.00    +0.131 C 
ATOM      7  C   UNL     1      34.782 -21.666 -17.366  0.00  0.00    +0.003 C 
ATOM      8  C   UNL     1      32.612 -22.116 -16.936  0.00  0.00    +0.117 C 
ATOM      9  C   UNL     1      34.034 -23.125 -15.333  0.00  0.00    +0.113 C 
ATOM     10  C   UNL     1      31.730 -23.315 -15.290  0.00  0.00    +0.252 C 
ATOM     11  H   UNL     1      31.925 -21.021 -18.589  0.00  0.00    +0.153 HD
ATOM     12  H   UNL     1      36.096 -23.041 -15.245  0.00  0.00    +0.148 HD
ENDROOT
BRANCH   5  16
ATOM     13  C   UNL     1      35.159 -18.697 -21.637  0.00  0.00    -0.043 C 
ATOM     14  C   UNL     1      36.130 -19.187 -20.770  0.00  0.00    -0.006 C 
ATOM     15  C   UNL     1      33.814 -18.975 -21.427  0.00  0.00    -0.006 C 
ATOM     16  C   UNL     1      34.401 -20.250 -19.460  0.00  0.00    +0.013 C 
ATOM     17  C   UNL     1      35.748 -19.966 -19.678  0.00  0.00    +0.001 C 
ATOM     18  C   UNL     1      33.434 -19.755 -20.335  0.00  0.00    +0.001 C 
BRANCH  13  19
ATOM     19  C   UNL     1      35.569 -17.858 -22.814  0.00  0.00    -0.050 C 
BRANCH  19  20
ATOM     20  N   UNL     1      34.853 -16.585 -22.851  0.00  0.00    +0.387 N 
ATOM     21  N   UNL     1      34.702 -13.727 -23.265  0.00  0.00    +0.384 N 
ATOM     22  C   UNL     1      35.415 -15.642 -21.875  0.00  0.00    -0.100 C 
ATOM     23  C   UNL     1      34.887 -16.007 -24.200  0.00  0.00    -0.100 C 
ATOM     24  C   UNL     1      34.669 -14.304 -21.916  0.00  0.00    -0.101 C 
ATOM     25  C   UNL     1      34.139 -14.669 -24.239  0.00  0.00    -0.101 C 
ATOM     26  H   UNL     1      33.880 -16.763 -22.602  0.00  0.00    -0.079 HD
ATOM     27  H   UNL     1      35.676 -13.550 -23.515  0.00  0.00    -0.080 HD
BRANCH  21  28
ATOM     28  C   UNL     1      33.988 -12.453 -23.303  0.00  0.00    -0.078 C 
ATOM     29  C   UNL     1      33.098 -12.286 -22.084  0.00  0.00    -0.025 C 
ENDBRANCH  21  28
ENDBRANCH  19  20
ENDBRANCH  13  19
ENDBRANCH   5  16
BRANCH   2  30
ATOM     30  C   UNL     1      35.492 -24.207 -13.621  0.00  0.00    +0.093 C 
ATOM     31  C   UNL     1      34.917 -23.469 -12.414  0.00  0.00    +0.026 C 
BRANCH  30  32
ATOM     32  C   UNL     1      36.953 -24.563 -13.459  0.00  0.00    -0.005 C 
ATOM     33  C   UNL     1      37.722 -23.861 -12.547  0.00  0.00    -0.003 C 
ATOM     34  C   UNL     1      37.491 -25.582 -14.227  0.00  0.00    -0.003 C 
ATOM     35  C   UNL     1      39.070 -24.188 -12.397  0.00  0.00    -0.000 C 
ATOM     36  C   UNL     1      38.838 -25.909 -14.078  0.00  0.00    -0.000 C 
ATOM     37  C   UNL     1      39.628 -25.212 -13.163  0.00  0.00    -0.000 C 
ENDBRANCH  30  32
ENDBRANCH   2  30
TORSDOF 6
ENDMDL
MODEL 2
REMARK VINA RESULT:     -11.5      2.440     11.922
REMARK  Name = 10297043
REMARK  6 active torsions:
REMARK  status: ('A' for Active; 'I' for Inactive)
REMARK    1  A    between atoms: N_2  and  C_30
REMARK    2  A    between atoms: C_5  and  C_16
REMARK    3  A    between atoms: C_13  and  C_19
REMARK    4  A    between atoms: C_19  and  N_20
REMARK    5  A    between atoms: N_21  and  C_28
REMARK    6  A    between atoms: C_30  and  C_32
REMARK                            x       y       z     vdW  Elec       q    Type
REMARK                         _______ _______ _______ _____ _____    ______ ____
ROOT
ATOM      1  N   UNL     1      34.984 -16.859 -23.566  0.00  0.00    -0.301 N 
ATOM      2  N   UNL     1      33.837 -12.450 -22.561  0.00  0.00    -0.319 N 
ATOM      3  N   UNL     1      34.326 -15.502 -25.447  0.00  0.00    -0.233 NA
ATOM      4  N   UNL     1      33.749 -13.222 -24.818  0.00  0.00    -0.233 NA
ATOM      5  C   UNL     1      35.121 -16.686 -22.213  0.00  0.00    +0.046 C 
ATOM      6  C   UNL     1      34.427 -14.743 -23.127  0.00  0.00    +0.131 C 
ATOM      7  C   UNL     1      34.783 -15.383 -21.912  0.00  0.00    +0.003 C 
ATOM      8  C   UNL     1      34.562 -15.687 -24.137  0.00  0.00    +0.117 C 
ATOM      9  C   UNL     1      34.002 -13.472 -23.512  0.00  0.00    +0.113 C 
ATOM     10  C   UNL     1      33.923 -14.238 -25.693  0.00  0.00    +0.252 C 
ATOM     11  H   UNL     1      35.161 -17.696 -24.052  0.00  0.00    +0.153 HD
ATOM     12  H   UNL     1      34.027 -12.652 -21.616  0.00  0.00    +0.148 HD
ENDROOT
BRANCH   5  16
ATOM     13  C   UNL     1      36.379 -19.816 -19.674  0.00  0.00    -0.043 C 
ATOM     14  C   UNL     1      37.321 -18.945 -20.210  0.00  0.00    -0.006 C 
ATOM     15  C   UNL     1      35.028 -19.668 -19.964  0.00  0.00    -0.006 C 
ATOM     16  C   UNL     1      35.550 -17.755 -21.345  0.00  0.00    +0.013 C 
ATOM     17  C   UNL     1      36.904 -17.910 -21.048  0.00  0.00    +0.001 C 
ATOM     18  C   UNL     1      34.612 -18.633 -20.803  0.00  0.00    +0.001 C 
BRANCH  13  19
ATOM     19  C   UNL     1      36.827 -20.929 -18.772  0.00  0.00    -0.050 C 
BRANCH  19  20
ATOM     20  N   UNL     1      35.899 -21.139 -17.662  0.00  0.00    +0.387 N 
ATOM     21  N   UNL     1      34.561 -22.791 -15.702  0.00  0.00    +0.384 N 
ATOM     22  C   UNL     1      34.824 -22.062 -18.049  0.00  0.00    -0.100 C 
ATOM     23  C   UNL     1      36.607 -21.644 -16.479  0.00  0.00    -0.100 C 
ATOM     24  C   UNL     1      33.852 -22.287 -16.886  0.00  0.00    -0.101 C 
ATOM     25  C   UNL     1      35.634 -21.867 -15.316  0.00  0.00    -0.101 C 
ATOM     26  H   UNL     1      35.481 -20.239 -17.427  0.00  0.00    -0.079 HD
ATOM     27  H   UNL     1      34.981 -23.691 -15.938  0.00  0.00    -0.080 HD
BRANCH  21  28
ATOM     28  C   UNL     1      33.633 -23.003 -14.593  0.00  0.00    -0.078 C 
ATOM     29  C   UNL     1      32.195 -22.786 -15.030  0.00  0.00    -0.025 C 
ENDBRANCH  21  28
ENDBRANCH  19  20
ENDBRANCH  13  19
ENDBRANCH   5  16
BRANCH   2  30
ATOM     30  C   UNL     1      33.403 -11.128 -22.901  0.00  0.00    +0.093 C 
ATOM     31  C   UNL     1      34.589 -10.336 -23.447  0.00  0.00    +0.026 C 
BRANCH  30  32
ATOM     32  C   UNL     1      32.746 -10.468 -21.709  0.00  0.00    -0.005 C 
ATOM     33  C   UNL     1      32.653  -9.087 -21.667  0.00  0.00    -0.003 C 
ATOM     34  C   UNL     1      32.252 -11.258 -20.685  0.00  0.00    -0.003 C 
ATOM     35  C   UNL     1      32.048  -8.478 -20.568  0.00  0.00    -0.000 C 
ATOM     36  C   UNL     1      31.647 -10.648 -19.586  0.00  0.00    -0.000 C 
ATOM     37  C   UNL     1      31.545  -9.259 -19.527  0.00  0.00    -0.000 C 
ENDBRANCH  30  32
ENDBRANCH   2  30
TORSDOF 6
ENDMDL
MODEL 3
REMARK VINA RESULT:     -11.4      3.234     12.812
REMARK  Name = 10297043
REMARK  6 active torsions:
REMARK  status: ('A' for Active; 'I' for Inactive)
REMARK    1  A    between atoms: N_2  and  C_30
REMARK    2  A    between atoms: C_5  and  C_16
REMARK    3  A    between atoms: C_13  and  C_19
REMARK    4  A    between atoms: C_19  and  N_20
REMARK    5  A    between atoms: N_21  and  C_28
REMARK    6  A    between atoms: C_30  and  C_32
REMARK                            x       y       z     vdW  Elec       q    Type
REMARK                         _______ _______ _______ _____ _____    ______ ____
ROOT
ATOM      1  N   UNL     1      34.400 -14.296 -24.377  0.00  0.00    -0.301 N 
ATOM      2  N   UNL     1      33.936  -9.997 -22.625  0.00  0.00    -0.319 N 
ATOM      3  N   UNL     1      33.668 -12.611 -25.939  0.00  0.00    -0.233 NA
ATOM      4  N   UNL     1      33.458 -10.406 -24.928  0.00  0.00    -0.233 NA
ATOM      5  C   UNL     1      34.735 -14.344 -23.048  0.00  0.00    +0.046 C 
ATOM      6  C   UNL     1      34.166 -12.225 -23.578  0.00  0.00    +0.131 C 
ATOM      7  C   UNL     1      34.599 -13.074 -22.527  0.00  0.00    +0.003 C 
ATOM      8  C   UNL     1      34.051 -13.015 -24.715  0.00  0.00    +0.117 C 
ATOM      9  C   UNL     1      33.850 -10.875 -23.720  0.00  0.00    +0.113 C 
ATOM     10  C   UNL     1      33.391 -11.291 -25.948  0.00  0.00    +0.252 C 
ATOM     11  H   UNL     1      34.409 -15.063 -24.993  0.00  0.00    +0.153 HD
ATOM     12  H   UNL     1      34.223 -10.358 -21.755  0.00  0.00    +0.148 HD
ENDROOT
BRANCH   5  16
ATOM     13  C   UNL     1      35.931 -17.931 -21.170  0.00  0.00    -0.043 C 
ATOM     14  C   UNL     1      35.696 -16.797 -20.400  0.00  0.00    -0.006 C 
ATOM     15  C   UNL     1      35.778 -17.897 -22.550  0.00  0.00    -0.006 C 
ATOM     16  C   UNL     1      35.143 -15.569 -22.407  0.00  0.00    +0.013 C 
ATOM     17  C   UNL     1      35.300 -15.612 -21.022  0.00  0.00    +0.001 C 
ATOM     18  C   UNL     1      35.382 -16.711 -23.171  0.00  0.00    +0.001 C 
BRANCH  13  19
ATOM     19  C   UNL     1      36.357 -19.206 -20.501  0.00  0.00    -0.050 C 
BRANCH  19  20
ATOM     20  N   UNL     1      35.397 -19.639 -19.488  0.00  0.00    +0.387 N 
ATOM     21  N   UNL     1      33.591 -21.564 -18.309  0.00  0.00    +0.384 N 
ATOM     22  C   UNL     1      34.094 -19.935 -20.098  0.00  0.00    -0.100 C 
ATOM     23  C   UNL     1      35.900 -20.810 -18.759  0.00  0.00    -0.100 C 
ATOM     24  C   UNL     1      33.087 -20.393 -19.039  0.00  0.00    -0.101 C 
ATOM     25  C   UNL     1      34.892 -21.266 -17.699  0.00  0.00    -0.101 C 
ATOM     26  H   UNL     1      35.275 -18.874 -18.824  0.00  0.00    -0.079 HD
ATOM     27  H   UNL     1      33.715 -22.328 -18.974  0.00  0.00    -0.080 HD
BRANCH  21  28
ATOM     28  C   UNL     1      32.630 -21.998 -17.298  0.00  0.00    -0.078 C 
ATOM     29  C   UNL     1      33.319 -22.758 -16.177  0.00  0.00    -0.025 C 
ENDBRANCH  21  28
ENDBRANCH  19  20
ENDBRANCH  13  19
ENDBRANCH   5  16
BRANCH   2  30
ATOM     30  C   UNL     1      33.623  -8.602 -22.715  0.00  0.00    +0.093 C 
ATOM     31  C   UNL     1      34.850  -7.845 -23.218  0.00  0.00    +0.026 C 
BRANCH  30  32
ATOM     32  C   UNL     1      33.114  -8.091 -21.385  0.00  0.00    -0.005 C 
ATOM     33  C   UNL     1      33.333  -6.768 -21.041  0.00  0.00    -0.003 C 
ATOM     34  C   UNL     1      32.442  -8.957 -20.540  0.00  0.00    -0.003 C 
ATOM     35  C   UNL     1      32.865  -6.297 -19.815  0.00  0.00    -0.000 C 
ATOM     36  C   UNL     1      31.974  -8.486 -19.314  0.00  0.00    -0.000 C 
ATOM     37  C   UNL     1      32.185  -7.156 -18.951  0.00  0.00    -0.000 C 
ENDBRANCH  30  32
ENDBRANCH   2  30
TORSDOF 6
ENDMDL
MODEL 4
REMARK VINA RESULT:     -11.1      1.336      2.140
REMARK  Name = 10297043
REMARK  6 active torsions:
REMARK  status: ('A' for Active; 'I' for Inactive)
REMARK    1  A    between atoms: N_2  and  C_30
REMARK    2  A    between atoms: C_5  and  C_16
REMARK    3  A    between atoms: C_13  and  C_19
REMARK    4  A    between atoms: C_19  and  N_20
REMARK    5  A    between atoms: N_21  and  C_28
REMARK    6  A    between atoms: C_30  and  C_32
REMARK                            x       y       z     vdW  Elec       q    Type
REMARK                         _______ _______ _______ _____ _____    ______ ____
ROOT
ATOM      1  N   UNL     1      34.361 -21.463 -17.530  0.00  0.00    -0.301 N 
ATOM      2  N   UNL     1      37.719 -23.391 -14.926  0.00  0.00    -0.319 N 
ATOM      3  N   UNL     1      33.599 -22.886 -15.739  0.00  0.00    -0.233 NA
ATOM      4  N   UNL     1      35.425 -23.841 -14.442  0.00  0.00    -0.233 NA
ATOM      5  C   UNL     1      35.570 -21.042 -18.021  0.00  0.00    +0.046 C 
ATOM      6  C   UNL     1      35.937 -22.404 -16.261  0.00  0.00    +0.131 C 
ATOM      7  C   UNL     1      36.565 -21.610 -17.253  0.00  0.00    +0.003 C 
ATOM      8  C   UNL     1      34.566 -22.293 -16.460  0.00  0.00    +0.117 C 
ATOM      9  C   UNL     1      36.351 -23.216 -15.205  0.00  0.00    +0.113 C 
ATOM     10  C   UNL     1      34.124 -23.641 -14.752  0.00  0.00    +0.252 C 
ATOM     11  H   UNL     1      33.482 -21.209 -17.891  0.00  0.00    +0.153 HD
ATOM     12  H   UNL     1      38.377 -22.927 -15.493  0.00  0.00    +0.148 HD
ENDROOT
BRANCH   5  16
ATOM     13  C   UNL     1      35.856 -18.450 -21.342  0.00  0.00    -0.043 C 
ATOM     14  C   UNL     1      36.990 -18.730 -20.588  0.00  0.00    -0.006 C 
ATOM     15  C   UNL     1      34.629 -19.013 -21.014  0.00  0.00    -0.006 C 
ATOM     16  C   UNL     1      35.667 -20.157 -19.156  0.00  0.00    +0.013 C 
ATOM     17  C   UNL     1      36.895 -19.587 -19.492  0.00  0.00    +0.001 C 
ATOM     18  C   UNL     1      34.534 -19.870 -19.917  0.00  0.00    +0.001 C 
BRANCH  13  19
ATOM     19  C   UNL     1      35.957 -17.527 -22.522  0.00  0.00    -0.050 C 
BRANCH  19  20
ATOM     20  N   UNL     1      35.038 -16.396 -22.412  0.00  0.00    +0.387 N 
ATOM     21  N   UNL     1      34.410 -13.575 -22.469  0.00  0.00    +0.384 N 
ATOM     22  C   UNL     1      35.441 -15.503 -21.317  0.00  0.00    -0.100 C 
ATOM     23  C   UNL     1      34.967 -15.656 -23.678  0.00  0.00    -0.100 C 
ATOM     24  C   UNL     1      34.481 -14.314 -21.202  0.00  0.00    -0.101 C 
ATOM     25  C   UNL     1      34.006 -14.468 -23.561  0.00  0.00    -0.101 C 
ATOM     26  H   UNL     1      34.110 -16.764 -22.202  0.00  0.00    -0.079 HD
ATOM     27  H   UNL     1      35.338 -13.208 -22.680  0.00  0.00    -0.080 HD
BRANCH  21  28
ATOM     28  C   UNL     1      33.493 -12.443 -22.358  0.00  0.00    -0.078 C 
ATOM     29  C   UNL     1      34.048 -11.216 -23.061  0.00  0.00    -0.025 C 
ENDBRANCH  21  28
ENDBRANCH  19  20
ENDBRANCH  13  19
ENDBRANCH   5  16
BRANCH   2  30
ATOM     30  C   UNL     1      38.199 -24.212 -13.856  0.00  0.00    +0.093 C 
ATOM     31  C   UNL     1      37.942 -25.679 -14.196  0.00  0.00    +0.026 C 
BRANCH  30  32
ATOM     32  C   UNL     1      37.571 -23.788 -12.546  0.00  0.00    -0.005 C 
ATOM     33  C   UNL     1      37.858 -22.534 -12.034  0.00  0.00    -0.003 C 
ATOM     34  C   UNL     1      36.724 -24.662 -11.887  0.00  0.00    -0.003 C 
ATOM     35  C   UNL     1      37.281 -22.142 -10.827  0.00  0.00    -0.000 C 
ATOM     36  C   UNL     1      36.146 -24.270 -10.680  0.00  0.00    -0.000 C 
ATOM     37  C   UNL     1      36.425 -23.011 -10.150  0.00  0.00    -0.000 C 
ENDBRANCH  30  32
ENDBRANCH   2  30
TORSDOF 6
ENDMDL
MODEL 5
REMARK VINA RESULT:     -11.1      3.708     13.341
REMARK  Name = 10297043
REMARK  6 active torsions:
REMARK  status: ('A' for Active; 'I' for Inactive)
REMARK    1  A    between atoms: N_2  and  C_30
REMARK    2  A    between atoms: C_5  and  C_16
REMARK    3  A    between atoms: C_13  and  C_19
REMARK    4  A    between atoms: C_19  and  N_20
REMARK    5  A    between atoms: N_21  and  C_28
REMARK    6  A    between atoms: C_30  and  C_32
REMARK                            x       y       z     vdW  Elec       q    Type
REMARK                         _______ _______ _______ _____ _____    ______ ____
ROOT
ATOM      1  N   UNL     1      32.556 -12.941 -21.055  0.00  0.00    -0.301 N 
ATOM      2  N   UNL     1      33.921  -9.048 -23.232  0.00  0.00    -0.319 N 
ATOM      3  N   UNL     1      30.991 -11.109 -20.984  0.00  0.00    -0.233 NA
ATOM      4  N   UNL     1      31.796  -9.127 -22.148  0.00  0.00    -0.233 NA
ATOM      5  C   UNL     1      33.800 -13.169 -21.584  0.00  0.00    +0.046 C 
ATOM      6  C   UNL     1      33.172 -11.060 -22.085  0.00  0.00    +0.131 C 
ATOM      7  C   UNL     1      34.207 -12.020 -22.229  0.00  0.00    +0.003 C 
ATOM      8  C   UNL     1      32.159 -11.664 -21.349  0.00  0.00    +0.117 C 
ATOM      9  C   UNL     1      32.954  -9.742 -22.484  0.00  0.00    +0.113 C 
ATOM     10  C   UNL     1      30.899  -9.838 -21.427  0.00  0.00    +0.252 C 
ATOM     11  H   UNL     1      32.030 -13.596 -20.541  0.00  0.00    +0.153 HD
ATOM     12  H   UNL     1      34.757  -9.514 -23.467  0.00  0.00    +0.148 HD
ENDROOT
BRANCH   5  16
ATOM     13  C   UNL     1      35.782 -16.870 -21.132  0.00  0.00    -0.043 C 
ATOM     14  C   UNL     1      35.559 -16.360 -22.407  0.00  0.00    -0.006 C 
ATOM     15  C   UNL     1      35.359 -16.175 -20.006  0.00  0.00    -0.006 C 
ATOM     16  C   UNL     1      34.478 -14.433 -21.429  0.00  0.00    +0.013 C 
ATOM     17  C   UNL     1      34.905 -15.136 -22.555  0.00  0.00    +0.001 C 
ATOM     18  C   UNL     1      34.705 -14.952 -20.155  0.00  0.00    +0.001 C 
BRANCH  13  19
ATOM     19  C   UNL     1      36.486 -18.186 -20.972  0.00  0.00    -0.050 C 
BRANCH  19  20
ATOM     20  N   UNL     1      35.918 -18.980 -19.884  0.00  0.00    +0.387 N 
ATOM     21  N   UNL     1      34.972 -21.453 -18.723  0.00  0.00    +0.384 N 
ATOM     22  C   UNL     1      34.632 -19.567 -20.283  0.00  0.00    -0.100 C 
ATOM     23  C   UNL     1      36.853 -20.030 -19.462  0.00  0.00    -0.100 C 
ATOM     24  C   UNL     1      34.037 -20.403 -19.146  0.00  0.00    -0.101 C 
ATOM     25  C   UNL     1      36.256 -20.865 -18.323  0.00  0.00    -0.101 C 
ATOM     26  H   UNL     1      35.755 -18.357 -19.092  0.00  0.00    -0.079 HD
ATOM     27  H   UNL     1      35.137 -22.075 -19.515  0.00  0.00    -0.080 HD
BRANCH  21  28
ATOM     28  C   UNL     1      34.404 -22.248 -17.637  0.00  0.00    -0.078 C 
ATOM     29  C   UNL     1      32.938 -21.916 -17.422  0.00  0.00    -0.025 C 
ENDBRANCH  21  28
ENDBRANCH  19  20
ENDBRANCH  13  19
ENDBRANCH   5  16
BRANCH   2  30
ATOM     30  C   UNL     1      33.749  -7.695 -23.667  0.00  0.00    +0.093 C 
ATOM     31  C   UNL     1      35.061  -7.189 -24.263  0.00  0.00    +0.026 C 
BRANCH  30  32
ATOM     32  C   UNL     1      33.245  -6.837 -22.527  0.00  0.00    -0.005 C 
ATOM     33  C   UNL     1      33.811  -6.980 -21.272  0.00  0.00    -0.003 C 
ATOM     34  C   UNL     1      32.228  -5.928 -22.763  0.00  0.00    -0.003 C 
ATOM     35  C   UNL     1      33.346  -6.191 -20.221  0.00  0.00    -0.000 C 
ATOM     36  C   UNL     1      31.763  -5.139 -21.712  0.00  0.00    -0.000 C 
ATOM     37  C   UNL     1      32.322  -5.270 -20.441  0.00  0.00    -0.000 C 
ENDBRANCH  30  32
ENDBRANCH   2  30
TORSDOF 6
ENDMDL
MODEL 6
REMARK VINA RESULT:     -11.1      1.992      4.254
REMARK  Name = 10297043
REMARK  6 active torsions:
REMARK  status: ('A' for Active; 'I' for Inactive)
REMARK    1  A    between atoms: N_2  and  C_30
REMARK    2  A    between atoms: C_5  and  C_16
REMARK    3  A    between atoms: C_13  and  C_19
REMARK    4  A    between atoms: C_19  and  N_20
REMARK    5  A    between atoms: N_21  and  C_28
REMARK    6  A    between atoms: C_30  and  C_32
REMARK                            x       y       z     vdW  Elec       q    Type
REMARK                         _______ _______ _______ _____ _____    ______ ____
ROOT
ATOM      1  N   UNL     1      37.039 -20.421 -18.244  0.00  0.00    -0.301 N 
ATOM      2  N   UNL     1      33.792 -22.560 -15.666  0.00  0.00    -0.319 N 
ATOM      3  N   UNL     1      37.856 -21.565 -16.285  0.00  0.00    -0.233 NA
ATOM      4  N   UNL     1      36.086 -22.647 -15.010  0.00  0.00    -0.233 NA
ATOM      5  C   UNL     1      35.823 -20.213 -18.842  0.00  0.00    +0.046 C 
ATOM      6  C   UNL     1      35.517 -21.457 -16.984  0.00  0.00    +0.131 C 
ATOM      7  C   UNL     1      34.860 -20.845 -18.082  0.00  0.00    +0.003 C 
ATOM      8  C   UNL     1      36.871 -21.175 -17.113  0.00  0.00    +0.117 C 
ATOM      9  C   UNL     1      35.140 -22.223 -15.881  0.00  0.00    +0.113 C 
ATOM     10  C   UNL     1      37.367 -22.296 -15.262  0.00  0.00    +0.252 C 
ATOM     11  H   UNL     1      37.901 -20.080 -18.577  0.00  0.00    +0.153 HD
ATOM     12  H   UNL     1      33.120 -22.241 -16.311  0.00  0.00    +0.148 HD
ENDROOT
BRANCH   5  16
ATOM     13  C   UNL     1      35.431 -17.967 -22.395  0.00  0.00    -0.043 C 
ATOM     14  C   UNL     1      36.629 -17.935 -21.690  0.00  0.00    -0.006 C 
ATOM     15  C   UNL     1      34.361 -18.729 -21.943  0.00  0.00    -0.006 C 
ATOM     16  C   UNL     1      35.688 -19.446 -20.056  0.00  0.00    +0.013 C 
ATOM     17  C   UNL     1      36.758 -18.679 -20.516  0.00  0.00    +0.001 C 
ATOM     18  C   UNL     1      34.490 -19.472 -20.769  0.00  0.00    +0.001 C 
BRANCH  13  19
ATOM     19  C   UNL     1      35.291 -17.167 -23.658  0.00  0.00    -0.050 C 
BRANCH  19  20
ATOM     20  N   UNL     1      34.594 -15.903 -23.430  0.00  0.00    +0.387 N 
ATOM     21  N   UNL     1      34.392 -13.021 -23.523  0.00  0.00    +0.384 N 
ATOM     22  C   UNL     1      35.345 -15.055 -22.494  0.00  0.00    -0.100 C 
ATOM     23  C   UNL     1      34.368 -15.195 -24.696  0.00  0.00    -0.100 C 
ATOM     24  C   UNL     1      34.618 -13.728 -22.257  0.00  0.00    -0.101 C 
ATOM     25  C   UNL     1      33.640 -13.868 -24.456  0.00  0.00    -0.101 C 
ATOM     26  H   UNL     1      33.686 -16.115 -23.013  0.00  0.00    -0.079 HD
ATOM     27  H   UNL     1      35.299 -12.810 -23.940  0.00  0.00    -0.080 HD
BRANCH  21  28
ATOM     28  C   UNL     1      33.697 -11.756 -23.295  0.00  0.00    -0.078 C 
ATOM     29  C   UNL     1      34.408 -10.606 -23.988  0.00  0.00    -0.025 C 
ENDBRANCH  21  28
ENDBRANCH  19  20
ENDBRANCH  13  19
ENDBRANCH   5  16
BRANCH   2  30
ATOM     30  C   UNL     1      33.350 -23.342 -14.551  0.00  0.00    +0.093 C 
ATOM     31  C   UNL     1      34.135 -24.652 -14.516  0.00  0.00    +0.026 C 
BRANCH  30  32
ATOM     32  C   UNL     1      31.853 -23.549 -14.615  0.00  0.00    -0.005 C 
ATOM     33  C   UNL     1      31.277 -24.558 -13.862  0.00  0.00    -0.003 C 
ATOM     34  C   UNL     1      31.090 -22.726 -15.425  0.00  0.00    -0.003 C 
ATOM     35  C   UNL     1      29.897 -24.749 -13.920  0.00  0.00    -0.000 C 
ATOM     36  C   UNL     1      29.710 -22.917 -15.484  0.00  0.00    -0.000 C 
ATOM     37  C   UNL     1      29.114 -23.929 -14.732  0.00  0.00    -0.000 C 
ENDBRANCH  30  32
ENDBRANCH   2  30
TORSDOF 6
ENDMDL
MODEL 7
REMARK VINA RESULT:     -10.3      4.922     14.920
REMARK  Name = 10297043
REMARK  6 active torsions:
REMARK  status: ('A' for Active; 'I' for Inactive)
REMARK    1  A    between atoms: N_2  and  C_30
REMARK    2  A    between atoms: C_5  and  C_16
REMARK    3  A    between atoms: C_13  and  C_19
REMARK    4  A    between atoms: C_19  and  N_20
REMARK    5  A    between atoms: N_21  and  C_28
REMARK    6  A    between atoms: C_30  and  C_32
REMARK                            x       y       z     vdW  Elec       q    Type
REMARK                         _______ _______ _______ _____ _____    ______ ____
ROOT
ATOM      1  N   UNL     1      32.809 -10.765 -21.354  0.00  0.00    -0.301 N 
ATOM      2  N   UNL     1      33.341  -7.001 -24.059  0.00  0.00    -0.319 N 
ATOM      3  N   UNL     1      31.888  -8.717 -20.477  0.00  0.00    -0.233 NA
ATOM      4  N   UNL     1      32.217  -6.815 -21.961  0.00  0.00    -0.233 NA
ATOM      5  C   UNL     1      33.481 -11.151 -22.486  0.00  0.00    +0.046 C 
ATOM      6  C   UNL     1      33.043  -8.941 -22.619  0.00  0.00    +0.131 C 
ATOM      7  C   UNL     1      33.639 -10.040 -23.288  0.00  0.00    +0.003 C 
ATOM      8  C   UNL     1      32.536  -9.424 -21.419  0.00  0.00    +0.117 C 
ATOM      9  C   UNL     1      32.862  -7.582 -22.871  0.00  0.00    +0.113 C 
ATOM     10  C   UNL     1      31.777  -7.421 -20.836  0.00  0.00    +0.252 C 
ATOM     11  H   UNL     1      32.562 -11.360 -20.610  0.00  0.00    +0.153 HD
ATOM     12  H   UNL     1      33.807  -7.576 -24.708  0.00  0.00    +0.148 HD
ENDROOT
BRANCH   5  16
ATOM     13  C   UNL     1      34.721 -15.139 -23.102  0.00  0.00    -0.043 C 
ATOM     14  C   UNL     1      34.061 -14.459 -24.119  0.00  0.00    -0.006 C 
ATOM     15  C   UNL     1      34.977 -14.521 -21.884  0.00  0.00    -0.006 C 
ATOM     16  C   UNL     1      33.905 -12.513 -22.696  0.00  0.00    +0.013 C 
ATOM     17  C   UNL     1      33.652 -13.141 -23.915  0.00  0.00    +0.001 C 
ATOM     18  C   UNL     1      34.568 -13.203 -21.681  0.00  0.00    +0.001 C 
BRANCH  13  19
ATOM     19  C   UNL     1      35.161 -16.558 -23.321  0.00  0.00    -0.050 C 
BRANCH  19  20
ATOM     20  N   UNL     1      35.278 -17.294 -22.064  0.00  0.00    +0.387 N 
ATOM     21  N   UNL     1      35.952 -19.631 -20.502  0.00  0.00    +0.384 N 
ATOM     22  C   UNL     1      34.430 -18.492 -22.080  0.00  0.00    -0.100 C 
ATOM     23  C   UNL     1      36.676 -17.658 -21.801  0.00  0.00    -0.100 C 
ATOM     24  C   UNL     1      34.554 -19.268 -20.764  0.00  0.00    -0.101 C 
ATOM     25  C   UNL     1      36.799 -18.433 -20.484  0.00  0.00    -0.101 C 
ATOM     26  H   UNL     1      34.958 -16.684 -21.311  0.00  0.00    -0.079 HD
ATOM     27  H   UNL     1      36.273 -20.240 -21.255  0.00  0.00    -0.080 HD
BRANCH  21  28
ATOM     28  C   UNL     1      36.069 -20.369 -19.246  0.00  0.00    -0.078 C 
ATOM     29  C   UNL     1      34.773 -21.085 -18.906  0.00  0.00    -0.025 C 
ENDBRANCH  21  28
ENDBRANCH  19  20
ENDBRANCH  13  19
ENDBRANCH   5  16
BRANCH   2  30
ATOM     30  C   UNL     1      33.183  -5.612 -24.369  0.00  0.00    +0.093 C 
ATOM     31  C   UNL     1      31.727  -5.345 -24.746  0.00  0.00    +0.026 C 
BRANCH  30  32
ATOM     32  C   UNL     1      34.161  -5.200 -25.447  0.00  0.00    -0.005 C 
ATOM     33  C   UNL     1      35.330  -5.924 -25.611  0.00  0.00    -0.003 C 
ATOM     34  C   UNL     1      33.868  -4.108 -26.246  0.00  0.00    -0.003 C 
ATOM     35  C   UNL     1      36.232  -5.544 -26.604  0.00  0.00    -0.000 C 
ATOM     36  C   UNL     1      34.770  -3.729 -27.239  0.00  0.00    -0.000 C 
ATOM     37  C   UNL     1      35.952  -4.446 -27.418  0.00  0.00    -0.000 C 
ENDBRANCH  30  32
ENDBRANCH   2  30
TORSDOF 6
ENDMDL
