MODEL 1
REMARK VINA RESULT:     -13.7      0.000      0.000
REMARK  Name = 25049750
REMARK  7 active torsions:
REMARK  status: ('A' for Active; 'I' for Inactive)
REMARK    1  A    between atoms: C_1  and  C_14
REMARK    2  A    between atoms: C_6  and  O_20
REMARK    3  A    between atoms: C_10  and  C_17
REMARK    4  A    between atoms: C_17  and  O_18
REMARK    5  A    between atoms: O_20  and  C_21
REMARK    6  A    between atoms: C_21  and  C_23
REMARK    7  A    between atoms: C_27  and  C_32
REMARK                            x       y       z     vdW  Elec       q    Type
REMARK                         _______ _______ _______ _____ _____    ______ ____
ROOT
ATOM      1  C   UNL     1      35.227 -19.379 -20.869  0.00  0.00    -0.004 C 
ATOM      2  C   UNL     1      33.838 -19.324 -20.744  0.00  0.00    +0.000 C 
ATOM      3  C   UNL     1      35.982 -20.096 -19.941  0.00  0.00    +0.000 C 
ATOM      4  C   UNL     1      33.206 -19.986 -19.691  0.00  0.00    +0.037 C 
ATOM      5  C   UNL     1      35.350 -20.758 -18.889  0.00  0.00    +0.037 C 
ATOM      6  C   UNL     1      33.962 -20.704 -18.764  0.00  0.00    +0.139 C 
ENDROOT
BRANCH   1  14
ATOM      7  O   UNL     1      33.951 -16.865 -24.367  0.00  0.00    -0.275 OA
ATOM      8  N   UNL     1      35.050 -18.555 -23.177  0.00  0.00    -0.302 N 
ATOM      9  C   UNL     1      35.364 -16.407 -22.508  0.00  0.00    +0.081 C 
ATOM     10  C   UNL     1      34.605 -15.301 -21.859  0.00  0.00    +0.108 C 
ATOM     11  C   UNL     1      35.708 -15.000 -22.840  0.00  0.00    +0.021 C 
ATOM     12  C   UNL     1      36.306 -17.206 -21.684  0.00  0.00    +0.033 C 
ATOM     13  C   UNL     1      34.688 -17.255 -23.475  0.00  0.00    +0.222 C 
ATOM     14  C   UNL     1      35.912 -18.663 -22.011  0.00  0.00    +0.095 C 
ATOM     15  H   UNL     1      34.753 -19.332 -23.703  0.00  0.00    +0.150 HD
BRANCH  10  17
ATOM     16  O   UNL     1      35.230 -15.704 -19.636  0.00  0.00    -0.250 OA
ATOM     17  C   UNL     1      34.903 -14.904 -20.500  0.00  0.00    +0.314 C 
BRANCH  17  18
ATOM     18  O   UNL     1      34.778 -13.568 -20.307  0.00  0.00    -0.480 OA
ATOM     19  H   UNL     1      34.875 -13.208 -19.448  0.00  0.00    +0.295 HD
ENDBRANCH  17  18
ENDBRANCH  10  17
ENDBRANCH   1  14
BRANCH   6  20
ATOM     20  O   UNL     1      33.341 -21.354 -17.730  0.00  0.00    -0.471 OA
BRANCH  20  21
ATOM     21  C   UNL     1      33.790 -22.670 -17.438  0.00  0.00    +0.229 C 
BRANCH  21  23
ATOM     22  N   UNL     1      33.957 -23.237 -13.200  0.00  0.00    -0.406 NA
ATOM     23  C   UNL     1      33.811 -22.864 -15.954  0.00  0.00    +0.012 C 
ATOM     24  C   UNL     1      32.642 -22.843 -15.180  0.00  0.00    +0.096 C 
ATOM     25  C   UNL     1      35.044 -23.072 -15.351  0.00  0.00    +0.028 C 
ATOM     26  C   UNL     1      32.763 -23.036 -13.788  0.00  0.00    +0.117 C 
ATOM     27  C   UNL     1      35.061 -23.251 -13.982  0.00  0.00    +0.130 C 
ATOM     28  C   UNL     1      31.380 -22.635 -15.762  0.00  0.00    -0.015 C 
ATOM     29  C   UNL     1      31.602 -23.014 -13.022  0.00  0.00    +0.028 C 
ATOM     30  C   UNL     1      30.235 -22.618 -14.971  0.00  0.00    -0.004 C 
ATOM     31  C   UNL     1      30.347 -22.808 -13.599  0.00  0.00    +0.002 C 
BRANCH  27  32
ATOM     32  C   UNL     1      36.301 -23.472 -13.277  0.00  0.00    +0.030 C 
ATOM     33  C   UNL     1      37.251 -24.354 -13.795  0.00  0.00    +0.003 C 
ATOM     34  C   UNL     1      36.551 -22.805 -12.078  0.00  0.00    +0.003 C 
ATOM     35  C   UNL     1      38.450 -24.567 -13.114  0.00  0.00    +0.000 C 
ATOM     36  C   UNL     1      37.750 -23.019 -11.397  0.00  0.00    +0.000 C 
ATOM     37  C   UNL     1      38.699 -23.900 -11.915  0.00  0.00    +0.000 C 
ENDBRANCH  27  32
ENDBRANCH  21  23
ENDBRANCH  20  21
ENDBRANCH   6  20
TORSDOF 7
ENDMDL
MODEL 2
REMARK VINA RESULT:     -13.3      4.737      9.352
REMARK  Name = 25049750
REMARK  7 active torsions:
REMARK  status: ('A' for Active; 'I' for Inactive)
REMARK    1  A    between atoms: C_1  and  C_14
REMARK    2  A    between atoms: C_6  and  O_20
REMARK    3  A    between atoms: C_10  and  C_17
REMARK    4  A    between atoms: C_17  and  O_18
REMARK    5  A    between atoms: O_20  and  C_21
REMARK    6  A    between atoms: C_21  and  C_23
REMARK    7  A    between atoms: C_27  and  C_32
REMARK                            x       y       z     vdW  Elec       q    Type
REMARK                         _______ _______ _______ _____ _____    ______ ____
ROOT
ATOM      1  C   UNL     1      32.477 -10.620 -21.624  0.00  0.00    -0.004 C 
ATOM      2  C   UNL     1      33.430 -11.280 -22.401  0.00  0.00    +0.000 C 
ATOM      3  C   UNL     1      32.082 -11.157 -20.399  0.00  0.00    +0.000 C 
ATOM      4  C   UNL     1      33.988 -12.477 -21.951  0.00  0.00    +0.037 C 
ATOM      5  C   UNL     1      32.640 -12.354 -19.950  0.00  0.00    +0.037 C 
ATOM      6  C   UNL     1      33.594 -13.014 -20.725  0.00  0.00    +0.139 C 
ENDROOT
BRANCH   1  14
ATOM      7  O   UNL     1      32.998  -6.248 -20.725  0.00  0.00    -0.275 OA
ATOM      8  N   UNL     1      31.911  -8.290 -21.088  0.00  0.00    -0.302 N 
ATOM      9  C   UNL     1      33.276  -7.508 -22.725  0.00  0.00    +0.081 C 
ATOM     10  C   UNL     1      34.727  -7.289 -22.981  0.00  0.00    +0.108 C 
ATOM     11  C   UNL     1      33.695  -6.398 -23.621  0.00  0.00    +0.021 C 
ATOM     12  C   UNL     1      32.619  -8.702 -23.313  0.00  0.00    +0.033 C 
ATOM     13  C   UNL     1      32.742  -7.232 -21.402  0.00  0.00    +0.222 C 
ATOM     14  C   UNL     1      31.874  -9.322 -22.111  0.00  0.00    +0.095 C 
ATOM     15  H   UNL     1      31.392  -8.340 -20.252  0.00  0.00    +0.150 HD
BRANCH  10  17
ATOM     16  O   UNL     1      35.528  -7.864 -25.108  0.00  0.00    -0.250 OA
ATOM     17  C   UNL     1      35.443  -8.128 -23.918  0.00  0.00    +0.314 C 
BRANCH  17  18
ATOM     18  O   UNL     1      35.997  -9.215 -23.328  0.00  0.00    -0.480 OA
ATOM     19  H   UNL     1      36.904  -9.212 -23.096  0.00  0.00    +0.295 HD
ENDBRANCH  17  18
ENDBRANCH  10  17
ENDBRANCH   1  14
BRANCH   6  20
ATOM     20  O   UNL     1      34.141 -14.190 -20.284  0.00  0.00    -0.471 OA
BRANCH  20  21
ATOM     21  C   UNL     1      35.317 -14.637 -20.944  0.00  0.00    +0.229 C 
BRANCH  21  23
ATOM     22  N   UNL     1      34.790 -18.720 -22.110  0.00  0.00    -0.406 NA
ATOM     23  C   UNL     1      35.125 -16.054 -21.387  0.00  0.00    +0.012 C 
ATOM     24  C   UNL     1      34.805 -16.386 -22.711  0.00  0.00    +0.096 C 
ATOM     25  C   UNL     1      35.277 -17.051 -20.434  0.00  0.00    +0.028 C 
ATOM     26  C   UNL     1      34.645 -17.750 -23.033  0.00  0.00    +0.117 C 
ATOM     27  C   UNL     1      35.099 -18.357 -20.844  0.00  0.00    +0.130 C 
ATOM     28  C   UNL     1      34.647 -15.399 -23.699  0.00  0.00    -0.015 C 
ATOM     29  C   UNL     1      34.326 -18.078 -24.347  0.00  0.00    +0.028 C 
ATOM     30  C   UNL     1      34.328 -15.756 -25.005  0.00  0.00    -0.004 C 
ATOM     31  C   UNL     1      34.168 -17.098 -25.330  0.00  0.00    +0.002 C 
BRANCH  27  32
ATOM     32  C   UNL     1      35.237 -19.454 -19.916  0.00  0.00    +0.030 C 
ATOM     33  C   UNL     1      36.496 -19.791 -19.417  0.00  0.00    +0.003 C 
ATOM     34  C   UNL     1      34.113 -20.177 -19.517  0.00  0.00    +0.003 C 
ATOM     35  C   UNL     1      36.630 -20.850 -18.519  0.00  0.00    +0.000 C 
ATOM     36  C   UNL     1      34.247 -21.236 -18.619  0.00  0.00    +0.000 C 
ATOM     37  C   UNL     1      35.506 -21.572 -18.121  0.00  0.00    +0.000 C 
ENDBRANCH  27  32
ENDBRANCH  21  23
ENDBRANCH  20  21
ENDBRANCH   6  20
TORSDOF 7
ENDMDL
MODEL 3
REMARK VINA RESULT:     -12.6      1.046      4.104
REMARK  Name = 25049750
REMARK  7 active torsions:
REMARK  status: ('A' for Active; 'I' for Inactive)
REMARK    1  A    between atoms: C_1  and  C_14
REMARK    2  A    between atoms: C_6  and  O_20
REMARK    3  A    between atoms: C_10  and  C_17
REMARK    4  A    between atoms: C_17  and  O_18
REMARK    5  A    between atoms: O_20  and  C_21
REMARK    6  A    between atoms: C_21  and  C_23
REMARK    7  A    between atoms: C_27  and  C_32
REMARK                            x       y       z     vdW  Elec       q    Type
REMARK                         _______ _______ _______ _____ _____    ______ ____
ROOT
ATOM      1  C   UNL     1      35.791 -18.862 -21.093  0.00  0.00    -0.004 C 
ATOM      2  C   UNL     1      34.425 -19.101 -20.929  0.00  0.00    +0.000 C 
ATOM      3  C   UNL     1      36.711 -19.453 -20.227  0.00  0.00    +0.000 C 
ATOM      4  C   UNL     1      33.982 -19.930 -19.899  0.00  0.00    +0.037 C 
ATOM      5  C   UNL     1      36.266 -20.282 -19.198  0.00  0.00    +0.037 C 
ATOM      6  C   UNL     1      34.902 -20.522 -19.033  0.00  0.00    +0.139 C 
ENDROOT
BRANCH   1  14
ATOM      7  O   UNL     1      33.894 -16.463 -24.385  0.00  0.00    -0.275 OA
ATOM      8  N   UNL     1      35.353 -17.965 -23.338  0.00  0.00    -0.302 N 
ATOM      9  C   UNL     1      35.272 -15.838 -22.549  0.00  0.00    +0.081 C 
ATOM     10  C   UNL     1      34.343 -14.939 -21.809  0.00  0.00    +0.108 C 
ATOM     11  C   UNL     1      35.321 -14.374 -22.805  0.00  0.00    +0.021 C 
ATOM     12  C   UNL     1      36.388 -16.478 -21.808  0.00  0.00    +0.033 C 
ATOM     13  C   UNL     1      34.732 -16.748 -23.544  0.00  0.00    +0.222 C 
ATOM     14  C   UNL     1      36.271 -17.964 -22.211  0.00  0.00    +0.095 C 
ATOM     15  H   UNL     1      35.190 -18.756 -23.902  0.00  0.00    +0.150 HD
BRANCH  10  17
ATOM     16  O   UNL     1      35.155 -15.322 -19.643  0.00  0.00    -0.250 OA
ATOM     17  C   UNL     1      34.618 -14.565 -20.438  0.00  0.00    +0.314 C 
BRANCH  17  18
ATOM     18  O   UNL     1      34.218 -13.302 -20.151  0.00  0.00    -0.480 OA
ATOM     19  H   UNL     1      34.831 -12.684 -19.804  0.00  0.00    +0.295 HD
ENDBRANCH  17  18
ENDBRANCH  10  17
ENDBRANCH   1  14
BRANCH   6  20
ATOM     20  O   UNL     1      34.466 -21.336 -18.021  0.00  0.00    -0.471 OA
BRANCH  20  21
ATOM     21  C   UNL     1      35.437 -21.755 -17.072  0.00  0.00    +0.229 C 
BRANCH  21  23
ATOM     22  N   UNL     1      33.359 -23.430 -13.728  0.00  0.00    -0.406 NA
ATOM     23  C   UNL     1      34.743 -22.342 -15.883  0.00  0.00    +0.012 C 
ATOM     24  C   UNL     1      35.426 -22.665 -14.703  0.00  0.00    +0.096 C 
ATOM     25  C   UNL     1      33.376 -22.563 -15.982  0.00  0.00    +0.028 C 
ATOM     26  C   UNL     1      34.684 -23.214 -13.635  0.00  0.00    +0.117 C 
ATOM     27  C   UNL     1      32.737 -23.105 -14.885  0.00  0.00    +0.130 C 
ATOM     28  C   UNL     1      36.809 -22.453 -14.572  0.00  0.00    -0.015 C 
ATOM     29  C   UNL     1      35.364 -23.535 -12.464  0.00  0.00    +0.028 C 
ATOM     30  C   UNL     1      37.463 -22.783 -13.389  0.00  0.00    -0.004 C 
ATOM     31  C   UNL     1      36.739 -23.324 -12.333  0.00  0.00    +0.002 C 
BRANCH  27  32
ATOM     32  C   UNL     1      31.318 -23.366 -14.905  0.00  0.00    +0.030 C 
ATOM     33  C   UNL     1      30.468 -22.545 -15.647  0.00  0.00    +0.003 C 
ATOM     34  C   UNL     1      30.795 -24.440 -14.183  0.00  0.00    +0.003 C 
ATOM     35  C   UNL     1      29.096 -22.798 -15.667  0.00  0.00    +0.000 C 
ATOM     36  C   UNL     1      29.424 -24.693 -14.204  0.00  0.00    +0.000 C 
ATOM     37  C   UNL     1      28.574 -23.871 -14.945  0.00  0.00    +0.000 C 
ENDBRANCH  27  32
ENDBRANCH  21  23
ENDBRANCH  20  21
ENDBRANCH   6  20
TORSDOF 7
ENDMDL
MODEL 4
REMARK VINA RESULT:     -12.5      6.672     13.305
REMARK  Name = 25049750
REMARK  7 active torsions:
REMARK  status: ('A' for Active; 'I' for Inactive)
REMARK    1  A    between atoms: C_1  and  C_14
REMARK    2  A    between atoms: C_6  and  O_20
REMARK    3  A    between atoms: C_10  and  C_17
REMARK    4  A    between atoms: C_17  and  O_18
REMARK    5  A    between atoms: O_20  and  C_21
REMARK    6  A    between atoms: C_21  and  C_23
REMARK    7  A    between atoms: C_27  and  C_32
REMARK                            x       y       z     vdW  Elec       q    Type
REMARK                         _______ _______ _______ _____ _____    ______ ____
ROOT
ATOM      1  C   UNL     1      34.936 -15.008 -21.385  0.00  0.00    -0.004 C 
ATOM      2  C   UNL     1      34.501 -14.548 -20.141  0.00  0.00    +0.000 C 
ATOM      3  C   UNL     1      34.578 -14.322 -22.545  0.00  0.00    +0.000 C 
ATOM      4  C   UNL     1      33.708 -13.404 -20.059  0.00  0.00    +0.037 C 
ATOM      5  C   UNL     1      33.786 -13.178 -22.462  0.00  0.00    +0.037 C 
ATOM      6  C   UNL     1      33.351 -12.718 -21.220  0.00  0.00    +0.139 C 
ENDROOT
BRANCH   1  14
ATOM      7  O   UNL     1      34.352 -19.425 -20.801  0.00  0.00    -0.275 OA
ATOM      8  N   UNL     1      35.318 -17.303 -20.594  0.00  0.00    -0.302 N 
ATOM      9  C   UNL     1      35.041 -18.144 -22.684  0.00  0.00    +0.081 C 
ATOM     10  C   UNL     1      33.945 -18.461 -23.641  0.00  0.00    +0.108 C 
ATOM     11  C   UNL     1      35.221 -19.260 -23.650  0.00  0.00    +0.021 C 
ATOM     12  C   UNL     1      35.817 -16.893 -22.876  0.00  0.00    +0.033 C 
ATOM     13  C   UNL     1      34.843 -18.410 -21.270  0.00  0.00    +0.222 C 
ATOM     14  C   UNL     1      35.797 -16.248 -21.473  0.00  0.00    +0.095 C 
ATOM     15  H   UNL     1      35.332 -17.235 -19.611  0.00  0.00    +0.150 HD
BRANCH  10  17
ATOM     16  O   UNL     1      34.544 -16.798 -25.182  0.00  0.00    -0.250 OA
ATOM     17  C   UNL     1      33.748 -17.655 -24.827  0.00  0.00    +0.314 C 
BRANCH  17  18
ATOM     18  O   UNL     1      32.601 -17.961 -25.482  0.00  0.00    -0.480 OA
ATOM     19  H   UNL     1      31.993 -18.565 -25.105  0.00  0.00    +0.295 HD
ENDBRANCH  17  18
ENDBRANCH  10  17
ENDBRANCH   1  14
BRANCH   6  20
ATOM     20  O   UNL     1      32.572 -11.593 -21.139  0.00  0.00    -0.471 OA
BRANCH  20  21
ATOM     21  C   UNL     1      32.213 -10.973 -22.366  0.00  0.00    +0.229 C 
BRANCH  21  23
ATOM     22  N   UNL     1      34.120  -7.148 -22.570  0.00  0.00    -0.406 NA
ATOM     23  C   UNL     1      32.900  -9.647 -22.467  0.00  0.00    +0.012 C 
ATOM     24  C   UNL     1      33.863  -9.378 -23.449  0.00  0.00    +0.096 C 
ATOM     25  C   UNL     1      32.551  -8.671 -21.544  0.00  0.00    +0.028 C 
ATOM     26  C   UNL     1      34.456  -8.098 -23.464  0.00  0.00    +0.117 C 
ATOM     27  C   UNL     1      33.186  -7.448 -21.639  0.00  0.00    +0.130 C 
ATOM     28  C   UNL     1      34.237 -10.345 -24.397  0.00  0.00    -0.015 C 
ATOM     29  C   UNL     1      35.412  -7.832 -24.439  0.00  0.00    +0.028 C 
ATOM     30  C   UNL     1      35.197 -10.052 -25.361  0.00  0.00    -0.004 C 
ATOM     31  C   UNL     1      35.785  -8.793 -25.382  0.00  0.00    +0.002 C 
BRANCH  27  32
ATOM     32  C   UNL     1      32.882  -6.379 -20.718  0.00  0.00    +0.030 C 
ATOM     33  C   UNL     1      32.978  -6.595 -19.343  0.00  0.00    +0.003 C 
ATOM     34  C   UNL     1      32.492  -5.131 -21.202  0.00  0.00    +0.003 C 
ATOM     35  C   UNL     1      32.684  -5.561 -18.453  0.00  0.00    +0.000 C 
ATOM     36  C   UNL     1      32.199  -4.098 -20.312  0.00  0.00    +0.000 C 
ATOM     37  C   UNL     1      32.294  -4.314 -18.937  0.00  0.00    +0.000 C 
ENDBRANCH  27  32
ENDBRANCH  21  23
ENDBRANCH  20  21
ENDBRANCH   6  20
TORSDOF 7
ENDMDL
MODEL 5
REMARK VINA RESULT:     -11.7      6.651     12.784
REMARK  Name = 25049750
REMARK  7 active torsions:
REMARK  status: ('A' for Active; 'I' for Inactive)
REMARK    1  A    between atoms: C_1  and  C_14
REMARK    2  A    between atoms: C_6  and  O_20
REMARK    3  A    between atoms: C_10  and  C_17
REMARK    4  A    between atoms: C_17  and  O_18
REMARK    5  A    between atoms: O_20  and  C_21
REMARK    6  A    between atoms: C_21  and  C_23
REMARK    7  A    between atoms: C_27  and  C_32
REMARK                            x       y       z     vdW  Elec       q    Type
REMARK                         _______ _______ _______ _____ _____    ______ ____
ROOT
ATOM      1  C   UNL     1      34.533 -14.786 -21.176  0.00  0.00    -0.004 C 
ATOM      2  C   UNL     1      33.902 -14.495 -19.966  0.00  0.00    +0.000 C 
ATOM      3  C   UNL     1      34.179 -14.090 -22.332  0.00  0.00    +0.000 C 
ATOM      4  C   UNL     1      32.917 -13.510 -19.912  0.00  0.00    +0.037 C 
ATOM      5  C   UNL     1      33.193 -13.104 -22.277  0.00  0.00    +0.037 C 
ATOM      6  C   UNL     1      32.563 -12.813 -21.068  0.00  0.00    +0.139 C 
ENDROOT
BRANCH   1  14
ATOM      7  O   UNL     1      34.738 -19.226 -20.518  0.00  0.00    -0.275 OA
ATOM      8  N   UNL     1      35.308 -16.962 -20.340  0.00  0.00    -0.302 N 
ATOM      9  C   UNL     1      35.212 -17.874 -22.417  0.00  0.00    +0.081 C 
ATOM     10  C   UNL     1      34.202 -18.396 -23.379  0.00  0.00    +0.108 C 
ATOM     11  C   UNL     1      35.600 -18.955 -23.360  0.00  0.00    +0.021 C 
ATOM     12  C   UNL     1      35.755 -16.507 -22.624  0.00  0.00    +0.033 C 
ATOM     13  C   UNL     1      35.047 -18.147 -21.000  0.00  0.00    +0.222 C 
ATOM     14  C   UNL     1      35.602 -15.854 -21.234  0.00  0.00    +0.095 C 
ATOM     15  H   UNL     1      35.297 -16.877 -19.359  0.00  0.00    +0.150 HD
BRANCH  10  17
ATOM     16  O   UNL     1      34.567 -16.736 -24.993  0.00  0.00    -0.250 OA
ATOM     17  C   UNL     1      33.879 -17.658 -24.581  0.00  0.00    +0.314 C 
BRANCH  17  18
ATOM     18  O   UNL     1      32.749 -18.105 -25.181  0.00  0.00    -0.480 OA
ATOM     19  H   UNL     1      32.801 -18.749 -25.858  0.00  0.00    +0.295 HD
ENDBRANCH  17  18
ENDBRANCH  10  17
ENDBRANCH   1  14
BRANCH   6  20
ATOM     20  O   UNL     1      31.594 -11.844 -21.015  0.00  0.00    -0.471 OA
BRANCH  20  21
ATOM     21  C   UNL     1      31.835 -10.744 -20.149  0.00  0.00    +0.229 C 
BRANCH  21  23
ATOM     22  N   UNL     1      33.744  -7.669 -22.430  0.00  0.00    -0.406 NA
ATOM     23  C   UNL     1      32.492  -9.644 -20.921  0.00  0.00    +0.012 C 
ATOM     24  C   UNL     1      32.482  -8.313 -20.481  0.00  0.00    +0.096 C 
ATOM     25  C   UNL     1      33.126  -9.981 -22.108  0.00  0.00    +0.028 C 
ATOM     26  C   UNL     1      33.129  -7.345 -21.277  0.00  0.00    +0.117 C 
ATOM     27  C   UNL     1      33.732  -8.965 -22.819  0.00  0.00    +0.130 C 
ATOM     28  C   UNL     1      31.849  -7.939 -19.282  0.00  0.00    -0.015 C 
ATOM     29  C   UNL     1      33.117  -6.024 -20.839  0.00  0.00    +0.028 C 
ATOM     30  C   UNL     1      31.853  -6.611 -18.869  0.00  0.00    -0.004 C 
ATOM     31  C   UNL     1      32.489  -5.652 -19.648  0.00  0.00    +0.002 C 
BRANCH  27  32
ATOM     32  C   UNL     1      34.412  -9.231 -24.064  0.00  0.00    +0.030 C 
ATOM     33  C   UNL     1      35.451  -8.400 -24.483  0.00  0.00    +0.003 C 
ATOM     34  C   UNL     1      34.030 -10.318 -24.849  0.00  0.00    +0.003 C 
ATOM     35  C   UNL     1      36.109  -8.657 -25.686  0.00  0.00    +0.000 C 
ATOM     36  C   UNL     1      34.688 -10.576 -26.052  0.00  0.00    +0.000 C 
ATOM     37  C   UNL     1      35.727  -9.745 -26.470  0.00  0.00    +0.000 C 
ENDBRANCH  27  32
ENDBRANCH  21  23
ENDBRANCH  20  21
ENDBRANCH   6  20
TORSDOF 7
ENDMDL
MODEL 6
REMARK VINA RESULT:     -11.5      5.086      9.632
REMARK  Name = 25049750
REMARK  7 active torsions:
REMARK  status: ('A' for Active; 'I' for Inactive)
REMARK    1  A    between atoms: C_1  and  C_14
REMARK    2  A    between atoms: C_6  and  O_20
REMARK    3  A    between atoms: C_10  and  C_17
REMARK    4  A    between atoms: C_17  and  O_18
REMARK    5  A    between atoms: O_20  and  C_21
REMARK    6  A    between atoms: C_21  and  C_23
REMARK    7  A    between atoms: C_27  and  C_32
REMARK                            x       y       z     vdW  Elec       q    Type
REMARK                         _______ _______ _______ _____ _____    ______ ____
ROOT
ATOM      1  C   UNL     1      33.569  -9.978 -22.602  0.00  0.00    -0.004 C 
ATOM      2  C   UNL     1      32.709 -10.402 -21.587  0.00  0.00    +0.000 C 
ATOM      3  C   UNL     1      34.485 -10.871 -23.158  0.00  0.00    +0.000 C 
ATOM      4  C   UNL     1      32.768 -11.718 -21.129  0.00  0.00    +0.037 C 
ATOM      5  C   UNL     1      34.542 -12.187 -22.699  0.00  0.00    +0.037 C 
ATOM      6  C   UNL     1      33.683 -12.612 -21.686  0.00  0.00    +0.139 C 
ENDROOT
BRANCH   1  14
ATOM      7  O   UNL     1      30.432  -6.776 -22.911  0.00  0.00    -0.275 OA
ATOM      8  N   UNL     1      32.173  -8.200 -23.563  0.00  0.00    -0.302 N 
ATOM      9  C   UNL     1      32.512  -6.862 -21.760  0.00  0.00    +0.081 C 
ATOM     10  C   UNL     1      32.047  -6.720 -20.352  0.00  0.00    +0.108 C 
ATOM     11  C   UNL     1      32.473  -5.511 -21.142  0.00  0.00    +0.021 C 
ATOM     12  C   UNL     1      33.828  -7.501 -22.016  0.00  0.00    +0.033 C 
ATOM     13  C   UNL     1      31.555  -7.238 -22.786  0.00  0.00    +0.222 C 
ATOM     14  C   UNL     1      33.505  -8.552 -23.099  0.00  0.00    +0.095 C 
ATOM     15  H   UNL     1      31.751  -8.606 -24.355  0.00  0.00    +0.150 HD
BRANCH  10  17
ATOM     16  O   UNL     1      33.708  -6.233 -18.771  0.00  0.00    -0.250 OA
ATOM     17  C   UNL     1      32.928  -7.042 -19.250  0.00  0.00    +0.314 C 
BRANCH  17  18
ATOM     18  O   UNL     1      32.783  -8.320 -18.823  0.00  0.00    -0.480 OA
ATOM     19  H   UNL     1      32.557  -8.494 -17.931  0.00  0.00    +0.295 HD
ENDBRANCH  17  18
ENDBRANCH  10  17
ENDBRANCH   1  14
BRANCH   6  20
ATOM     20  O   UNL     1      33.740 -13.905 -21.235  0.00  0.00    -0.471 OA
BRANCH  20  21
ATOM     21  C   UNL     1      35.029 -14.498 -21.152  0.00  0.00    +0.229 C 
BRANCH  21  23
ATOM     22  N   UNL     1      34.795 -18.628 -22.247  0.00  0.00    -0.406 NA
ATOM     23  C   UNL     1      34.938 -15.933 -21.570  0.00  0.00    +0.012 C 
ATOM     24  C   UNL     1      34.613 -16.310 -22.880  0.00  0.00    +0.096 C 
ATOM     25  C   UNL     1      35.189 -16.899 -20.607  0.00  0.00    +0.028 C 
ATOM     26  C   UNL     1      34.552 -17.687 -23.179  0.00  0.00    +0.117 C 
ATOM     27  C   UNL     1      35.104 -18.222 -20.995  0.00  0.00    +0.130 C 
ATOM     28  C   UNL     1      34.355 -15.354 -23.878  0.00  0.00    -0.015 C 
ATOM     29  C   UNL     1      34.230 -18.060 -24.481  0.00  0.00    +0.028 C 
ATOM     30  C   UNL     1      34.034 -15.756 -25.171  0.00  0.00    -0.004 C 
ATOM     31  C   UNL     1      33.972 -17.111 -25.473  0.00  0.00    +0.002 C 
BRANCH  27  32
ATOM     32  C   UNL     1      35.350 -19.289 -20.054  0.00  0.00    +0.030 C 
ATOM     33  C   UNL     1      34.290 -20.072 -19.595  0.00  0.00    +0.003 C 
ATOM     34  C   UNL     1      36.646 -19.538 -19.604  0.00  0.00    +0.003 C 
ATOM     35  C   UNL     1      34.527 -21.105 -18.687  0.00  0.00    +0.000 C 
ATOM     36  C   UNL     1      36.883 -20.570 -18.696  0.00  0.00    +0.000 C 
ATOM     37  C   UNL     1      35.823 -21.353 -18.237  0.00  0.00    +0.000 C 
ENDBRANCH  27  32
ENDBRANCH  21  23
ENDBRANCH  20  21
ENDBRANCH   6  20
TORSDOF 7
ENDMDL
MODEL 7
REMARK VINA RESULT:     -11.5      5.234     12.740
REMARK  Name = 25049750
REMARK  7 active torsions:
REMARK  status: ('A' for Active; 'I' for Inactive)
REMARK    1  A    between atoms: C_1  and  C_14
REMARK    2  A    between atoms: C_6  and  O_20
REMARK    3  A    between atoms: C_10  and  C_17
REMARK    4  A    between atoms: C_17  and  O_18
REMARK    5  A    between atoms: O_20  and  C_21
REMARK    6  A    between atoms: C_21  and  C_23
REMARK    7  A    between atoms: C_27  and  C_32
REMARK                            x       y       z     vdW  Elec       q    Type
REMARK                         _______ _______ _______ _____ _____    ______ ____
ROOT
ATOM      1  C   UNL     1      35.409 -16.329 -21.582  0.00  0.00    -0.004 C 
ATOM      2  C   UNL     1      35.165 -15.886 -20.281  0.00  0.00    +0.000 C 
ATOM      3  C   UNL     1      35.018 -15.549 -22.669  0.00  0.00    +0.000 C 
ATOM      4  C   UNL     1      34.529 -14.663 -20.070  0.00  0.00    +0.037 C 
ATOM      5  C   UNL     1      34.382 -14.326 -22.457  0.00  0.00    +0.037 C 
ATOM      6  C   UNL     1      34.138 -13.882 -21.157  0.00  0.00    +0.139 C 
ENDROOT
BRANCH   1  14
ATOM      7  O   UNL     1      37.477 -19.405 -19.041  0.00  0.00    -0.275 OA
ATOM      8  N   UNL     1      37.122 -17.913 -20.810  0.00  0.00    -0.302 N 
ATOM      9  C   UNL     1      35.568 -19.530 -20.457  0.00  0.00    +0.081 C 
ATOM     10  C   UNL     1      34.520 -19.896 -19.463  0.00  0.00    +0.108 C 
ATOM     11  C   UNL     1      35.237 -20.964 -20.246  0.00  0.00    +0.021 C 
ATOM     12  C   UNL     1      35.155 -18.872 -21.722  0.00  0.00    +0.033 C 
ATOM     13  C   UNL     1      36.828 -18.981 -19.985  0.00  0.00    +0.222 C 
ATOM     14  C   UNL     1      36.100 -17.655 -21.811  0.00  0.00    +0.095 C 
ATOM     15  H   UNL     1      37.945 -17.378 -20.728  0.00  0.00    +0.150 HD
BRANCH  10  17
ATOM     16  O   UNL     1      32.729 -19.378 -20.885  0.00  0.00    -0.250 OA
ATOM     17  C   UNL     1      33.117 -19.767 -19.793  0.00  0.00    +0.314 C 
BRANCH  17  18
ATOM     18  O   UNL     1      32.305 -20.123 -18.769  0.00  0.00    -0.480 OA
ATOM     19  H   UNL     1      32.136 -19.520 -18.073  0.00  0.00    +0.295 HD
ENDBRANCH  17  18
ENDBRANCH  10  17
ENDBRANCH   1  14
BRANCH   6  20
ATOM     20  O   UNL     1      33.513 -12.680 -20.949  0.00  0.00    -0.471 OA
BRANCH  20  21
ATOM     21  C   UNL     1      32.692 -12.194 -22.002  0.00  0.00    +0.229 C 
BRANCH  21  23
ATOM     22  N   UNL     1      33.781  -8.142 -22.841  0.00  0.00    -0.406 NA
ATOM     23  C   UNL     1      33.090 -10.788 -22.327  0.00  0.00    +0.012 C 
ATOM     24  C   UNL     1      33.801 -10.463 -23.490  0.00  0.00    +0.096 C 
ATOM     25  C   UNL     1      32.728  -9.794 -21.429  0.00  0.00    +0.028 C 
ATOM     26  C   UNL     1      34.130  -9.109 -23.710  0.00  0.00    +0.117 C 
ATOM     27  C   UNL     1      33.095  -8.498 -21.731  0.00  0.00    +0.130 C 
ATOM     28  C   UNL     1      34.181 -11.447 -24.419  0.00  0.00    -0.015 C 
ATOM     29  C   UNL     1      34.837  -8.788 -24.865  0.00  0.00    +0.028 C 
ATOM     30  C   UNL     1      34.887 -11.097 -25.566  0.00  0.00    -0.004 C 
ATOM     31  C   UNL     1      35.215  -9.765 -25.789  0.00  0.00    +0.002 C 
BRANCH  27  32
ATOM     32  C   UNL     1      32.759  -7.405 -20.849  0.00  0.00    +0.030 C 
ATOM     33  C   UNL     1      32.657  -7.623 -19.475  0.00  0.00    +0.003 C 
ATOM     34  C   UNL     1      32.535  -6.131 -21.371  0.00  0.00    +0.003 C 
ATOM     35  C   UNL     1      32.333  -6.568 -18.623  0.00  0.00    +0.000 C 
ATOM     36  C   UNL     1      32.210  -5.076 -20.519  0.00  0.00    +0.000 C 
ATOM     37  C   UNL     1      32.108  -5.294 -19.145  0.00  0.00    +0.000 C 
ENDBRANCH  27  32
ENDBRANCH  21  23
ENDBRANCH  20  21
ENDBRANCH   6  20
TORSDOF 7
ENDMDL
MODEL 8
REMARK VINA RESULT:     -11.3      5.310     12.254
REMARK  Name = 25049750
REMARK  7 active torsions:
REMARK  status: ('A' for Active; 'I' for Inactive)
REMARK    1  A    between atoms: C_1  and  C_14
REMARK    2  A    between atoms: C_6  and  O_20
REMARK    3  A    between atoms: C_10  and  C_17
REMARK    4  A    between atoms: C_17  and  O_18
REMARK    5  A    between atoms: O_20  and  C_21
REMARK    6  A    between atoms: C_21  and  C_23
REMARK    7  A    between atoms: C_27  and  C_32
REMARK                            x       y       z     vdW  Elec       q    Type
REMARK                         _______ _______ _______ _____ _____    ______ ____
ROOT
ATOM      1  C   UNL     1      35.460 -16.844 -22.936  0.00  0.00    -0.004 C 
ATOM      2  C   UNL     1      35.377 -15.774 -22.044  0.00  0.00    +0.000 C 
ATOM      3  C   UNL     1      34.808 -16.777 -24.168  0.00  0.00    +0.000 C 
ATOM      4  C   UNL     1      34.643 -14.638 -22.384  0.00  0.00    +0.037 C 
ATOM      5  C   UNL     1      34.074 -15.640 -24.507  0.00  0.00    +0.037 C 
ATOM      6  C   UNL     1      33.992 -14.570 -23.616  0.00  0.00    +0.139 C 
ENDROOT
BRANCH   1  14
ATOM      7  O   UNL     1      37.399 -18.477 -19.226  0.00  0.00    -0.275 OA
ATOM      8  N   UNL     1      37.165 -17.820 -21.461  0.00  0.00    -0.302 N 
ATOM      9  C   UNL     1      35.688 -19.336 -20.639  0.00  0.00    +0.081 C 
ATOM     10  C   UNL     1      34.553 -19.403 -19.677  0.00  0.00    +0.108 C 
ATOM     11  C   UNL     1      35.427 -20.607 -19.914  0.00  0.00    +0.021 C 
ATOM     12  C   UNL     1      35.389 -19.259 -22.092  0.00  0.00    +0.033 C 
ATOM     13  C   UNL     1      36.843 -18.518 -20.313  0.00  0.00    +0.222 C 
ATOM     14  C   UNL     1      36.257 -18.075 -22.568  0.00  0.00    +0.095 C 
ATOM     15  H   UNL     1      37.936 -17.211 -21.524  0.00  0.00    +0.150 HD
BRANCH  10  17
ATOM     16  O   UNL     1      32.853 -19.258 -21.285  0.00  0.00    -0.250 OA
ATOM     17  C   UNL     1      33.194 -19.560 -20.151  0.00  0.00    +0.314 C 
BRANCH  17  18
ATOM     18  O   UNL     1      32.368 -20.074 -19.208  0.00  0.00    -0.480 OA
ATOM     19  H   UNL     1      32.713 -20.350 -18.383  0.00  0.00    +0.295 HD
ENDBRANCH  17  18
ENDBRANCH  10  17
ENDBRANCH   1  14
BRANCH   6  20
ATOM     20  O   UNL     1      33.270 -13.454 -23.950  0.00  0.00    -0.471 OA
BRANCH  20  21
ATOM     21  C   UNL     1      33.965 -12.424 -24.639  0.00  0.00    +0.229 C 
BRANCH  21  23
ATOM     22  N   UNL     1      33.590  -8.835 -22.340  0.00  0.00    -0.406 NA
ATOM     23  C   UNL     1      33.856 -11.151 -23.859  0.00  0.00    +0.012 C 
ATOM     24  C   UNL     1      34.491  -9.969 -24.265  0.00  0.00    +0.096 C 
ATOM     25  C   UNL     1      33.092 -11.170 -22.701  0.00  0.00    +0.028 C 
ATOM     26  C   UNL     1      34.329  -8.819 -23.465  0.00  0.00    +0.117 C 
ATOM     27  C   UNL     1      32.993  -9.995 -21.983  0.00  0.00    +0.130 C 
ATOM     28  C   UNL     1      35.270  -9.918 -25.434  0.00  0.00    -0.015 C 
ATOM     29  C   UNL     1      34.961  -7.647 -23.869  0.00  0.00    +0.028 C 
ATOM     30  C   UNL     1      35.891  -8.732 -25.814  0.00  0.00    -0.004 C 
ATOM     31  C   UNL     1      35.736  -7.595 -25.031  0.00  0.00    +0.002 C 
BRANCH  27  32
ATOM     32  C   UNL     1      32.219  -9.930 -20.766  0.00  0.00    +0.030 C 
ATOM     33  C   UNL     1      32.531  -8.983 -19.791  0.00  0.00    +0.003 C 
ATOM     34  C   UNL     1      31.159 -10.814 -20.565  0.00  0.00    +0.003 C 
ATOM     35  C   UNL     1      31.783  -8.919 -18.615  0.00  0.00    +0.000 C 
ATOM     36  C   UNL     1      30.411 -10.750 -19.390  0.00  0.00    +0.000 C 
ATOM     37  C   UNL     1      30.724  -9.803 -18.414  0.00  0.00    +0.000 C 
ENDBRANCH  27  32
ENDBRANCH  21  23
ENDBRANCH  20  21
ENDBRANCH   6  20
TORSDOF 7
ENDMDL
MODEL 9
REMARK VINA RESULT:     -11.3      5.223     12.243
REMARK  Name = 25049750
REMARK  7 active torsions:
REMARK  status: ('A' for Active; 'I' for Inactive)
REMARK    1  A    between atoms: C_1  and  C_14
REMARK    2  A    between atoms: C_6  and  O_20
REMARK    3  A    between atoms: C_10  and  C_17
REMARK    4  A    between atoms: C_17  and  O_18
REMARK    5  A    between atoms: O_20  and  C_21
REMARK    6  A    between atoms: C_21  and  C_23
REMARK    7  A    between atoms: C_27  and  C_32
REMARK                            x       y       z     vdW  Elec       q    Type
REMARK                         _______ _______ _______ _____ _____    ______ ____
ROOT
ATOM      1  C   UNL     1      35.556 -16.783 -22.500  0.00  0.00    -0.004 C 
ATOM      2  C   UNL     1      35.361 -15.873 -21.459  0.00  0.00    +0.000 C 
ATOM      3  C   UNL     1      34.999 -16.536 -23.755  0.00  0.00    +0.000 C 
ATOM      4  C   UNL     1      34.608 -14.719 -21.674  0.00  0.00    +0.037 C 
ATOM      5  C   UNL     1      34.246 -15.381 -23.969  0.00  0.00    +0.037 C 
ATOM      6  C   UNL     1      34.052 -14.472 -22.929  0.00  0.00    +0.139 C 
ENDROOT
BRANCH   1  14
ATOM      7  O   UNL     1      37.471 -18.812 -18.978  0.00  0.00    -0.275 OA
ATOM      8  N   UNL     1      37.258 -17.897 -21.123  0.00  0.00    -0.302 N 
ATOM      9  C   UNL     1      35.799 -19.527 -20.514  0.00  0.00    +0.081 C 
ATOM     10  C   UNL     1      34.652 -19.731 -19.587  0.00  0.00    +0.108 C 
ATOM     11  C   UNL     1      35.554 -20.880 -19.950  0.00  0.00    +0.021 C 
ATOM     12  C   UNL     1      35.521 -19.282 -21.952  0.00  0.00    +0.033 C 
ATOM     13  C   UNL     1      36.933 -18.732 -20.071  0.00  0.00    +0.222 C 
ATOM     14  C   UNL     1      36.373 -18.034 -22.267  0.00  0.00    +0.095 C 
ATOM     15  H   UNL     1      38.017 -17.269 -21.099  0.00  0.00    +0.150 HD
BRANCH  10  17
ATOM     16  O   UNL     1      32.891 -19.187 -21.037  0.00  0.00    -0.250 OA
ATOM     17  C   UNL     1      33.304 -19.855 -20.100  0.00  0.00    +0.314 C 
BRANCH  17  18
ATOM     18  O   UNL     1      32.574 -20.782 -19.433  0.00  0.00    -0.480 OA
ATOM     19  H   UNL     1      32.849 -21.677 -19.423  0.00  0.00    +0.295 HD
ENDBRANCH  17  18
ENDBRANCH  10  17
ENDBRANCH   1  14
BRANCH   6  20
ATOM     20  O   UNL     1      33.312 -13.337 -23.140  0.00  0.00    -0.471 OA
BRANCH  20  21
ATOM     21  C   UNL     1      32.587 -12.829 -22.028  0.00  0.00    +0.229 C 
BRANCH  21  23
ATOM     22  N   UNL     1      33.314  -8.618 -21.810  0.00  0.00    -0.406 NA
ATOM     23  C   UNL     1      32.823 -11.355 -21.920  0.00  0.00    +0.012 C 
ATOM     24  C   UNL     1      32.342 -10.599 -20.841  0.00  0.00    +0.096 C 
ATOM     25  C   UNL     1      33.544 -10.743 -22.935  0.00  0.00    +0.028 C 
ATOM     26  C   UNL     1      32.615  -9.215 -20.827  0.00  0.00    +0.117 C 
ATOM     27  C   UNL     1      33.760  -9.383 -22.833  0.00  0.00    +0.130 C 
ATOM     28  C   UNL     1      31.609 -11.190 -19.798  0.00  0.00    -0.015 C 
ATOM     29  C   UNL     1      32.137  -8.466 -19.756  0.00  0.00    +0.028 C 
ATOM     30  C   UNL     1      31.143 -10.416 -18.739  0.00  0.00    -0.004 C 
ATOM     31  C   UNL     1      31.408  -9.052 -18.718  0.00  0.00    +0.002 C 
BRANCH  27  32
ATOM     32  C   UNL     1      34.501  -8.670 -23.846  0.00  0.00    +0.030 C 
ATOM     33  C   UNL     1      35.246  -9.375 -24.792  0.00  0.00    +0.003 C 
ATOM     34  C   UNL     1      34.472  -7.276 -23.880  0.00  0.00    +0.003 C 
ATOM     35  C   UNL     1      35.961  -8.686 -25.771  0.00  0.00    +0.000 C 
ATOM     36  C   UNL     1      35.187  -6.587 -24.860  0.00  0.00    +0.000 C 
ATOM     37  C   UNL     1      35.932  -7.292 -25.805  0.00  0.00    +0.000 C 
ENDBRANCH  27  32
ENDBRANCH  21  23
ENDBRANCH  20  21
ENDBRANCH   6  20
TORSDOF 7
ENDMDL
