MODEL 1
REMARK VINA RESULT:     -12.2      0.000      0.000
REMARK  Name = 17758361
REMARK  5 active torsions:
REMARK  status: ('A' for Active; 'I' for Inactive)
REMARK    1  A    between atoms: N_1  and  C_18
REMARK    2  A    between atoms: C_4  and  C_10
REMARK    3  A    between atoms: C_10  and  C_11
REMARK    4  A    between atoms: C_18  and  C_19
REMARK    5  A    between atoms: C_22  and  C_27
REMARK                            x       y       z     vdW  Elec       q    Type
REMARK                         _______ _______ _______ _____ _____    ______ ____
ROOT
ATOM      1  N   UNL     1      35.631 -17.501 -23.060  0.00  0.00    -0.314 N 
ATOM      2  N   UNL     1      34.350 -16.645 -24.839  0.00  0.00    -0.229 NA
ATOM      3  C   UNL     1      34.926 -16.455 -23.631  0.00  0.00    +0.129 C 
ATOM      4  C   UNL     1      34.157 -14.210 -23.481  0.00  0.00    +0.043 C 
ATOM      5  C   UNL     1      34.860 -15.269 -22.918  0.00  0.00    +0.037 C 
ATOM      6  C   UNL     1      33.550 -14.367 -24.722  0.00  0.00    +0.024 C 
ATOM      7  C   UNL     1      33.675 -15.593 -25.355  0.00  0.00    +0.100 C 
ATOM      8  H   UNL     1      35.685 -18.350 -23.555  0.00  0.00    +0.149 HD
ENDROOT
BRANCH   4  10
ATOM      9  O   UNL     1      34.642 -11.938 -23.206  0.00  0.00    -0.287 OA
ATOM     10  C   UNL     1      34.056 -12.942 -22.775  0.00  0.00    +0.196 C 
BRANCH  10  11
ATOM     11  C   UNL     1      33.258 -12.785 -21.521  0.00  0.00    +0.039 C 
ATOM     12  C   UNL     1      32.454 -11.659 -21.343  0.00  0.00    -0.001 C 
ATOM     13  C   UNL     1      31.709 -11.513 -20.173  0.00  0.00    -0.022 C 
ATOM     14  C   UNL     1      33.317 -13.764 -20.531  0.00  0.00    +0.003 C 
ATOM     15  C   UNL     1      31.767 -12.493 -19.182  0.00  0.00    -0.004 C 
ATOM     16  C   UNL     1      32.571 -13.618 -19.361  0.00  0.00    -0.000 C 
ATOM     17  C   UNL     1      30.846 -10.311 -19.983  0.00  0.00    +0.031 C 
ENDBRANCH  10  11
ENDBRANCH   4  10
BRANCH   1  18
ATOM     18  C   UNL     1      36.290 -17.414 -21.775  0.00  0.00    +0.115 C 
BRANCH  18  19
ATOM     19  C   UNL     1      35.798 -18.476 -20.850  0.00  0.00    -0.003 C 
ATOM     20  C   UNL     1      36.702 -19.173 -20.048  0.00  0.00    -0.003 C 
ATOM     21  C   UNL     1      34.437 -18.774 -20.789  0.00  0.00    -0.003 C 
ATOM     22  C   UNL     1      34.882 -20.465 -19.122  0.00  0.00    +0.031 C 
ATOM     23  C   UNL     1      36.243 -20.168 -19.184  0.00  0.00    +0.002 C 
ATOM     24  C   UNL     1      33.979 -19.768 -19.925  0.00  0.00    +0.002 C 
BRANCH  22  27
ATOM     25  N   UNL     1      33.084 -21.943 -18.257  0.00  0.00    -0.343 N 
ATOM     26  N   UNL     1      35.232 -22.042 -17.344  0.00  0.00    -0.285 NA
ATOM     27  C   UNL     1      34.405 -21.502 -18.221  0.00  0.00    +0.117 C 
ATOM     28  H   UNL     1      32.782 -22.646 -17.638  0.00  0.00    +0.144 HD
ATOM     29  H   UNL     1      32.451 -21.550 -18.902  0.00  0.00    +0.144 HD
ATOM     30  H   UNL     1      34.912 -22.745 -16.733  0.00  0.00    +0.188 HD
ENDBRANCH  22  27
ENDBRANCH  18  19
ENDBRANCH   1  18
TORSDOF 5
ENDMDL
MODEL 2
REMARK VINA RESULT:     -12.1      5.220     10.627
REMARK  Name = 17758361
REMARK  5 active torsions:
REMARK  status: ('A' for Active; 'I' for Inactive)
REMARK    1  A    between atoms: N_1  and  C_18
REMARK    2  A    between atoms: C_4  and  C_10
REMARK    3  A    between atoms: C_10  and  C_11
REMARK    4  A    between atoms: C_18  and  C_19
REMARK    5  A    between atoms: C_22  and  C_27
REMARK                            x       y       z     vdW  Elec       q    Type
REMARK                         _______ _______ _______ _____ _____    ______ ____
ROOT
ATOM      1  N   UNL     1      32.820 -22.087 -17.948  0.00  0.00    -0.314 N 
ATOM      2  N   UNL     1      31.171 -22.127 -16.269  0.00  0.00    -0.229 NA
ATOM      3  C   UNL     1      32.461 -22.306 -16.629  0.00  0.00    +0.129 C 
ATOM      4  C   UNL     1      33.118 -22.918 -14.427  0.00  0.00    +0.043 C 
ATOM      5  C   UNL     1      33.464 -22.696 -15.755  0.00  0.00    +0.037 C 
ATOM      6  C   UNL     1      31.800 -22.745 -14.019  0.00  0.00    +0.024 C 
ATOM      7  C   UNL     1      30.872 -22.351 -14.970  0.00  0.00    +0.100 C 
ATOM      8  H   UNL     1      32.118 -21.809 -18.580  0.00  0.00    +0.149 HD
ENDROOT
BRANCH   4  10
ATOM      9  O   UNL     1      33.806 -23.657 -12.317  0.00  0.00    -0.287 OA
ATOM     10  C   UNL     1      34.131 -23.329 -13.467  0.00  0.00    +0.196 C 
BRANCH  10  11
ATOM     11  C   UNL     1      35.585 -23.377 -13.808  0.00  0.00    +0.039 C 
ATOM     12  C   UNL     1      36.354 -24.479 -13.433  0.00  0.00    -0.001 C 
ATOM     13  C   UNL     1      37.710 -24.524 -13.752  0.00  0.00    -0.022 C 
ATOM     14  C   UNL     1      36.172 -22.321 -14.503  0.00  0.00    +0.003 C 
ATOM     15  C   UNL     1      38.298 -23.467 -14.448  0.00  0.00    -0.004 C 
ATOM     16  C   UNL     1      37.529 -22.366 -14.824  0.00  0.00    -0.000 C 
ATOM     17  C   UNL     1      38.532 -25.703 -13.354  0.00  0.00    +0.031 C 
ENDBRANCH  10  11
ENDBRANCH   4  10
BRANCH   1  18
ATOM     18  C   UNL     1      34.168 -22.244 -18.448  0.00  0.00    +0.115 C 
BRANCH  18  19
ATOM     19  C   UNL     1      34.630 -21.005 -19.137  0.00  0.00    -0.003 C 
ATOM     20  C   UNL     1      35.990 -20.697 -19.180  0.00  0.00    -0.003 C 
ATOM     21  C   UNL     1      33.703 -20.152 -19.737  0.00  0.00    -0.003 C 
ATOM     22  C   UNL     1      35.497 -18.686 -20.423  0.00  0.00    +0.031 C 
ATOM     23  C   UNL     1      36.423 -19.538 -19.823  0.00  0.00    +0.002 C 
ATOM     24  C   UNL     1      34.137 -18.993 -20.380  0.00  0.00    +0.002 C 
BRANCH  22  27
ATOM     25  N   UNL     1      35.435 -16.226 -20.758  0.00  0.00    -0.343 N 
ATOM     26  N   UNL     1      36.863 -17.556 -22.044  0.00  0.00    -0.285 NA
ATOM     27  C   UNL     1      35.949 -17.478 -21.093  0.00  0.00    +0.117 C 
ATOM     28  H   UNL     1      35.756 -15.421 -21.224  0.00  0.00    +0.144 HD
ATOM     29  H   UNL     1      34.751 -16.148 -20.054  0.00  0.00    +0.144 HD
ATOM     30  H   UNL     1      37.171 -16.739 -22.499  0.00  0.00    +0.188 HD
ENDBRANCH  22  27
ENDBRANCH  18  19
ENDBRANCH   1  18
TORSDOF 5
ENDMDL
MODEL 3
REMARK VINA RESULT:     -11.8      1.640      2.519
REMARK  Name = 17758361
REMARK  5 active torsions:
REMARK  status: ('A' for Active; 'I' for Inactive)
REMARK    1  A    between atoms: N_1  and  C_18
REMARK    2  A    between atoms: C_4  and  C_10
REMARK    3  A    between atoms: C_10  and  C_11
REMARK    4  A    between atoms: C_18  and  C_19
REMARK    5  A    between atoms: C_22  and  C_27
REMARK                            x       y       z     vdW  Elec       q    Type
REMARK                         _______ _______ _______ _____ _____    ______ ____
ROOT
ATOM      1  N   UNL     1      35.929 -17.337 -22.759  0.00  0.00    -0.314 N 
ATOM      2  N   UNL     1      34.819 -16.281 -24.546  0.00  0.00    -0.229 NA
ATOM      3  C   UNL     1      35.186 -16.274 -23.246  0.00  0.00    +0.129 C 
ATOM      4  C   UNL     1      34.123 -14.188 -22.829  0.00  0.00    +0.043 C 
ATOM      5  C   UNL     1      34.867 -15.262 -22.354  0.00  0.00    +0.037 C 
ATOM      6  C   UNL     1      33.726 -14.159 -24.162  0.00  0.00    +0.024 C 
ATOM      7  C   UNL     1      34.097 -15.220 -24.972  0.00  0.00    +0.100 C 
ATOM      8  H   UNL     1      36.163 -18.064 -23.381  0.00  0.00    +0.149 HD
ENDROOT
BRANCH   4  10
ATOM      9  O   UNL     1      33.549 -13.317 -20.735  0.00  0.00    -0.287 OA
ATOM     10  C   UNL     1      33.761 -13.098 -21.936  0.00  0.00    +0.196 C 
BRANCH  10  11
ATOM     11  C   UNL     1      33.628 -11.687 -22.410  0.00  0.00    +0.039 C 
ATOM     12  C   UNL     1      34.484 -11.199 -23.398  0.00  0.00    -0.001 C 
ATOM     13  C   UNL     1      34.359  -9.882 -23.840  0.00  0.00    -0.022 C 
ATOM     14  C   UNL     1      32.648 -10.859 -21.865  0.00  0.00    +0.003 C 
ATOM     15  C   UNL     1      33.378  -9.053 -23.295  0.00  0.00    -0.004 C 
ATOM     16  C   UNL     1      32.523  -9.542 -22.308  0.00  0.00    -0.000 C 
ATOM     17  C   UNL     1      35.272  -9.361 -24.899  0.00  0.00    +0.031 C 
ENDBRANCH  10  11
ENDBRANCH   4  10
BRANCH   1  18
ATOM     18  C   UNL     1      36.380 -17.438 -21.389  0.00  0.00    +0.115 C 
BRANCH  18  19
ATOM     19  C   UNL     1      35.695 -18.559 -20.683  0.00  0.00    -0.003 C 
ATOM     20  C   UNL     1      36.433 -19.437 -19.888  0.00  0.00    -0.003 C 
ATOM     21  C   UNL     1      34.317 -18.732 -20.818  0.00  0.00    -0.003 C 
ATOM     22  C   UNL     1      34.416 -20.658 -19.364  0.00  0.00    +0.031 C 
ATOM     23  C   UNL     1      35.793 -20.486 -19.230  0.00  0.00    +0.002 C 
ATOM     24  C   UNL     1      33.678 -19.781 -20.158  0.00  0.00    +0.002 C 
BRANCH  22  27
ATOM     25  N   UNL     1      32.661 -21.527 -17.837  0.00  0.00    -0.343 N 
ATOM     26  N   UNL     1      34.181 -22.992 -18.841  0.00  0.00    -0.285 NA
ATOM     27  C   UNL     1      33.751 -21.753 -18.676  0.00  0.00    +0.117 C 
ATOM     28  H   UNL     1      32.225 -22.283 -17.381  0.00  0.00    +0.144 HD
ATOM     29  H   UNL     1      32.328 -20.611 -17.699  0.00  0.00    +0.144 HD
ATOM     30  H   UNL     1      33.731 -23.735 -18.376  0.00  0.00    +0.188 HD
ENDBRANCH  22  27
ENDBRANCH  18  19
ENDBRANCH   1  18
TORSDOF 5
ENDMDL
MODEL 4
REMARK VINA RESULT:     -11.7      5.233     10.301
REMARK  Name = 17758361
REMARK  5 active torsions:
REMARK  status: ('A' for Active; 'I' for Inactive)
REMARK    1  A    between atoms: N_1  and  C_18
REMARK    2  A    between atoms: C_4  and  C_10
REMARK    3  A    between atoms: C_10  and  C_11
REMARK    4  A    between atoms: C_18  and  C_19
REMARK    5  A    between atoms: C_22  and  C_27
REMARK                            x       y       z     vdW  Elec       q    Type
REMARK                         _______ _______ _______ _____ _____    ______ ____
ROOT
ATOM      1  N   UNL     1      35.012 -22.161 -17.179  0.00  0.00    -0.314 N 
ATOM      2  N   UNL     1      36.054 -23.044 -15.262  0.00  0.00    -0.229 NA
ATOM      3  C   UNL     1      34.934 -22.586 -15.863  0.00  0.00    +0.129 C 
ATOM      4  C   UNL     1      33.602 -22.937 -13.925  0.00  0.00    +0.043 C 
ATOM      5  C   UNL     1      33.695 -22.512 -15.245  0.00  0.00    +0.037 C 
ATOM      6  C   UNL     1      34.733 -23.415 -13.272  0.00  0.00    +0.024 C 
ATOM      7  C   UNL     1      35.925 -23.448 -13.979  0.00  0.00    +0.100 C 
ATOM      8  H   UNL     1      35.885 -22.207 -17.631  0.00  0.00    +0.149 HD
ENDROOT
BRANCH   4  10
ATOM      9  O   UNL     1      32.270 -22.477 -12.058  0.00  0.00    -0.287 OA
ATOM     10  C   UNL     1      32.327 -22.882 -13.228  0.00  0.00    +0.196 C 
BRANCH  10  11
ATOM     11  C   UNL     1      31.045 -23.303 -13.870  0.00  0.00    +0.039 C 
ATOM     12  C   UNL     1      30.196 -22.345 -14.427  0.00  0.00    -0.001 C 
ATOM     13  C   UNL     1      29.001 -22.737 -15.028  0.00  0.00    -0.022 C 
ATOM     14  C   UNL     1      30.697 -24.652 -13.915  0.00  0.00    +0.003 C 
ATOM     15  C   UNL     1      28.653 -24.088 -15.072  0.00  0.00    -0.004 C 
ATOM     16  C   UNL     1      29.501 -25.045 -14.516  0.00  0.00    -0.000 C 
ATOM     17  C   UNL     1      28.095 -21.715 -15.626  0.00  0.00    +0.031 C 
ENDBRANCH  10  11
ENDBRANCH   4  10
BRANCH   1  18
ATOM     18  C   UNL     1      33.881 -21.654 -17.925  0.00  0.00    +0.115 C 
BRANCH  18  19
ATOM     19  C   UNL     1      34.326 -20.724 -19.003  0.00  0.00    -0.003 C 
ATOM     20  C   UNL     1      35.687 -20.491 -19.204  0.00  0.00    -0.003 C 
ATOM     21  C   UNL     1      33.382 -20.087 -19.809  0.00  0.00    -0.003 C 
ATOM     22  C   UNL     1      35.160 -18.984 -21.017  0.00  0.00    +0.031 C 
ATOM     23  C   UNL     1      36.103 -19.620 -20.211  0.00  0.00    +0.002 C 
ATOM     24  C   UNL     1      33.800 -19.217 -20.816  0.00  0.00    +0.002 C 
BRANCH  22  27
ATOM     25  N   UNL     1      36.858 -17.486 -22.038  0.00  0.00    -0.343 N 
ATOM     26  N   UNL     1      34.785 -17.796 -23.071  0.00  0.00    -0.285 NA
ATOM     27  C   UNL     1      35.596 -18.077 -22.066  0.00  0.00    +0.117 C 
ATOM     28  H   UNL     1      37.133 -16.875 -22.759  0.00  0.00    +0.144 HD
ATOM     29  H   UNL     1      37.476 -17.681 -21.295  0.00  0.00    +0.144 HD
ATOM     30  H   UNL     1      35.078 -17.182 -23.784  0.00  0.00    +0.188 HD
ENDBRANCH  22  27
ENDBRANCH  18  19
ENDBRANCH   1  18
TORSDOF 5
ENDMDL
MODEL 5
REMARK VINA RESULT:     -11.7      5.467     11.309
REMARK  Name = 17758361
REMARK  5 active torsions:
REMARK  status: ('A' for Active; 'I' for Inactive)
REMARK    1  A    between atoms: N_1  and  C_18
REMARK    2  A    between atoms: C_4  and  C_10
REMARK    3  A    between atoms: C_10  and  C_11
REMARK    4  A    between atoms: C_18  and  C_19
REMARK    5  A    between atoms: C_22  and  C_27
REMARK                            x       y       z     vdW  Elec       q    Type
REMARK                         _______ _______ _______ _____ _____    ______ ____
ROOT
ATOM      1  N   UNL     1      33.016 -22.034 -17.387  0.00  0.00    -0.314 N 
ATOM      2  N   UNL     1      32.415 -22.206 -15.118  0.00  0.00    -0.229 NA
ATOM      3  C   UNL     1      33.253 -22.546 -16.123  0.00  0.00    +0.129 C 
ATOM      4  C   UNL     1      34.598 -23.903 -14.707  0.00  0.00    +0.043 C 
ATOM      5  C   UNL     1      34.347 -23.382 -15.972  0.00  0.00    +0.037 C 
ATOM      6  C   UNL     1      33.758 -23.576 -13.648  0.00  0.00    +0.024 C 
ATOM      7  C   UNL     1      32.690 -22.731 -13.903  0.00  0.00    +0.100 C 
ATOM      8  H   UNL     1      32.241 -21.439 -17.510  0.00  0.00    +0.149 HD
ENDROOT
BRANCH   4  10
ATOM      9  O   UNL     1      35.798 -25.876 -15.076  0.00  0.00    -0.287 OA
ATOM     10  C   UNL     1      35.734 -24.785 -14.491  0.00  0.00    +0.196 C 
BRANCH  10  11
ATOM     11  C   UNL     1      36.859 -24.431 -13.574  0.00  0.00    +0.039 C 
ATOM     12  C   UNL     1      38.171 -24.759 -13.920  0.00  0.00    -0.001 C 
ATOM     13  C   UNL     1      39.221 -24.428 -13.065  0.00  0.00    -0.022 C 
ATOM     14  C   UNL     1      36.599 -23.773 -12.373  0.00  0.00    +0.003 C 
ATOM     15  C   UNL     1      38.960 -23.769 -11.863  0.00  0.00    -0.004 C 
ATOM     16  C   UNL     1      37.649 -23.441 -11.518  0.00  0.00    -0.000 C 
ATOM     17  C   UNL     1      40.623 -24.775 -13.435  0.00  0.00    +0.031 C 
ENDBRANCH  10  11
ENDBRANCH   4  10
BRANCH   1  18
ATOM     18  C   UNL     1      33.844 -22.326 -18.537  0.00  0.00    +0.115 C 
BRANCH  18  19
ATOM     19  C   UNL     1      34.351 -21.070 -19.162  0.00  0.00    -0.003 C 
ATOM     20  C   UNL     1      33.458 -20.172 -19.747  0.00  0.00    -0.003 C 
ATOM     21  C   UNL     1      35.719 -20.794 -19.163  0.00  0.00    -0.003 C 
ATOM     22  C   UNL     1      35.300 -18.723 -20.333  0.00  0.00    +0.031 C 
ATOM     23  C   UNL     1      33.933 -18.999 -20.333  0.00  0.00    +0.002 C 
ATOM     24  C   UNL     1      36.193 -19.621 -19.748  0.00  0.00    +0.002 C 
BRANCH  22  27
ATOM     25  N   UNL     1      36.659 -17.531 -22.037  0.00  0.00    -0.343 N 
ATOM     26  N   UNL     1      35.423 -16.327 -20.460  0.00  0.00    -0.285 NA
ATOM     27  C   UNL     1      35.793 -17.499 -20.944  0.00  0.00    +0.117 C 
ATOM     28  H   UNL     1      36.980 -16.690 -22.435  0.00  0.00    +0.144 HD
ATOM     29  H   UNL     1      36.948 -18.395 -22.410  0.00  0.00    +0.144 HD
ATOM     30  H   UNL     1      35.756 -15.497 -20.872  0.00  0.00    +0.188 HD
ENDBRANCH  22  27
ENDBRANCH  18  19
ENDBRANCH   1  18
TORSDOF 5
ENDMDL
MODEL 6
REMARK VINA RESULT:     -11.7      3.006      7.513
REMARK  Name = 17758361
REMARK  5 active torsions:
REMARK  status: ('A' for Active; 'I' for Inactive)
REMARK    1  A    between atoms: N_1  and  C_18
REMARK    2  A    between atoms: C_4  and  C_10
REMARK    3  A    between atoms: C_10  and  C_11
REMARK    4  A    between atoms: C_18  and  C_19
REMARK    5  A    between atoms: C_22  and  C_27
REMARK                            x       y       z     vdW  Elec       q    Type
REMARK                         _______ _______ _______ _____ _____    ______ ____
ROOT
ATOM      1  N   UNL     1      34.295 -14.417 -24.141  0.00  0.00    -0.314 N 
ATOM      2  N   UNL     1      33.737 -16.591 -24.851  0.00  0.00    -0.229 NA
ATOM      3  C   UNL     1      34.399 -15.790 -23.987  0.00  0.00    +0.129 C 
ATOM      4  C   UNL     1      35.295 -17.629 -22.776  0.00  0.00    +0.043 C 
ATOM      5  C   UNL     1      35.183 -16.254 -22.943  0.00  0.00    +0.037 C 
ATOM      6  C   UNL     1      34.629 -18.487 -23.645  0.00  0.00    +0.024 C 
ATOM      7  C   UNL     1      33.869 -17.922 -24.658  0.00  0.00    +0.100 C 
ATOM      8  H   UNL     1      33.741 -14.073 -24.879  0.00  0.00    +0.149 HD
ENDROOT
BRANCH   4  10
ATOM      9  O   UNL     1      37.305 -17.875 -21.605  0.00  0.00    -0.287 OA
ATOM     10  C   UNL     1      36.105 -18.171 -21.696  0.00  0.00    +0.196 C 
BRANCH  10  11
ATOM     11  C   UNL     1      35.546 -19.094 -20.662  0.00  0.00    +0.039 C 
ATOM     12  C   UNL     1      36.394 -19.691 -19.728  0.00  0.00    -0.001 C 
ATOM     13  C   UNL     1      35.873 -20.551 -18.763  0.00  0.00    -0.022 C 
ATOM     14  C   UNL     1      34.177 -19.356 -20.629  0.00  0.00    +0.003 C 
ATOM     15  C   UNL     1      34.503 -20.814 -18.730  0.00  0.00    -0.004 C 
ATOM     16  C   UNL     1      33.655 -20.216 -19.662  0.00  0.00    -0.000 C 
ATOM     17  C   UNL     1      36.778 -21.188 -17.763  0.00  0.00    +0.031 C 
ENDBRANCH  10  11
ENDBRANCH   4  10
BRANCH   1  18
ATOM     18  C   UNL     1      34.955 -13.463 -23.278  0.00  0.00    +0.115 C 
BRANCH  18  19
ATOM     19  C   UNL     1      33.993 -12.866 -22.307  0.00  0.00    -0.003 C 
ATOM     20  C   UNL     1      33.440 -11.610 -22.557  0.00  0.00    -0.003 C 
ATOM     21  C   UNL     1      33.648 -13.562 -21.148  0.00  0.00    -0.003 C 
ATOM     22  C   UNL     1      32.196 -11.746 -20.491  0.00  0.00    +0.031 C 
ATOM     23  C   UNL     1      32.541 -11.051 -21.649  0.00  0.00    +0.002 C 
ATOM     24  C   UNL     1      32.749 -13.002 -20.241  0.00  0.00    +0.002 C 
BRANCH  22  27
ATOM     25  N   UNL     1      31.594 -10.991 -18.203  0.00  0.00    -0.343 N 
ATOM     26  N   UNL     1      30.061 -10.784 -19.954  0.00  0.00    -0.285 NA
ATOM     27  C   UNL     1      31.259 -11.162 -19.545  0.00  0.00    +0.117 C 
ATOM     28  H   UNL     1      30.944 -10.593 -17.580  0.00  0.00    +0.144 HD
ATOM     29  H   UNL     1      32.481 -11.269 -17.878  0.00  0.00    +0.144 HD
ATOM     30  H   UNL     1      29.425 -10.388 -19.316  0.00  0.00    +0.188 HD
ENDBRANCH  22  27
ENDBRANCH  18  19
ENDBRANCH   1  18
TORSDOF 5
ENDMDL
MODEL 7
REMARK VINA RESULT:     -11.7      4.057      6.979
REMARK  Name = 17758361
REMARK  5 active torsions:
REMARK  status: ('A' for Active; 'I' for Inactive)
REMARK    1  A    between atoms: N_1  and  C_18
REMARK    2  A    between atoms: C_4  and  C_10
REMARK    3  A    between atoms: C_10  and  C_11
REMARK    4  A    between atoms: C_18  and  C_19
REMARK    5  A    between atoms: C_22  and  C_27
REMARK                            x       y       z     vdW  Elec       q    Type
REMARK                         _______ _______ _______ _____ _____    ______ ____
ROOT
ATOM      1  N   UNL     1      34.969 -22.031 -17.002  0.00  0.00    -0.314 N 
ATOM      2  N   UNL     1      33.307 -21.367 -18.530  0.00  0.00    -0.229 NA
ATOM      3  C   UNL     1      34.582 -21.269 -18.091  0.00  0.00    +0.129 C 
ATOM      4  C   UNL     1      35.165 -19.682 -19.763  0.00  0.00    +0.043 C 
ATOM      5  C   UNL     1      35.540 -20.451 -18.667  0.00  0.00    +0.037 C 
ATOM      6  C   UNL     1      33.862 -19.755 -20.243  0.00  0.00    +0.024 C 
ATOM      7  C   UNL     1      32.979 -20.605 -19.598  0.00  0.00    +0.100 C 
ATOM      8  H   UNL     1      34.298 -22.617 -16.582  0.00  0.00    +0.149 HD
ENDROOT
BRANCH   4  10
ATOM      9  O   UNL     1      37.342 -19.066 -20.358  0.00  0.00    -0.287 OA
ATOM     10  C   UNL     1      36.132 -18.805 -20.406  0.00  0.00    +0.196 C 
BRANCH  10  11
ATOM     11  C   UNL     1      35.725 -17.570 -21.142  0.00  0.00    +0.039 C 
ATOM     12  C   UNL     1      35.368 -16.421 -20.434  0.00  0.00    -0.001 C 
ATOM     13  C   UNL     1      34.990 -15.268 -21.122  0.00  0.00    -0.022 C 
ATOM     14  C   UNL     1      35.705 -17.565 -22.536  0.00  0.00    +0.003 C 
ATOM     15  C   UNL     1      34.970 -15.263 -22.517  0.00  0.00    -0.004 C 
ATOM     16  C   UNL     1      35.328 -16.411 -23.224  0.00  0.00    -0.000 C 
ATOM     17  C   UNL     1      34.611 -14.040 -20.366  0.00  0.00    +0.031 C 
ENDBRANCH  10  11
ENDBRANCH   4  10
BRANCH   1  18
ATOM     18  C   UNL     1      36.304 -22.011 -16.446  0.00  0.00    +0.115 C 
BRANCH  18  19
ATOM     19  C   UNL     1      36.291 -22.417 -15.010  0.00  0.00    -0.003 C 
ATOM     20  C   UNL     1      35.087 -22.759 -14.394  0.00  0.00    -0.003 C 
ATOM     21  C   UNL     1      37.482 -22.454 -14.284  0.00  0.00    -0.003 C 
ATOM     22  C   UNL     1      36.264 -23.174 -12.326  0.00  0.00    +0.031 C 
ATOM     23  C   UNL     1      35.074 -23.137 -13.052  0.00  0.00    +0.002 C 
ATOM     24  C   UNL     1      37.468 -22.832 -12.942  0.00  0.00    +0.002 C 
BRANCH  22  27
ATOM     25  N   UNL     1      36.961 -22.855  -9.963  0.00  0.00    -0.343 N 
ATOM     26  N   UNL     1      35.554 -24.627 -10.549  0.00  0.00    -0.285 NA
ATOM     27  C   UNL     1      36.250 -23.569 -10.926  0.00  0.00    +0.117 C 
ATOM     28  H   UNL     1      36.937 -23.140  -9.021  0.00  0.00    +0.144 HD
ATOM     29  H   UNL     1      37.488 -22.065 -10.226  0.00  0.00    +0.144 HD
ATOM     30  H   UNL     1      35.542 -24.896  -9.602  0.00  0.00    +0.188 HD
ENDBRANCH  22  27
ENDBRANCH  18  19
ENDBRANCH   1  18
TORSDOF 5
ENDMDL
MODEL 8
REMARK VINA RESULT:     -11.6      3.927      6.703
REMARK  Name = 17758361
REMARK  5 active torsions:
REMARK  status: ('A' for Active; 'I' for Inactive)
REMARK    1  A    between atoms: N_1  and  C_18
REMARK    2  A    between atoms: C_4  and  C_10
REMARK    3  A    between atoms: C_10  and  C_11
REMARK    4  A    between atoms: C_18  and  C_19
REMARK    5  A    between atoms: C_22  and  C_27
REMARK                            x       y       z     vdW  Elec       q    Type
REMARK                         _______ _______ _______ _____ _____    ______ ____
ROOT
ATOM      1  N   UNL     1      35.216 -21.783 -17.262  0.00  0.00    -0.314 N 
ATOM      2  N   UNL     1      33.499 -21.192 -18.759  0.00  0.00    -0.229 NA
ATOM      3  C   UNL     1      34.769 -21.023 -18.329  0.00  0.00    +0.129 C 
ATOM      4  C   UNL     1      35.231 -19.360 -19.965  0.00  0.00    +0.043 C 
ATOM      5  C   UNL     1      35.666 -20.129 -18.892  0.00  0.00    +0.037 C 
ATOM      6  C   UNL     1      33.930 -19.506 -20.436  0.00  0.00    +0.024 C 
ATOM      7  C   UNL     1      33.111 -20.428 -19.805  0.00  0.00    +0.100 C 
ATOM      8  H   UNL     1      34.589 -22.422 -16.852  0.00  0.00    +0.149 HD
ENDROOT
BRANCH   4  10
ATOM      9  O   UNL     1      37.345 -18.646 -20.665  0.00  0.00    -0.287 OA
ATOM     10  C   UNL     1      36.132 -18.406 -20.594  0.00  0.00    +0.196 C 
BRANCH  10  11
ATOM     11  C   UNL     1      35.652 -17.116 -21.175  0.00  0.00    +0.039 C 
ATOM     12  C   UNL     1      35.524 -16.978 -22.558  0.00  0.00    -0.001 C 
ATOM     13  C   UNL     1      35.076 -15.774 -23.100  0.00  0.00    -0.022 C 
ATOM     14  C   UNL     1      35.332 -16.050 -20.335  0.00  0.00    +0.003 C 
ATOM     15  C   UNL     1      34.755 -14.707 -22.259  0.00  0.00    -0.004 C 
ATOM     16  C   UNL     1      34.882 -14.846 -20.877  0.00  0.00    -0.000 C 
ATOM     17  C   UNL     1      34.936 -15.626 -24.577  0.00  0.00    +0.031 C 
ENDBRANCH  10  11
ENDBRANCH   4  10
BRANCH   1  18
ATOM     18  C   UNL     1      36.552 -21.690 -16.717  0.00  0.00    +0.115 C 
BRANCH  18  19
ATOM     19  C   UNL     1      36.620 -22.305 -15.359  0.00  0.00    -0.003 C 
ATOM     20  C   UNL     1      37.844 -22.741 -14.852  0.00  0.00    -0.003 C 
ATOM     21  C   UNL     1      35.459 -22.445 -14.598  0.00  0.00    -0.003 C 
ATOM     22  C   UNL     1      36.747 -23.457 -12.823  0.00  0.00    +0.031 C 
ATOM     23  C   UNL     1      37.907 -23.317 -13.584  0.00  0.00    +0.002 C 
ATOM     24  C   UNL     1      35.523 -23.021 -13.330  0.00  0.00    +0.002 C 
BRANCH  22  27
ATOM     25  N   UNL     1      36.905 -23.275 -10.351  0.00  0.00    -0.343 N 
ATOM     26  N   UNL     1      36.793 -25.373 -11.373  0.00  0.00    -0.285 NA
ATOM     27  C   UNL     1      36.814 -24.058 -11.500  0.00  0.00    +0.117 C 
ATOM     28  H   UNL     1      36.949 -23.702  -9.465  0.00  0.00    +0.144 HD
ATOM     29  H   UNL     1      36.925 -22.293 -10.425  0.00  0.00    +0.144 HD
ATOM     30  H   UNL     1      36.838 -25.782 -10.479  0.00  0.00    +0.188 HD
ENDBRANCH  22  27
ENDBRANCH  18  19
ENDBRANCH   1  18
TORSDOF 5
ENDMDL
MODEL 9
REMARK VINA RESULT:     -11.3      4.311      7.675
REMARK  Name = 17758361
REMARK  5 active torsions:
REMARK  status: ('A' for Active; 'I' for Inactive)
REMARK    1  A    between atoms: N_1  and  C_18
REMARK    2  A    between atoms: C_4  and  C_10
REMARK    3  A    between atoms: C_10  and  C_11
REMARK    4  A    between atoms: C_18  and  C_19
REMARK    5  A    between atoms: C_22  and  C_27
REMARK                            x       y       z     vdW  Elec       q    Type
REMARK                         _______ _______ _______ _____ _____    ______ ____
ROOT
ATOM      1  N   UNL     1      31.484  -9.998 -19.255  0.00  0.00    -0.314 N 
ATOM      2  N   UNL     1      32.570  -7.969 -18.761  0.00  0.00    -0.229 NA
ATOM      3  C   UNL     1      32.111  -8.841 -19.686  0.00  0.00    +0.129 C 
ATOM      4  C   UNL     1      32.851  -7.495 -21.501  0.00  0.00    +0.043 C 
ATOM      5  C   UNL     1      32.225  -8.653 -21.054  0.00  0.00    +0.037 C 
ATOM      6  C   UNL     1      33.337  -6.573 -20.579  0.00  0.00    +0.024 C 
ATOM      7  C   UNL     1      33.172  -6.854 -19.232  0.00  0.00    +0.100 C 
ATOM      8  H   UNL     1      31.396 -10.145 -18.285  0.00  0.00    +0.149 HD
ENDROOT
BRANCH   4  10
ATOM      9  O   UNL     1      32.362  -6.333 -23.471  0.00  0.00    -0.287 OA
ATOM     10  C   UNL     1      32.998  -7.247 -22.926  0.00  0.00    +0.196 C 
BRANCH  10  11
ATOM     11  C   UNL     1      33.902  -8.063 -23.792  0.00  0.00    +0.039 C 
ATOM     12  C   UNL     1      33.485  -9.311 -24.256  0.00  0.00    -0.001 C 
ATOM     13  C   UNL     1      34.329 -10.072 -25.064  0.00  0.00    -0.022 C 
ATOM     14  C   UNL     1      35.162  -7.576 -24.138  0.00  0.00    +0.003 C 
ATOM     15  C   UNL     1      35.590  -9.584 -25.410  0.00  0.00    -0.004 C 
ATOM     16  C   UNL     1      36.006  -8.337 -24.947  0.00  0.00    -0.000 C 
ATOM     17  C   UNL     1      33.883 -11.405 -25.563  0.00  0.00    +0.031 C 
ENDBRANCH  10  11
ENDBRANCH   4  10
BRANCH   1  18
ATOM     18  C   UNL     1      30.952 -11.001 -20.150  0.00  0.00    +0.115 C 
BRANCH  18  19
ATOM     19  C   UNL     1      31.996 -12.006 -20.507  0.00  0.00    -0.003 C 
ATOM     20  C   UNL     1      32.614 -11.955 -21.756  0.00  0.00    -0.003 C 
ATOM     21  C   UNL     1      32.353 -12.997 -19.592  0.00  0.00    -0.003 C 
ATOM     22  C   UNL     1      33.945 -13.885 -21.177  0.00  0.00    +0.031 C 
ATOM     23  C   UNL     1      33.589 -12.894 -22.091  0.00  0.00    +0.002 C 
ATOM     24  C   UNL     1      33.327 -13.936 -19.927  0.00  0.00    +0.002 C 
BRANCH  22  27
ATOM     25  N   UNL     1      35.294 -15.906 -20.662  0.00  0.00    -0.343 N 
ATOM     26  N   UNL     1      35.593 -14.772 -22.684  0.00  0.00    -0.285 NA
ATOM     27  C   UNL     1      34.962 -14.864 -21.527  0.00  0.00    +0.117 C 
ATOM     28  H   UNL     1      35.986 -16.558 -20.919  0.00  0.00    +0.144 HD
ATOM     29  H   UNL     1      34.838 -15.989 -19.794  0.00  0.00    +0.144 HD
ATOM     30  H   UNL     1      36.281 -15.434 -22.924  0.00  0.00    +0.188 HD
ENDBRANCH  22  27
ENDBRANCH  18  19
ENDBRANCH   1  18
TORSDOF 5
ENDMDL
