MODEL 1
REMARK VINA RESULT:     -11.2      0.000      0.000
REMARK  Name = 11609586
REMARK  6 active torsions:
REMARK  status: ('A' for Active; 'I' for Inactive)
REMARK    1  A    between atoms: N_1  and  C_3
REMARK    2  A    between atoms: N_1  and  C_17
REMARK    3  A    between atoms: C_6  and  N_9
REMARK    4  A    between atoms: N_9  and  C_12
REMARK    5  A    between atoms: C_17  and  C_18
REMARK    6  A    between atoms: C_18  and  C_20
REMARK                            x       y       z     vdW  Elec       q    Type
REMARK                         _______ _______ _______ _____ _____    ______ ____
ROOT
ATOM      1  N   UNL     1      33.918 -22.488 -17.820  0.00  0.00    -0.332 N 
ATOM      2  H   UNL     1      33.631 -23.322 -18.259  0.00  0.00    +0.147 HD
ENDROOT
BRANCH   1   3
ATOM      3  C   UNL     1      34.349 -21.442 -18.626  0.00  0.00    +0.045 C 
ATOM      4  C   UNL     1      33.425 -20.559 -19.212  0.00  0.00    +0.016 C 
ATOM      5  C   UNL     1      35.718 -21.241 -18.874  0.00  0.00    +0.016 C 
ATOM      6  C   UNL     1      35.220 -19.323 -20.255  0.00  0.00    +0.048 C 
ATOM      7  C   UNL     1      33.857 -19.508 -20.021  0.00  0.00    +0.016 C 
ATOM      8  C   UNL     1      36.150 -20.190 -19.682  0.00  0.00    +0.016 C 
BRANCH   6   9
ATOM      9  N   UNL     1      35.656 -18.259 -21.072  0.00  0.00    -0.312 N 
ATOM     10  H   UNL     1      36.426 -17.767 -20.705  0.00  0.00    +0.152 HD
BRANCH   9  12
ATOM     11  N   UNL     1      34.314 -16.772 -24.770  0.00  0.00    -0.242 NA
ATOM     12  C   UNL     1      35.207 -17.761 -22.311  0.00  0.00    +0.051 C 
ATOM     13  C   UNL     1      35.320 -16.406 -22.602  0.00  0.00    +0.035 C 
ATOM     14  C   UNL     1      34.647 -18.622 -23.249  0.00  0.00    +0.035 C 
ATOM     15  C   UNL     1      34.864 -15.965 -23.834  0.00  0.00    +0.100 C 
ATOM     16  C   UNL     1      34.221 -18.083 -24.452  0.00  0.00    +0.100 C 
ENDBRANCH   9  12
ENDBRANCH   6   9
ENDBRANCH   1   3
BRANCH   1  17
ATOM     17  C   UNL     1      33.868 -22.427 -16.385  0.00  0.00    +0.092 C 
BRANCH  17  18
ATOM     18  C   UNL     1      35.270 -22.315 -15.759  0.00  0.00    +0.049 C 
BRANCH  18  20
ATOM     19  N   UNL     1      35.001 -24.158 -12.618  0.00  0.00    -0.312 N 
ATOM     20  C   UNL     1      35.440 -23.101 -14.520  0.00  0.00    -0.005 C 
ATOM     21  C   UNL     1      36.654 -23.658 -14.029  0.00  0.00    +0.011 C 
ATOM     22  C   UNL     1      36.351 -24.315 -12.835  0.00  0.00    +0.048 C 
ATOM     23  C   UNL     1      34.442 -23.426 -13.630  0.00  0.00    +0.058 C 
ATOM     24  C   UNL     1      37.986 -23.665 -14.487  0.00  0.00    +0.001 C 
ATOM     25  C   UNL     1      37.317 -24.982 -12.073  0.00  0.00    +0.015 C 
ATOM     26  C   UNL     1      38.964 -24.328 -13.736  0.00  0.00    +0.000 C 
ATOM     27  C   UNL     1      38.632 -24.976 -12.548  0.00  0.00    +0.001 C 
ATOM     28  H   UNL     1      34.508 -24.519 -11.846  0.00  0.00    +0.152 HD
ENDBRANCH  18  20
ENDBRANCH  17  18
ENDBRANCH   1  17
TORSDOF 6
ENDMDL
MODEL 2
REMARK VINA RESULT:     -11.1      1.938     10.271
REMARK  Name = 11609586
REMARK  6 active torsions:
REMARK  status: ('A' for Active; 'I' for Inactive)
REMARK    1  A    between atoms: N_1  and  C_3
REMARK    2  A    between atoms: N_1  and  C_17
REMARK    3  A    between atoms: C_6  and  N_9
REMARK    4  A    between atoms: N_9  and  C_12
REMARK    5  A    between atoms: C_17  and  C_18
REMARK    6  A    between atoms: C_18  and  C_20
REMARK                            x       y       z     vdW  Elec       q    Type
REMARK                         _______ _______ _______ _____ _____    ______ ____
ROOT
ATOM      1  N   UNL     1      35.376 -20.737 -19.627  0.00  0.00    -0.332 N 
ATOM      2  H   UNL     1      35.580 -21.349 -20.371  0.00  0.00    +0.147 HD
ENDROOT
BRANCH   1   3
ATOM      3  C   UNL     1      35.582 -21.192 -18.332  0.00  0.00    +0.045 C 
ATOM      4  C   UNL     1      34.565 -21.869 -17.637  0.00  0.00    +0.016 C 
ATOM      5  C   UNL     1      36.813 -20.985 -17.684  0.00  0.00    +0.016 C 
ATOM      6  C   UNL     1      36.001 -22.114 -15.709  0.00  0.00    +0.048 C 
ATOM      7  C   UNL     1      34.773 -22.326 -16.335  0.00  0.00    +0.016 C 
ATOM      8  C   UNL     1      37.021 -21.443 -16.384  0.00  0.00    +0.016 C 
BRANCH   6   9
ATOM      9  N   UNL     1      36.211 -22.578 -14.394  0.00  0.00    -0.312 N 
ATOM     10  H   UNL     1      35.778 -22.025 -13.704  0.00  0.00    +0.152 HD
BRANCH   9  12
ATOM     11  N   UNL     1      38.325 -25.864 -12.839  0.00  0.00    -0.242 NA
ATOM     12  C   UNL     1      36.919 -23.678 -13.873  0.00  0.00    +0.051 C 
ATOM     13  C   UNL     1      36.664 -24.961 -14.346  0.00  0.00    +0.035 C 
ATOM     14  C   UNL     1      37.878 -23.488 -12.882  0.00  0.00    +0.035 C 
ATOM     15  C   UNL     1      37.387 -26.010 -13.802  0.00  0.00    +0.100 C 
ATOM     16  C   UNL     1      38.547 -24.603 -12.404  0.00  0.00    +0.100 C 
ENDBRANCH   9  12
ENDBRANCH   6   9
ENDBRANCH   1   3
BRANCH   1  17
ATOM     17  C   UNL     1      34.881 -19.425 -19.948  0.00  0.00    +0.092 C 
BRANCH  17  18
ATOM     18  C   UNL     1      36.020 -18.410 -20.153  0.00  0.00    +0.049 C 
BRANCH  18  20
ATOM     19  N   UNL     1      35.611 -16.551 -23.270  0.00  0.00    -0.312 N 
ATOM     20  C   UNL     1      35.776 -17.445 -21.245  0.00  0.00    -0.005 C 
ATOM     21  C   UNL     1      35.335 -16.099 -21.103  0.00  0.00    +0.011 C 
ATOM     22  C   UNL     1      35.240 -15.561 -22.388  0.00  0.00    +0.048 C 
ATOM     23  C   UNL     1      35.936 -17.693 -22.588  0.00  0.00    +0.058 C 
ATOM     24  C   UNL     1      35.008 -15.284 -20.002  0.00  0.00    +0.001 C 
ATOM     25  C   UNL     1      34.833 -14.244 -22.628  0.00  0.00    +0.015 C 
ATOM     26  C   UNL     1      34.598 -13.964 -20.226  0.00  0.00    +0.000 C 
ATOM     27  C   UNL     1      34.512 -13.455 -21.520  0.00  0.00    +0.001 C 
ATOM     28  H   UNL     1      35.639 -16.453 -24.249  0.00  0.00    +0.152 HD
ENDBRANCH  18  20
ENDBRANCH  17  18
ENDBRANCH   1  17
TORSDOF 6
ENDMDL
MODEL 3
REMARK VINA RESULT:     -11.1      1.206      1.893
REMARK  Name = 11609586
REMARK  6 active torsions:
REMARK  status: ('A' for Active; 'I' for Inactive)
REMARK    1  A    between atoms: N_1  and  C_3
REMARK    2  A    between atoms: N_1  and  C_17
REMARK    3  A    between atoms: C_6  and  N_9
REMARK    4  A    between atoms: N_9  and  C_12
REMARK    5  A    between atoms: C_17  and  C_18
REMARK    6  A    between atoms: C_18  and  C_20
REMARK                            x       y       z     vdW  Elec       q    Type
REMARK                         _______ _______ _______ _____ _____    ______ ____
ROOT
ATOM      1  N   UNL     1      33.930 -22.470 -17.639  0.00  0.00    -0.332 N 
ATOM      2  H   UNL     1      33.559 -23.291 -18.039  0.00  0.00    +0.147 HD
ENDROOT
BRANCH   1   3
ATOM      3  C   UNL     1      34.384 -21.476 -18.495  0.00  0.00    +0.045 C 
ATOM      4  C   UNL     1      35.760 -21.239 -18.657  0.00  0.00    +0.016 C 
ATOM      5  C   UNL     1      33.478 -20.681 -19.220  0.00  0.00    +0.016 C 
ATOM      6  C   UNL     1      35.303 -19.462 -20.229  0.00  0.00    +0.048 C 
ATOM      7  C   UNL     1      36.216 -20.240 -19.517  0.00  0.00    +0.016 C 
ATOM      8  C   UNL     1      33.934 -19.683 -20.080  0.00  0.00    +0.016 C 
BRANCH   6   9
ATOM      9  N   UNL     1      35.765 -18.454 -21.099  0.00  0.00    -0.312 N 
ATOM     10  H   UNL     1      36.418 -18.771 -21.763  0.00  0.00    +0.152 HD
BRANCH   9  12
ATOM     11  N   UNL     1      34.898 -14.351 -21.416  0.00  0.00    -0.242 NA
ATOM     12  C   UNL     1      35.475 -17.079 -21.205  0.00  0.00    +0.051 C 
ATOM     13  C   UNL     1      35.431 -16.468 -22.454  0.00  0.00    +0.035 C 
ATOM     14  C   UNL     1      35.230 -16.325 -20.062  0.00  0.00    +0.035 C 
ATOM     15  C   UNL     1      35.141 -15.114 -22.506  0.00  0.00    +0.100 C 
ATOM     16  C   UNL     1      34.948 -14.979 -20.220  0.00  0.00    +0.100 C 
ENDBRANCH   9  12
ENDBRANCH   6   9
ENDBRANCH   1   3
BRANCH   1  17
ATOM     17  C   UNL     1      33.967 -22.373 -16.205  0.00  0.00    +0.092 C 
BRANCH  17  18
ATOM     18  C   UNL     1      35.407 -22.382 -15.660  0.00  0.00    +0.049 C 
BRANCH  18  20
ATOM     19  N   UNL     1      35.155 -24.279 -12.550  0.00  0.00    -0.312 N 
ATOM     20  C   UNL     1      35.583 -23.192 -14.438  0.00  0.00    -0.005 C 
ATOM     21  C   UNL     1      36.797 -23.769 -13.971  0.00  0.00    +0.011 C 
ATOM     22  C   UNL     1      36.501 -24.445 -12.785  0.00  0.00    +0.048 C 
ATOM     23  C   UNL     1      34.592 -23.523 -13.543  0.00  0.00    +0.058 C 
ATOM     24  C   UNL     1      38.124 -23.781 -14.444  0.00  0.00    +0.001 C 
ATOM     25  C   UNL     1      37.469 -25.134 -12.046  0.00  0.00    +0.015 C 
ATOM     26  C   UNL     1      39.103 -24.466 -13.715  0.00  0.00    +0.000 C 
ATOM     27  C   UNL     1      38.778 -25.133 -12.535  0.00  0.00    +0.001 C 
ATOM     28  H   UNL     1      34.667 -24.649 -11.779  0.00  0.00    +0.152 HD
ENDBRANCH  18  20
ENDBRANCH  17  18
ENDBRANCH   1  17
TORSDOF 6
ENDMDL
MODEL 4
REMARK VINA RESULT:     -11.1      1.128      1.728
REMARK  Name = 11609586
REMARK  6 active torsions:
REMARK  status: ('A' for Active; 'I' for Inactive)
REMARK    1  A    between atoms: N_1  and  C_3
REMARK    2  A    between atoms: N_1  and  C_17
REMARK    3  A    between atoms: C_6  and  N_9
REMARK    4  A    between atoms: N_9  and  C_12
REMARK    5  A    between atoms: C_17  and  C_18
REMARK    6  A    between atoms: C_18  and  C_20
REMARK                            x       y       z     vdW  Elec       q    Type
REMARK                         _______ _______ _______ _____ _____    ______ ____
ROOT
ATOM      1  N   UNL     1      33.865 -22.422 -17.737  0.00  0.00    -0.332 N 
ATOM      2  H   UNL     1      33.654 -23.294 -18.145  0.00  0.00    +0.147 HD
ENDROOT
BRANCH   1   3
ATOM      3  C   UNL     1      34.319 -21.406 -18.567  0.00  0.00    +0.045 C 
ATOM      4  C   UNL     1      35.697 -21.192 -18.753  0.00  0.00    +0.016 C 
ATOM      5  C   UNL     1      33.414 -20.568 -19.242  0.00  0.00    +0.016 C 
ATOM      6  C   UNL     1      35.241 -19.350 -20.249  0.00  0.00    +0.048 C 
ATOM      7  C   UNL     1      36.153 -20.171 -19.587  0.00  0.00    +0.016 C 
ATOM      8  C   UNL     1      33.871 -19.548 -20.076  0.00  0.00    +0.016 C 
BRANCH   6   9
ATOM      9  N   UNL     1      35.703 -18.320 -21.094  0.00  0.00    -0.312 N 
ATOM     10  H   UNL     1      36.505 -17.860 -20.756  0.00  0.00    +0.152 HD
BRANCH   9  12
ATOM     11  N   UNL     1      34.328 -16.824 -24.775  0.00  0.00    -0.242 NA
ATOM     12  C   UNL     1      35.242 -17.819 -22.327  0.00  0.00    +0.051 C 
ATOM     13  C   UNL     1      35.360 -16.465 -22.619  0.00  0.00    +0.035 C 
ATOM     14  C   UNL     1      34.666 -18.676 -23.260  0.00  0.00    +0.035 C 
ATOM     15  C   UNL     1      34.892 -16.021 -23.846  0.00  0.00    +0.100 C 
ATOM     16  C   UNL     1      34.230 -18.134 -24.457  0.00  0.00    +0.100 C 
ENDBRANCH   9  12
ENDBRANCH   6   9
ENDBRANCH   1   3
BRANCH   1  17
ATOM     17  C   UNL     1      33.682 -22.277 -16.319  0.00  0.00    +0.092 C 
BRANCH  17  18
ATOM     18  C   UNL     1      34.331 -23.428 -15.529  0.00  0.00    +0.049 C 
BRANCH  18  20
ATOM     19  N   UNL     1      37.645 -22.127 -14.717  0.00  0.00    -0.312 N 
ATOM     20  C   UNL     1      35.730 -23.170 -15.130  0.00  0.00    -0.005 C 
ATOM     21  C   UNL     1      36.664 -24.129 -14.647  0.00  0.00    +0.011 C 
ATOM     22  C   UNL     1      37.858 -23.448 -14.396  0.00  0.00    +0.048 C 
ATOM     23  C   UNL     1      36.363 -21.949 -15.162  0.00  0.00    +0.058 C 
ATOM     24  C   UNL     1      36.609 -25.514 -14.399  0.00  0.00    +0.001 C 
ATOM     25  C   UNL     1      39.003 -24.087 -13.907  0.00  0.00    +0.015 C 
ATOM     26  C   UNL     1      37.747 -26.166 -13.910  0.00  0.00    +0.000 C 
ATOM     27  C   UNL     1      38.925 -25.461 -13.668  0.00  0.00    +0.001 C 
ATOM     28  H   UNL     1      38.318 -21.412 -14.639  0.00  0.00    +0.152 HD
ENDBRANCH  18  20
ENDBRANCH  17  18
ENDBRANCH   1  17
TORSDOF 6
ENDMDL
MODEL 5
REMARK VINA RESULT:     -11.1      2.323      4.067
REMARK  Name = 11609586
REMARK  6 active torsions:
REMARK  status: ('A' for Active; 'I' for Inactive)
REMARK    1  A    between atoms: N_1  and  C_3
REMARK    2  A    between atoms: N_1  and  C_17
REMARK    3  A    between atoms: C_6  and  N_9
REMARK    4  A    between atoms: N_9  and  C_12
REMARK    5  A    between atoms: C_17  and  C_18
REMARK    6  A    between atoms: C_18  and  C_20
REMARK                            x       y       z     vdW  Elec       q    Type
REMARK                         _______ _______ _______ _____ _____    ______ ____
ROOT
ATOM      1  N   UNL     1      33.746 -22.187 -17.663  0.00  0.00    -0.332 N 
ATOM      2  H   UNL     1      32.813 -22.482 -17.775  0.00  0.00    +0.147 HD
ENDROOT
BRANCH   1   3
ATOM      3  C   UNL     1      34.238 -21.231 -18.542  0.00  0.00    +0.045 C 
ATOM      4  C   UNL     1      33.363 -20.420 -19.286  0.00  0.00    +0.016 C 
ATOM      5  C   UNL     1      35.623 -21.052 -18.710  0.00  0.00    +0.016 C 
ATOM      6  C   UNL     1      35.234 -19.295 -20.322  0.00  0.00    +0.048 C 
ATOM      7  C   UNL     1      33.857 -19.460 -20.169  0.00  0.00    +0.016 C 
ATOM      8  C   UNL     1      36.117 -20.091 -19.592  0.00  0.00    +0.016 C 
BRANCH   6   9
ATOM      9  N   UNL     1      35.733 -18.323 -21.213  0.00  0.00    -0.312 N 
ATOM     10  H   UNL     1      36.595 -17.937 -20.937  0.00  0.00    +0.152 HD
BRANCH   9  12
ATOM     11  N   UNL     1      34.260 -16.751 -24.825  0.00  0.00    -0.242 NA
ATOM     12  C   UNL     1      35.239 -17.796 -22.423  0.00  0.00    +0.051 C 
ATOM     13  C   UNL     1      34.614 -18.629 -23.344  0.00  0.00    +0.035 C 
ATOM     14  C   UNL     1      35.376 -16.440 -22.703  0.00  0.00    +0.035 C 
ATOM     15  C   UNL     1      34.145 -18.064 -24.519  0.00  0.00    +0.100 C 
ATOM     16  C   UNL     1      34.873 -15.972 -23.906  0.00  0.00    +0.100 C 
ENDBRANCH   9  12
ENDBRANCH   6   9
ENDBRANCH   1   3
BRANCH   1  17
ATOM     17  C   UNL     1      34.517 -22.770 -16.599  0.00  0.00    +0.092 C 
BRANCH  17  18
ATOM     18  C   UNL     1      34.069 -22.268 -15.215  0.00  0.00    +0.049 C 
BRANCH  18  20
ATOM     19  N   UNL     1      32.057 -24.592 -13.243  0.00  0.00    -0.312 N 
ATOM     20  C   UNL     1      33.039 -23.112 -14.574  0.00  0.00    -0.005 C 
ATOM     21  C   UNL     1      31.652 -23.143 -14.889  0.00  0.00    +0.011 C 
ATOM     22  C   UNL     1      31.058 -24.079 -14.040  0.00  0.00    +0.048 C 
ATOM     23  C   UNL     1      33.257 -24.014 -13.558  0.00  0.00    +0.058 C 
ATOM     24  C   UNL     1      30.841 -22.462 -15.819  0.00  0.00    +0.001 C 
ATOM     25  C   UNL     1      29.690 -24.370 -14.074  0.00  0.00    +0.015 C 
ATOM     26  C   UNL     1      29.471 -22.743 -15.865  0.00  0.00    +0.000 C 
ATOM     27  C   UNL     1      28.906 -23.682 -15.004  0.00  0.00    +0.001 C 
ATOM     28  H   UNL     1      31.927 -25.276 -12.546  0.00  0.00    +0.152 HD
ENDBRANCH  18  20
ENDBRANCH  17  18
ENDBRANCH   1  17
TORSDOF 6
ENDMDL
MODEL 6
REMARK VINA RESULT:     -11.0      4.612      8.074
REMARK  Name = 11609586
REMARK  6 active torsions:
REMARK  status: ('A' for Active; 'I' for Inactive)
REMARK    1  A    between atoms: N_1  and  C_3
REMARK    2  A    between atoms: N_1  and  C_17
REMARK    3  A    between atoms: C_6  and  N_9
REMARK    4  A    between atoms: N_9  and  C_12
REMARK    5  A    between atoms: C_17  and  C_18
REMARK    6  A    between atoms: C_18  and  C_20
REMARK                            x       y       z     vdW  Elec       q    Type
REMARK                         _______ _______ _______ _____ _____    ______ ____
ROOT
ATOM      1  N   UNL     1      35.935 -15.797 -22.509  0.00  0.00    -0.332 N 
ATOM      2  H   UNL     1      36.877 -15.513 -22.476  0.00  0.00    +0.147 HD
ENDROOT
BRANCH   1   3
ATOM      3  C   UNL     1      34.959 -14.856 -22.207  0.00  0.00    +0.045 C 
ATOM      4  C   UNL     1      34.199 -14.256 -23.226  0.00  0.00    +0.016 C 
ATOM      5  C   UNL     1      34.709 -14.481 -20.875  0.00  0.00    +0.016 C 
ATOM      6  C   UNL     1      32.983 -12.952 -21.595  0.00  0.00    +0.048 C 
ATOM      7  C   UNL     1      33.219 -13.311 -22.922  0.00  0.00    +0.016 C 
ATOM      8  C   UNL     1      33.729 -13.537 -20.571  0.00  0.00    +0.016 C 
BRANCH   6   9
ATOM      9  N   UNL     1      31.991 -11.998 -21.288  0.00  0.00    -0.312 N 
ATOM     10  H   UNL     1      31.125 -12.172 -21.724  0.00  0.00    +0.152 HD
BRANCH   9  12
ATOM     11  N   UNL     1      32.004  -8.551 -18.879  0.00  0.00    -0.242 NA
ATOM     12  C   UNL     1      31.995 -10.843 -20.481  0.00  0.00    +0.051 C 
ATOM     13  C   UNL     1      32.142  -9.587 -21.059  0.00  0.00    +0.035 C 
ATOM     14  C   UNL     1      31.853 -10.953 -19.101  0.00  0.00    +0.035 C 
ATOM     15  C   UNL     1      32.140  -8.482 -20.223  0.00  0.00    +0.100 C 
ATOM     16  C   UNL     1      31.863  -9.788 -18.353  0.00  0.00    +0.100 C 
ENDBRANCH   9  12
ENDBRANCH   6   9
ENDBRANCH   1   3
BRANCH   1  17
ATOM     17  C   UNL     1      35.651 -17.160 -22.867  0.00  0.00    +0.092 C 
BRANCH  17  18
ATOM     18  C   UNL     1      34.721 -17.846 -21.850  0.00  0.00    +0.049 C 
BRANCH  18  20
ATOM     19  N   UNL     1      37.040 -19.487 -19.555  0.00  0.00    -0.312 N 
ATOM     20  C   UNL     1      35.430 -18.653 -20.836  0.00  0.00    -0.005 C 
ATOM     21  C   UNL     1      34.855 -19.636 -19.982  0.00  0.00    +0.011 C 
ATOM     22  C   UNL     1      35.887 -20.144 -19.189  0.00  0.00    +0.048 C 
ATOM     23  C   UNL     1      36.774 -18.585 -20.549  0.00  0.00    +0.058 C 
ATOM     24  C   UNL     1      33.553 -20.144 -19.807  0.00  0.00    +0.001 C 
ATOM     25  C   UNL     1      35.680 -21.138 -18.227  0.00  0.00    +0.015 C 
ATOM     26  C   UNL     1      33.331 -21.139 -18.848  0.00  0.00    +0.000 C 
ATOM     27  C   UNL     1      34.380 -21.627 -18.071  0.00  0.00    +0.001 C 
ATOM     28  H   UNL     1      37.928 -19.644 -19.160  0.00  0.00    +0.152 HD
ENDBRANCH  18  20
ENDBRANCH  17  18
ENDBRANCH   1  17
TORSDOF 6
ENDMDL
MODEL 7
REMARK VINA RESULT:     -11.0      2.817     10.348
REMARK  Name = 11609586
REMARK  6 active torsions:
REMARK  status: ('A' for Active; 'I' for Inactive)
REMARK    1  A    between atoms: N_1  and  C_3
REMARK    2  A    between atoms: N_1  and  C_17
REMARK    3  A    between atoms: C_6  and  N_9
REMARK    4  A    between atoms: N_9  and  C_12
REMARK    5  A    between atoms: C_17  and  C_18
REMARK    6  A    between atoms: C_18  and  C_20
REMARK                            x       y       z     vdW  Elec       q    Type
REMARK                         _______ _______ _______ _____ _____    ______ ____
ROOT
ATOM      1  N   UNL     1      36.239 -18.225 -20.813  0.00  0.00    -0.332 N 
ATOM      2  H   UNL     1      37.224 -18.234 -20.797  0.00  0.00    +0.147 HD
ENDROOT
BRANCH   1   3
ATOM      3  C   UNL     1      35.567 -19.232 -20.132  0.00  0.00    +0.045 C 
ATOM      4  C   UNL     1      36.269 -20.157 -19.340  0.00  0.00    +0.016 C 
ATOM      5  C   UNL     1      34.168 -19.349 -20.218  0.00  0.00    +0.016 C 
ATOM      6  C   UNL     1      34.205 -21.268 -18.752  0.00  0.00    +0.048 C 
ATOM      7  C   UNL     1      35.593 -21.168 -18.656  0.00  0.00    +0.016 C 
ATOM      8  C   UNL     1      33.492 -20.358 -19.534  0.00  0.00    +0.016 C 
BRANCH   6   9
ATOM      9  N   UNL     1      33.522 -22.289 -18.059  0.00  0.00    -0.312 N 
ATOM     10  H   UNL     1      33.250 -23.043 -18.631  0.00  0.00    +0.152 HD
BRANCH   9  12
ATOM     11  N   UNL     1      32.419 -22.746 -14.027  0.00  0.00    -0.242 NA
ATOM     12  C   UNL     1      33.153 -22.442 -16.708  0.00  0.00    +0.051 C 
ATOM     13  C   UNL     1      31.821 -22.314 -16.329  0.00  0.00    +0.035 C 
ATOM     14  C   UNL     1      34.118 -22.722 -15.746  0.00  0.00    +0.035 C 
ATOM     15  C   UNL     1      31.508 -22.474 -14.989  0.00  0.00    +0.100 C 
ATOM     16  C   UNL     1      33.703 -22.864 -14.432  0.00  0.00    +0.100 C 
ENDBRANCH   9  12
ENDBRANCH   6   9
ENDBRANCH   1   3
BRANCH   1  17
ATOM     17  C   UNL     1      35.584 -17.172 -21.538  0.00  0.00    +0.092 C 
BRANCH  17  18
ATOM     18  C   UNL     1      35.243 -15.971 -20.637  0.00  0.00    +0.049 C 
BRANCH  18  20
ATOM     19  N   UNL     1      34.442 -13.264 -22.953  0.00  0.00    -0.312 N 
ATOM     20  C   UNL     1      34.741 -14.791 -21.370  0.00  0.00    -0.005 C 
ATOM     21  C   UNL     1      33.768 -13.859 -20.912  0.00  0.00    +0.011 C 
ATOM     22  C   UNL     1      33.599 -12.911 -21.923  0.00  0.00    +0.048 C 
ATOM     23  C   UNL     1      35.136 -14.398 -22.628  0.00  0.00    +0.058 C 
ATOM     24  C   UNL     1      33.012 -13.730 -19.730  0.00  0.00    +0.001 C 
ATOM     25  C   UNL     1      32.710 -11.837 -21.811  0.00  0.00    +0.015 C 
ATOM     26  C   UNL     1      32.118 -12.660 -19.604  0.00  0.00    +0.000 C 
ATOM     27  C   UNL     1      31.971 -11.729 -20.630  0.00  0.00    +0.001 C 
ATOM     28  H   UNL     1      34.534 -12.771 -23.801  0.00  0.00    +0.152 HD
ENDBRANCH  18  20
ENDBRANCH  17  18
ENDBRANCH   1  17
TORSDOF 6
ENDMDL
MODEL 8
REMARK VINA RESULT:     -10.9      2.617      3.976
REMARK  Name = 11609586
REMARK  6 active torsions:
REMARK  status: ('A' for Active; 'I' for Inactive)
REMARK    1  A    between atoms: N_1  and  C_3
REMARK    2  A    between atoms: N_1  and  C_17
REMARK    3  A    between atoms: C_6  and  N_9
REMARK    4  A    between atoms: N_9  and  C_12
REMARK    5  A    between atoms: C_17  and  C_18
REMARK    6  A    between atoms: C_18  and  C_20
REMARK                            x       y       z     vdW  Elec       q    Type
REMARK                         _______ _______ _______ _____ _____    ______ ____
ROOT
ATOM      1  N   UNL     1      35.477 -20.612 -18.658  0.00  0.00    -0.332 N 
ATOM      2  H   UNL     1      35.952 -20.402 -17.820  0.00  0.00    +0.147 HD
ENDROOT
BRANCH   1   3
ATOM      3  C   UNL     1      35.592 -19.719 -19.715  0.00  0.00    +0.045 C 
ATOM      4  C   UNL     1      34.516 -19.505 -20.595  0.00  0.00    +0.016 C 
ATOM      5  C   UNL     1      36.785 -19.007 -19.929  0.00  0.00    +0.016 C 
ATOM      6  C   UNL     1      35.823 -17.909 -21.854  0.00  0.00    +0.048 C 
ATOM      7  C   UNL     1      34.632 -18.608 -21.657  0.00  0.00    +0.016 C 
ATOM      8  C   UNL     1      36.900 -18.109 -20.990  0.00  0.00    +0.016 C 
BRANCH   6   9
ATOM      9  N   UNL     1      35.938 -17.000 -22.926  0.00  0.00    -0.312 N 
ATOM     10  H   UNL     1      36.738 -17.142 -23.481  0.00  0.00    +0.152 HD
BRANCH   9  12
ATOM     11  N   UNL     1      33.532 -13.802 -24.217  0.00  0.00    -0.242 NA
ATOM     12  C   UNL     1      35.132 -15.929 -23.359  0.00  0.00    +0.051 C 
ATOM     13  C   UNL     1      34.874 -14.860 -22.507  0.00  0.00    +0.035 C 
ATOM     14  C   UNL     1      34.589 -15.934 -24.640  0.00  0.00    +0.035 C 
ATOM     15  C   UNL     1      34.076 -13.831 -22.979  0.00  0.00    +0.100 C 
ATOM     16  C   UNL     1      33.805 -14.857 -25.017  0.00  0.00    +0.100 C 
ENDBRANCH   9  12
ENDBRANCH   6   9
ENDBRANCH   1   3
BRANCH   1  17
ATOM     17  C   UNL     1      34.709 -21.826 -18.713  0.00  0.00    +0.092 C 
BRANCH  17  18
ATOM     18  C   UNL     1      33.395 -21.717 -17.918  0.00  0.00    +0.049 C 
BRANCH  18  20
ATOM     19  N   UNL     1      34.217 -23.282 -14.723  0.00  0.00    -0.312 N 
ATOM     20  C   UNL     1      33.448 -22.339 -16.579  0.00  0.00    -0.005 C 
ATOM     21  C   UNL     1      32.343 -22.602 -15.723  0.00  0.00    +0.011 C 
ATOM     22  C   UNL     1      32.852 -23.194 -14.565  0.00  0.00    +0.048 C 
ATOM     23  C   UNL     1      34.586 -22.769 -15.937  0.00  0.00    +0.058 C 
ATOM     24  C   UNL     1      30.953 -22.393 -15.820  0.00  0.00    +0.001 C 
ATOM     25  C   UNL     1      32.039 -23.589 -13.497  0.00  0.00    +0.015 C 
ATOM     26  C   UNL     1      30.127 -22.783 -14.760  0.00  0.00    +0.000 C 
ATOM     27  C   UNL     1      30.664 -23.371 -13.617  0.00  0.00    +0.001 C 
ATOM     28  H   UNL     1      34.839 -23.661 -14.060  0.00  0.00    +0.152 HD
ENDBRANCH  18  20
ENDBRANCH  17  18
ENDBRANCH   1  17
TORSDOF 6
ENDMDL
MODEL 9
REMARK VINA RESULT:     -10.9      2.599     10.551
REMARK  Name = 11609586
REMARK  6 active torsions:
REMARK  status: ('A' for Active; 'I' for Inactive)
REMARK    1  A    between atoms: N_1  and  C_3
REMARK    2  A    between atoms: N_1  and  C_17
REMARK    3  A    between atoms: C_6  and  N_9
REMARK    4  A    between atoms: N_9  and  C_12
REMARK    5  A    between atoms: C_17  and  C_18
REMARK    6  A    between atoms: C_18  and  C_20
REMARK                            x       y       z     vdW  Elec       q    Type
REMARK                         _______ _______ _______ _____ _____    ______ ____
ROOT
ATOM      1  N   UNL     1      35.420 -18.674 -20.824  0.00  0.00    -0.332 N 
ATOM      2  H   UNL     1      36.194 -18.143 -20.525  0.00  0.00    +0.147 HD
ENDROOT
BRANCH   1   3
ATOM      3  C   UNL     1      34.946 -19.670 -19.980  0.00  0.00    +0.045 C 
ATOM      4  C   UNL     1      33.565 -19.894 -19.837  0.00  0.00    +0.016 C 
ATOM      5  C   UNL     1      35.836 -20.477 -19.249  0.00  0.00    +0.016 C 
ATOM      6  C   UNL     1      33.987 -21.687 -18.272  0.00  0.00    +0.048 C 
ATOM      7  C   UNL     1      33.090 -20.894 -18.989  0.00  0.00    +0.016 C 
ATOM      8  C   UNL     1      35.360 -21.478 -18.402  0.00  0.00    +0.016 C 
BRANCH   6   9
ATOM      9  N   UNL     1      33.505 -22.699 -17.417  0.00  0.00    -0.312 N 
ATOM     10  H   UNL     1      33.589 -23.606 -17.789  0.00  0.00    +0.152 HD
BRANCH   9  12
ATOM     11  N   UNL     1      31.781 -22.604 -13.582  0.00  0.00    -0.242 NA
ATOM     12  C   UNL     1      32.927 -22.667 -16.132  0.00  0.00    +0.051 C 
ATOM     13  C   UNL     1      33.712 -22.896 -15.007  0.00  0.00    +0.035 C 
ATOM     14  C   UNL     1      31.569 -22.406 -15.982  0.00  0.00    +0.035 C 
ATOM     15  C   UNL     1      33.097 -22.854 -13.766  0.00  0.00    +0.100 C 
ATOM     16  C   UNL     1      31.050 -22.385 -14.698  0.00  0.00    +0.100 C 
ENDBRANCH   9  12
ENDBRANCH   6   9
ENDBRANCH   1   3
BRANCH   1  17
ATOM     17  C   UNL     1      34.848 -18.372 -22.108  0.00  0.00    +0.092 C 
BRANCH  17  18
ATOM     18  C   UNL     1      35.728 -17.407 -22.923  0.00  0.00    +0.049 C 
BRANCH  18  20
ATOM     19  N   UNL     1      33.803 -15.263 -25.166  0.00  0.00    -0.312 N 
ATOM     20  C   UNL     1      34.972 -16.348 -23.623  0.00  0.00    -0.005 C 
ATOM     21  C   UNL     1      34.687 -15.044 -23.130  0.00  0.00    +0.011 C 
ATOM     22  C   UNL     1      33.953 -14.383 -24.118  0.00  0.00    +0.048 C 
ATOM     23  C   UNL     1      34.416 -16.452 -24.876  0.00  0.00    +0.058 C 
ATOM     24  C   UNL     1      34.984 -14.359 -21.935  0.00  0.00    +0.001 C 
ATOM     25  C   UNL     1      33.500 -13.068 -23.970  0.00  0.00    +0.015 C 
ATOM     26  C   UNL     1      34.537 -13.042 -21.773  0.00  0.00    +0.000 C 
ATOM     27  C   UNL     1      33.806 -12.409 -22.776  0.00  0.00    +0.001 C 
ATOM     28  H   UNL     1      33.326 -15.065 -26.004  0.00  0.00    +0.152 HD
ENDBRANCH  18  20
ENDBRANCH  17  18
ENDBRANCH   1  17
TORSDOF 6
ENDMDL
