MODEL 1
REMARK VINA RESULT:     -12.5      0.000      0.000
REMARK  Name = 42627755
REMARK  2 active torsions:
REMARK  status: ('A' for Active; 'I' for Inactive)
REMARK    1  A    between atoms: N_5  and  C_20
REMARK    2  A    between atoms: C_7  and  C_28
REMARK                            x       y       z     vdW  Elec       q    Type
REMARK                         _______ _______ _______ _____ _____    ______ ____
ROOT
ATOM      1  N   UNL     1      35.740 -21.038 -18.561  0.00  0.00    -0.239 N 
ATOM      2  N   UNL     1      35.063 -21.683 -17.597  0.00  0.00    -0.166 NA
ATOM      3  N   UNL     1      32.665 -21.872 -17.180  0.00  0.00    -0.271 N 
ATOM      4  N   UNL     1      33.641 -23.146 -15.421  0.00  0.00    -0.322 NA
ATOM      5  N   UNL     1      34.558 -24.409 -13.675  0.00  0.00    -0.247 N 
ATOM      6  N   UNL     1      32.227 -24.224 -13.795  0.00  0.00    -0.170 NA
ATOM      7  C   UNL     1      34.941 -20.380 -19.450  0.00  0.00    +0.045 C 
ATOM      8  C   UNL     1      33.652 -20.612 -19.037  0.00  0.00    +0.048 C 
ATOM      9  C   UNL     1      33.787 -21.419 -17.892  0.00  0.00    +0.152 C 
ATOM     10  C   UNL     1      32.529 -22.676 -16.022  0.00  0.00    +0.199 C 
ATOM     11  C   UNL     1      31.249 -22.934 -15.575  0.00  0.00    +0.070 C 
ATOM     12  C   UNL     1      33.420 -23.903 -14.328  0.00  0.00    +0.150 C 
ATOM     13  C   UNL     1      31.157 -23.721 -14.446  0.00  0.00    +0.116 C 
ATOM     14  H   UNL     1      36.723 -21.040 -18.622  0.00  0.00    +0.174 HD
ATOM     15  H   UNL     1      31.808 -21.571 -17.557  0.00  0.00    +0.156 HD
ATOM     16  H   UNL     1      34.349 -24.956 -12.883  0.00  0.00    +0.165 HD
ENDROOT
BRANCH   5  20
ATOM     17  N   UNL     1      39.243 -25.982 -13.711  0.00  0.00    -0.315 N 
ATOM     18  N   UNL     1      40.032 -24.114 -14.621  0.00  0.00    -0.315 N 
ATOM     19  C   UNL     1      38.151 -25.173 -13.890  0.00  0.00    +0.060 C 
ATOM     20  C   UNL     1      35.943 -24.288 -13.935  0.00  0.00    +0.059 C 
ATOM     21  C   UNL     1      38.670 -24.013 -14.460  0.00  0.00    +0.059 C 
ATOM     22  C   UNL     1      36.796 -25.349 -13.612  0.00  0.00    +0.031 C 
ATOM     23  C   UNL     1      36.433 -23.113 -14.507  0.00  0.00    +0.017 C 
ATOM     24  C   UNL     1      37.798 -22.957 -14.778  0.00  0.00    +0.017 C 
ATOM     25  C   UNL     1      40.343 -25.305 -14.162  0.00  0.00    +0.182 C 
ATOM     26  H   UNL     1      39.237 -26.888 -13.326  0.00  0.00    +0.148 HD
ATOM     27  H   UNL     1      40.643 -23.440 -14.999  0.00  0.00    +0.148 HD
ENDBRANCH   5  20
BRANCH   7  28
ATOM     28  C   UNL     1      35.395 -19.559 -20.648  0.00  0.00    +0.037 C 
ATOM     29  C   UNL     1      36.607 -18.686 -20.508  0.00  0.00    +0.006 C 
ATOM     30  C   UNL     1      35.243 -18.066 -20.599  0.00  0.00    +0.006 C 
ENDBRANCH   7  28
TORSDOF 2
ENDMDL
MODEL 2
REMARK VINA RESULT:     -11.6      1.742      5.438
REMARK  Name = 42627755
REMARK  2 active torsions:
REMARK  status: ('A' for Active; 'I' for Inactive)
REMARK    1  A    between atoms: N_5  and  C_20
REMARK    2  A    between atoms: C_7  and  C_28
REMARK                            x       y       z     vdW  Elec       q    Type
REMARK                         _______ _______ _______ _____ _____    ______ ____
ROOT
ATOM      1  N   UNL     1      34.690 -20.847 -18.569  0.00  0.00    -0.239 N 
ATOM      2  N   UNL     1      35.070 -21.480 -17.447  0.00  0.00    -0.166 NA
ATOM      3  N   UNL     1      37.284 -21.815 -16.472  0.00  0.00    -0.271 N 
ATOM      4  N   UNL     1      35.825 -22.904 -14.937  0.00  0.00    -0.322 NA
ATOM      5  N   UNL     1      34.428 -23.987 -13.401  0.00  0.00    -0.247 N 
ATOM      6  N   UNL     1      36.731 -23.979 -12.980  0.00  0.00    -0.170 NA
ATOM      7  C   UNL     1      35.725 -20.306 -19.274  0.00  0.00    +0.045 C 
ATOM      8  C   UNL     1      36.861 -20.606 -18.562  0.00  0.00    +0.048 C 
ATOM      9  C   UNL     1      36.398 -21.330 -17.448  0.00  0.00    +0.152 C 
ATOM     10  C   UNL     1      37.082 -22.555 -15.281  0.00  0.00    +0.199 C 
ATOM     11  C   UNL     1      38.197 -22.876 -14.536  0.00  0.00    +0.070 C 
ATOM     12  C   UNL     1      35.724 -23.605 -13.791  0.00  0.00    +0.150 C 
ATOM     13  C   UNL     1      37.960 -23.597 -13.384  0.00  0.00    +0.116 C 
ATOM     14  H   UNL     1      33.751 -20.779 -18.857  0.00  0.00    +0.174 HD
ATOM     15  H   UNL     1      38.227 -21.600 -16.650  0.00  0.00    +0.156 HD
ATOM     16  H   UNL     1      34.402 -24.496 -12.559  0.00  0.00    +0.165 HD
ENDROOT
BRANCH   5  20
ATOM     17  N   UNL     1      29.569 -24.752 -13.883  0.00  0.00    -0.315 N 
ATOM     18  N   UNL     1      29.346 -23.313 -15.562  0.00  0.00    -0.315 N 
ATOM     19  C   UNL     1      30.825 -24.249 -14.103  0.00  0.00    +0.060 C 
ATOM     20  C   UNL     1      33.155 -23.782 -13.982  0.00  0.00    +0.059 C 
ATOM     21  C   UNL     1      30.659 -23.352 -15.155  0.00  0.00    +0.059 C 
ATOM     22  C   UNL     1      32.055 -24.492 -13.490  0.00  0.00    +0.031 C 
ATOM     23  C   UNL     1      33.021 -22.876 -15.036  0.00  0.00    +0.017 C 
ATOM     24  C   UNL     1      31.776 -22.648 -15.636  0.00  0.00    +0.017 C 
ATOM     25  C   UNL     1      28.721 -24.164 -14.780  0.00  0.00    +0.182 C 
ATOM     26  H   UNL     1      29.322 -25.419 -13.203  0.00  0.00    +0.148 HD
ATOM     27  H   UNL     1      28.958 -22.765 -16.283  0.00  0.00    +0.148 HD
ENDBRANCH   5  20
BRANCH   7  28
ATOM     28  C   UNL     1      35.630 -19.531 -20.581  0.00  0.00    +0.037 C 
ATOM     29  C   UNL     1      36.606 -18.420 -20.834  0.00  0.00    +0.006 C 
ATOM     30  C   UNL     1      35.168 -18.104 -20.541  0.00  0.00    +0.006 C 
ENDBRANCH   7  28
TORSDOF 2
ENDMDL
MODEL 3
REMARK VINA RESULT:     -11.6      1.947      7.002
REMARK  Name = 42627755
REMARK  2 active torsions:
REMARK  status: ('A' for Active; 'I' for Inactive)
REMARK    1  A    between atoms: N_5  and  C_20
REMARK    2  A    between atoms: C_7  and  C_28
REMARK                            x       y       z     vdW  Elec       q    Type
REMARK                         _______ _______ _______ _____ _____    ______ ____
ROOT
ATOM      1  N   UNL     1      31.275 -22.323 -16.429  0.00  0.00    -0.239 N 
ATOM      2  N   UNL     1      32.598 -22.304 -16.196  0.00  0.00    -0.166 NA
ATOM      3  N   UNL     1      33.908 -23.220 -14.351  0.00  0.00    -0.271 N 
ATOM      4  N   UNL     1      35.547 -22.219 -15.758  0.00  0.00    -0.322 NA
ATOM      5  N   UNL     1      37.192 -21.247 -17.112  0.00  0.00    -0.247 N 
ATOM      6  N   UNL     1      37.874 -22.308 -15.139  0.00  0.00    -0.170 NA
ATOM      7  C   UNL     1      30.553 -22.962 -15.464  0.00  0.00    +0.045 C 
ATOM      8  C   UNL     1      31.470 -23.393 -14.536  0.00  0.00    +0.048 C 
ATOM      9  C   UNL     1      32.711 -22.959 -15.037  0.00  0.00    +0.152 C 
ATOM     10  C   UNL     1      35.259 -22.902 -14.631  0.00  0.00    +0.199 C 
ATOM     11  C   UNL     1      36.211 -23.317 -13.723  0.00  0.00    +0.070 C 
ATOM     12  C   UNL     1      36.855 -21.959 -15.947  0.00  0.00    +0.150 C 
ATOM     13  C   UNL     1      37.515 -22.989 -14.031  0.00  0.00    +0.116 C 
ATOM     14  H   UNL     1      30.863 -21.912 -17.225  0.00  0.00    +0.174 HD
ATOM     15  H   UNL     1      33.783 -23.719 -13.512  0.00  0.00    +0.156 HD
ATOM     16  H   UNL     1      38.158 -21.081 -17.209  0.00  0.00    +0.165 HD
ENDROOT
BRANCH   5  20
ATOM     17  N   UNL     1      36.374 -18.367 -21.043  0.00  0.00    -0.315 N 
ATOM     18  N   UNL     1      34.288 -19.078 -21.332  0.00  0.00    -0.315 N 
ATOM     19  C   UNL     1      36.160 -19.286 -20.050  0.00  0.00    +0.060 C 
ATOM     20  C   UNL     1      36.415 -20.725 -18.172  0.00  0.00    +0.059 C 
ATOM     21  C   UNL     1      34.851 -19.716 -20.251  0.00  0.00    +0.059 C 
ATOM     22  C   UNL     1      36.974 -19.765 -19.023  0.00  0.00    +0.031 C 
ATOM     23  C   UNL     1      35.106 -21.175 -18.348  0.00  0.00    +0.017 C 
ATOM     24  C   UNL     1      34.306 -20.680 -19.386  0.00  0.00    +0.017 C 
ATOM     25  C   UNL     1      35.226 -18.276 -21.782  0.00  0.00    +0.182 C 
ATOM     26  H   UNL     1      37.204 -17.861 -21.197  0.00  0.00    +0.148 HD
ATOM     27  H   UNL     1      33.378 -19.196 -21.690  0.00  0.00    +0.148 HD
ENDBRANCH   5  20
BRANCH   7  28
ATOM     28  C   UNL     1      29.043 -23.153 -15.432  0.00  0.00    +0.037 C 
ATOM     29  C   UNL     1      28.228 -22.655 -16.588  0.00  0.00    +0.006 C 
ATOM     30  C   UNL     1      28.168 -21.945 -15.267  0.00  0.00    +0.006 C 
ENDBRANCH   7  28
TORSDOF 2
ENDMDL
MODEL 4
REMARK VINA RESULT:     -11.5      1.973      5.565
REMARK  Name = 42627755
REMARK  2 active torsions:
REMARK  status: ('A' for Active; 'I' for Inactive)
REMARK    1  A    between atoms: N_5  and  C_20
REMARK    2  A    between atoms: C_7  and  C_28
REMARK                            x       y       z     vdW  Elec       q    Type
REMARK                         _______ _______ _______ _____ _____    ______ ____
ROOT
ATOM      1  N   UNL     1      34.452 -21.324 -18.179  0.00  0.00    -0.239 N 
ATOM      2  N   UNL     1      34.744 -21.826 -16.968  0.00  0.00    -0.166 NA
ATOM      3  N   UNL     1      36.868 -21.988 -15.775  0.00  0.00    -0.271 N 
ATOM      4  N   UNL     1      35.303 -22.961 -14.267  0.00  0.00    -0.322 NA
ATOM      5  N   UNL     1      33.799 -23.927 -12.754  0.00  0.00    -0.247 N 
ATOM      6  N   UNL     1      36.054 -23.800 -12.137  0.00  0.00    -0.170 NA
ATOM      7  C   UNL     1      35.533 -20.825 -18.845  0.00  0.00    +0.045 C 
ATOM      8  C   UNL     1      36.607 -21.013 -18.009  0.00  0.00    +0.048 C 
ATOM      9  C   UNL     1      36.063 -21.634 -16.870  0.00  0.00    +0.152 C 
ATOM     10  C   UNL     1      36.577 -22.608 -14.536  0.00  0.00    +0.199 C 
ATOM     11  C   UNL     1      37.628 -22.815 -13.667  0.00  0.00    +0.070 C 
ATOM     12  C   UNL     1      35.116 -23.544 -13.067  0.00  0.00    +0.150 C 
ATOM     13  C   UNL     1      37.306 -23.422 -12.471  0.00  0.00    +0.116 C 
ATOM     14  H   UNL     1      33.540 -21.317 -18.553  0.00  0.00    +0.174 HD
ATOM     15  H   UNL     1      37.818 -21.761 -15.892  0.00  0.00    +0.156 HD
ATOM     16  H   UNL     1      33.709 -24.347 -11.868  0.00  0.00    +0.165 HD
ENDROOT
BRANCH   5  20
ATOM     17  N   UNL     1      30.768 -22.021 -16.160  0.00  0.00    -0.315 N 
ATOM     18  N   UNL     1      29.079 -23.370 -15.646  0.00  0.00    -0.315 N 
ATOM     19  C   UNL     1      31.230 -22.812 -15.141  0.00  0.00    +0.060 C 
ATOM     20  C   UNL     1      32.579 -23.823 -13.462  0.00  0.00    +0.059 C 
ATOM     21  C   UNL     1      30.158 -23.646 -14.837  0.00  0.00    +0.059 C 
ATOM     22  C   UNL     1      32.456 -22.868 -14.477  0.00  0.00    +0.031 C 
ATOM     23  C   UNL     1      31.522 -24.673 -13.134  0.00  0.00    +0.017 C 
ATOM     24  C   UNL     1      30.299 -24.599 -13.814  0.00  0.00    +0.017 C 
ATOM     25  C   UNL     1      29.479 -22.392 -16.426  0.00  0.00    +0.182 C 
ATOM     26  H   UNL     1      31.274 -21.311 -16.619  0.00  0.00    +0.148 HD
ATOM     27  H   UNL     1      28.199 -23.811 -15.641  0.00  0.00    +0.148 HD
ENDBRANCH   5  20
BRANCH   7  28
ATOM     28  C   UNL     1      35.538 -20.191 -20.229  0.00  0.00    +0.037 C 
ATOM     29  C   UNL     1      36.130 -18.823 -20.394  0.00  0.00    +0.006 C 
ATOM     30  C   UNL     1      34.644 -19.012 -20.485  0.00  0.00    +0.006 C 
ENDBRANCH   7  28
TORSDOF 2
ENDMDL
MODEL 5
REMARK VINA RESULT:     -11.2      2.005      6.730
REMARK  Name = 42627755
REMARK  2 active torsions:
REMARK  status: ('A' for Active; 'I' for Inactive)
REMARK    1  A    between atoms: N_5  and  C_20
REMARK    2  A    between atoms: C_7  and  C_28
REMARK                            x       y       z     vdW  Elec       q    Type
REMARK                         _______ _______ _______ _____ _____    ______ ____
ROOT
ATOM      1  N   UNL     1      30.793 -22.402 -16.257  0.00  0.00    -0.239 N 
ATOM      2  N   UNL     1      32.092 -22.501 -15.927  0.00  0.00    -0.166 NA
ATOM      3  N   UNL     1      33.179 -23.566 -14.018  0.00  0.00    -0.271 N 
ATOM      4  N   UNL     1      34.996 -22.674 -15.271  0.00  0.00    -0.322 NA
ATOM      5  N   UNL     1      36.814 -21.814 -16.471  0.00  0.00    -0.247 N 
ATOM      6  N   UNL     1      37.255 -22.974 -14.486  0.00  0.00    -0.170 NA
ATOM      7  C   UNL     1      29.951 -23.000 -15.367  0.00  0.00    +0.045 C 
ATOM      8  C   UNL     1      30.755 -23.528 -14.386  0.00  0.00    +0.048 C 
ATOM      9  C   UNL     1      32.062 -23.190 -14.782  0.00  0.00    +0.152 C 
ATOM     10  C   UNL     1      34.569 -23.357 -14.189  0.00  0.00    +0.199 C 
ATOM     11  C   UNL     1      35.412 -23.872 -13.226  0.00  0.00    +0.070 C 
ATOM     12  C   UNL     1      36.332 -22.522 -15.356  0.00  0.00    +0.150 C 
ATOM     13  C   UNL     1      36.758 -23.648 -13.428  0.00  0.00    +0.116 C 
ATOM     14  H   UNL     1      30.478 -21.939 -17.068  0.00  0.00    +0.174 HD
ATOM     15  H   UNL     1      32.950 -24.073 -13.206  0.00  0.00    +0.156 HD
ATOM     16  H   UNL     1      37.794 -21.727 -16.492  0.00  0.00    +0.165 HD
ENDROOT
BRANCH   5  20
ATOM     17  N   UNL     1      32.886 -20.574 -19.202  0.00  0.00    -0.315 N 
ATOM     18  N   UNL     1      34.085 -19.479 -20.721  0.00  0.00    -0.315 N 
ATOM     19  C   UNL     1      34.187 -20.679 -18.786  0.00  0.00    +0.060 C 
ATOM     20  C   UNL     1      36.164 -21.203 -17.569  0.00  0.00    +0.059 C 
ATOM     21  C   UNL     1      34.917 -19.988 -19.749  0.00  0.00    +0.059 C 
ATOM     22  C   UNL     1      34.773 -21.300 -17.682  0.00  0.00    +0.031 C 
ATOM     23  C   UNL     1      36.922 -20.517 -18.519  0.00  0.00    +0.017 C 
ATOM     24  C   UNL     1      36.313 -19.900 -19.620  0.00  0.00    +0.017 C 
ATOM     25  C   UNL     1      32.876 -19.849 -20.362  0.00  0.00    +0.182 C 
ATOM     26  H   UNL     1      32.099 -20.952 -18.749  0.00  0.00    +0.148 HD
ATOM     27  H   UNL     1      34.340 -18.952 -21.512  0.00  0.00    +0.148 HD
ENDBRANCH   5  20
BRANCH   7  28
ATOM     28  C   UNL     1      28.432 -23.064 -15.451  0.00  0.00    +0.037 C 
ATOM     29  C   UNL     1      27.757 -22.570 -16.696  0.00  0.00    +0.006 C 
ATOM     30  C   UNL     1      27.654 -21.780 -15.424  0.00  0.00    +0.006 C 
ENDBRANCH   7  28
TORSDOF 2
ENDMDL
MODEL 6
REMARK VINA RESULT:     -10.8      1.871      5.404
REMARK  Name = 42627755
REMARK  2 active torsions:
REMARK  status: ('A' for Active; 'I' for Inactive)
REMARK    1  A    between atoms: N_5  and  C_20
REMARK    2  A    between atoms: C_7  and  C_28
REMARK                            x       y       z     vdW  Elec       q    Type
REMARK                         _______ _______ _______ _____ _____    ______ ____
ROOT
ATOM      1  N   UNL     1      31.938 -23.352 -14.754  0.00  0.00    -0.239 N 
ATOM      2  N   UNL     1      33.004 -22.879 -15.421  0.00  0.00    -0.166 NA
ATOM      3  N   UNL     1      33.163 -21.722 -17.565  0.00  0.00    -0.271 N 
ATOM      4  N   UNL     1      35.425 -21.858 -16.833  0.00  0.00    -0.322 NA
ATOM      5  N   UNL     1      37.663 -21.969 -16.152  0.00  0.00    -0.247 N 
ATOM      6  N   UNL     1      37.184 -20.936 -18.198  0.00  0.00    -0.170 NA
ATOM      7  C   UNL     1      30.751 -23.146 -15.393  0.00  0.00    +0.045 C 
ATOM      8  C   UNL     1      31.064 -22.491 -16.560  0.00  0.00    +0.048 C 
ATOM      9  C   UNL     1      32.463 -22.354 -16.525  0.00  0.00    +0.152 C 
ATOM     10  C   UNL     1      34.540 -21.460 -17.770  0.00  0.00    +0.199 C 
ATOM     11  C   UNL     1      34.896 -20.804 -18.930  0.00  0.00    +0.070 C 
ATOM     12  C   UNL     1      36.712 -21.568 -17.107  0.00  0.00    +0.150 C 
ATOM     13  C   UNL     1      36.245 -20.566 -19.094  0.00  0.00    +0.116 C 
ATOM     14  H   UNL     1      32.007 -23.805 -13.882  0.00  0.00    +0.174 HD
ATOM     15  H   UNL     1      32.585 -21.400 -18.293  0.00  0.00    +0.156 HD
ATOM     16  H   UNL     1      38.588 -21.737 -16.393  0.00  0.00    +0.165 HD
ENDROOT
BRANCH   5  20
ATOM     17  N   UNL     1      35.552 -22.957 -11.795  0.00  0.00    -0.315 N 
ATOM     18  N   UNL     1      37.051 -24.500 -11.235  0.00  0.00    -0.315 N 
ATOM     19  C   UNL     1      36.429 -23.013 -12.846  0.00  0.00    +0.060 C 
ATOM     20  C   UNL     1      37.549 -22.640 -14.912  0.00  0.00    +0.059 C 
ATOM     21  C   UNL     1      37.355 -23.983 -12.474  0.00  0.00    +0.059 C 
ATOM     22  C   UNL     1      36.491 -22.319 -14.055  0.00  0.00    +0.031 C 
ATOM     23  C   UNL     1      38.493 -23.608 -14.567  0.00  0.00    +0.017 C 
ATOM     24  C   UNL     1      38.412 -24.292 -13.347  0.00  0.00    +0.017 C 
ATOM     25  C   UNL     1      35.966 -23.863 -10.857  0.00  0.00    +0.182 C 
ATOM     26  H   UNL     1      34.765 -22.370 -11.725  0.00  0.00    +0.148 HD
ATOM     27  H   UNL     1      37.540 -25.196 -10.740  0.00  0.00    +0.148 HD
ENDBRANCH   5  20
BRANCH   7  28
ATOM     28  C   UNL     1      29.370 -23.560 -14.906  0.00  0.00    +0.037 C 
ATOM     29  C   UNL     1      28.289 -23.796 -15.919  0.00  0.00    +0.006 C 
ATOM     30  C   UNL     1      28.237 -22.583 -15.036  0.00  0.00    +0.006 C 
ENDBRANCH   7  28
TORSDOF 2
ENDMDL
