MODEL 1
REMARK VINA RESULT:     -12.1      0.000      0.000
REMARK  Name = 23586146
REMARK  5 active torsions:
REMARK  status: ('A' for Active; 'I' for Inactive)
REMARK    1  A    between atoms: N_1  and  C_12
REMARK    2  A    between atoms: C_8  and  N_18
REMARK    3  A    between atoms: N_18  and  C_20
REMARK    4  A    between atoms: C_23  and  S_26
REMARK    5  A    between atoms: S_26  and  N_29
REMARK                            x       y       z     vdW  Elec       q    Type
REMARK                         _______ _______ _______ _____ _____    ______ ____
ROOT
ATOM      1  N   UNL     1      35.903 -23.813 -13.739  0.00  0.00    -0.309 N 
ATOM      2  N   UNL     1      33.660 -23.345 -13.603  0.00  0.00    -0.321 NA
ATOM      3  N   UNL     1      32.488 -22.693 -15.596  0.00  0.00    -0.106 N 
ATOM      4  N   UNL     1      31.225 -22.343 -15.957  0.00  0.00    -0.139 NA
ATOM      5  N   UNL     1      31.303 -22.800 -13.728  0.00  0.00    -0.145 NA
ATOM      6  C   UNL     1      34.752 -23.444 -14.324  0.00  0.00    +0.196 C 
ATOM      7  C   UNL     1      34.781 -23.158 -15.801  0.00  0.00    +0.081 C 
ATOM      8  C   UNL     1      33.634 -22.789 -16.389  0.00  0.00    +0.140 C 
ATOM      9  C   UNL     1      32.511 -22.969 -14.227  0.00  0.00    +0.176 C 
ATOM     10  C   UNL     1      30.567 -22.426 -14.804  0.00  0.00    +0.230 C 
ATOM     11  H   UNL     1      36.716 -23.866 -14.291  0.00  0.00    +0.149 HD
ENDROOT
BRANCH   1  12
ATOM     12  C   UNL     1      36.000 -24.136 -12.328  0.00  0.00    +0.071 C 
ATOM     13  C   UNL     1      37.077 -25.202 -12.105  0.00  0.00    +0.020 C 
ATOM     14  C   UNL     1      36.288 -22.868 -11.517  0.00  0.00    +0.020 C 
ATOM     15  C   UNL     1      38.494 -24.665 -12.314  0.00  0.00    +0.002 C 
ATOM     16  C   UNL     1      37.707 -22.340 -11.728  0.00  0.00    +0.002 C 
ATOM     17  C   UNL     1      38.754 -23.420 -11.473  0.00  0.00    +0.000 C 
ENDBRANCH   1  12
BRANCH   8  18
ATOM     18  N   UNL     1      33.511 -22.498 -17.718  0.00  0.00    -0.299 N 
ATOM     19  H   UNL     1      32.920 -23.092 -18.234  0.00  0.00    +0.153 HD
BRANCH  18  20
ATOM     20  C   UNL     1      34.116 -21.463 -18.439  0.00  0.00    +0.049 C 
ATOM     21  C   UNL     1      33.335 -20.594 -19.202  0.00  0.00    +0.016 C 
ATOM     22  C   UNL     1      35.500 -21.299 -18.396  0.00  0.00    +0.016 C 
ATOM     23  C   UNL     1      35.323 -19.399 -19.877  0.00  0.00    +0.122 C 
ATOM     24  C   UNL     1      33.938 -19.562 -19.920  0.00  0.00    +0.021 C 
ATOM     25  C   UNL     1      36.103 -20.268 -19.115  0.00  0.00    +0.021 C 
BRANCH  23  26
ATOM     26  S   UNL     1      36.077 -18.108 -20.777  0.00  0.00    +0.057 S 
ATOM     27  O   UNL     1      35.643 -16.838 -20.211  0.00  0.00    -0.153 OA
ATOM     28  O   UNL     1      37.500 -18.396 -20.899  0.00  0.00    -0.153 OA
BRANCH  26  29
ATOM     29  N   UNL     1      35.345 -18.306 -22.309  0.00  0.00    -0.203 NA
ATOM     30  H   UNL     1      35.896 -18.955 -22.868  0.00  0.00    +0.144 HD
ATOM     31  H   UNL     1      35.299 -17.404 -22.782  0.00  0.00    +0.144 HD
ENDBRANCH  26  29
ENDBRANCH  23  26
ENDBRANCH  18  20
ENDBRANCH   8  18
TORSDOF 5
ENDMDL
MODEL 2
REMARK VINA RESULT:     -11.1      0.650      1.366
REMARK  Name = 23586146
REMARK  5 active torsions:
REMARK  status: ('A' for Active; 'I' for Inactive)
REMARK    1  A    between atoms: N_1  and  C_12
REMARK    2  A    between atoms: C_8  and  N_18
REMARK    3  A    between atoms: N_18  and  C_20
REMARK    4  A    between atoms: C_23  and  S_26
REMARK    5  A    between atoms: S_26  and  N_29
REMARK                            x       y       z     vdW  Elec       q    Type
REMARK                         _______ _______ _______ _____ _____    ______ ____
ROOT
ATOM      1  N   UNL     1      36.528 -22.704 -13.619  0.00  0.00    -0.309 N 
ATOM      2  N   UNL     1      34.236 -22.817 -13.573  0.00  0.00    -0.321 NA
ATOM      3  N   UNL     1      33.024 -22.650 -15.641  0.00  0.00    -0.106 N 
ATOM      4  N   UNL     1      31.731 -22.665 -16.059  0.00  0.00    -0.139 NA
ATOM      5  N   UNL     1      31.825 -22.905 -13.797  0.00  0.00    -0.145 NA
ATOM      6  C   UNL     1      35.347 -22.691 -14.259  0.00  0.00    +0.196 C 
ATOM      7  C   UNL     1      35.367 -22.527 -15.755  0.00  0.00    +0.081 C 
ATOM      8  C   UNL     1      34.191 -22.513 -16.398  0.00  0.00    +0.140 C 
ATOM      9  C   UNL     1      33.057 -22.798 -14.253  0.00  0.00    +0.176 C 
ATOM     10  C   UNL     1      31.066 -22.820 -14.918  0.00  0.00    +0.230 C 
ATOM     11  H   UNL     1      37.351 -22.592 -14.147  0.00  0.00    +0.149 HD
ENDROOT
BRANCH   1  12
ATOM     12  C   UNL     1      36.642 -22.876 -12.183  0.00  0.00    +0.071 C 
ATOM     13  C   UNL     1      36.035 -24.219 -11.764  0.00  0.00    +0.020 C 
ATOM     14  C   UNL     1      38.109 -22.764 -11.756  0.00  0.00    +0.020 C 
ATOM     15  C   UNL     1      36.881 -25.414 -12.205  0.00  0.00    +0.002 C 
ATOM     16  C   UNL     1      38.947 -23.964 -12.196  0.00  0.00    +0.002 C 
ATOM     17  C   UNL     1      38.328 -25.282 -11.741  0.00  0.00    +0.000 C 
ENDBRANCH   1  12
BRANCH   8  18
ATOM     18  N   UNL     1      34.056 -22.372 -17.750  0.00  0.00    -0.299 N 
ATOM     19  H   UNL     1      33.602 -23.111 -18.215  0.00  0.00    +0.153 HD
BRANCH  18  20
ATOM     20  C   UNL     1      34.479 -21.311 -18.558  0.00  0.00    +0.049 C 
ATOM     21  C   UNL     1      35.842 -21.067 -18.732  0.00  0.00    +0.016 C 
ATOM     22  C   UNL     1      33.539 -20.497 -19.189  0.00  0.00    +0.016 C 
ATOM     23  C   UNL     1      35.323 -19.196 -20.169  0.00  0.00    +0.122 C 
ATOM     24  C   UNL     1      36.264 -20.010 -19.539  0.00  0.00    +0.021 C 
ATOM     25  C   UNL     1      33.961 -19.440 -19.995  0.00  0.00    +0.021 C 
BRANCH  23  26
ATOM     26  S   UNL     1      35.852 -17.873 -21.178  0.00  0.00    +0.057 S 
ATOM     27  O   UNL     1      35.393 -16.627 -20.579  0.00  0.00    -0.153 OA
ATOM     28  O   UNL     1      37.266 -18.054 -21.477  0.00  0.00    -0.153 OA
BRANCH  26  29
ATOM     29  N   UNL     1      34.949 -18.165 -22.599  0.00  0.00    -0.203 NA
ATOM     30  H   UNL     1      35.583 -18.278 -23.388  0.00  0.00    +0.144 HD
ATOM     31  H   UNL     1      34.326 -17.376 -22.774  0.00  0.00    +0.144 HD
ENDBRANCH  26  29
ENDBRANCH  23  26
ENDBRANCH  18  20
ENDBRANCH   8  18
TORSDOF 5
ENDMDL
MODEL 3
REMARK VINA RESULT:     -10.4      1.715      5.153
REMARK  Name = 23586146
REMARK  5 active torsions:
REMARK  status: ('A' for Active; 'I' for Inactive)
REMARK    1  A    between atoms: N_1  and  C_12
REMARK    2  A    between atoms: C_8  and  N_18
REMARK    3  A    between atoms: N_18  and  C_20
REMARK    4  A    between atoms: C_23  and  S_26
REMARK    5  A    between atoms: S_26  and  N_29
REMARK                            x       y       z     vdW  Elec       q    Type
REMARK                         _______ _______ _______ _____ _____    ______ ____
ROOT
ATOM      1  N   UNL     1      31.501 -22.907 -15.782  0.00  0.00    -0.309 N 
ATOM      2  N   UNL     1      33.339 -22.976 -14.409  0.00  0.00    -0.321 NA
ATOM      3  N   UNL     1      35.501 -22.491 -15.339  0.00  0.00    -0.106 N 
ATOM      4  N   UNL     1      36.791 -22.419 -14.915  0.00  0.00    -0.139 NA
ATOM      5  N   UNL     1      35.428 -22.982 -13.180  0.00  0.00    -0.145 NA
ATOM      6  C   UNL     1      32.825 -22.776 -15.599  0.00  0.00    +0.196 C 
ATOM      7  C   UNL     1      33.660 -22.403 -16.795  0.00  0.00    +0.081 C 
ATOM      8  C   UNL     1      34.983 -22.273 -16.618  0.00  0.00    +0.140 C 
ATOM      9  C   UNL     1      34.685 -22.836 -14.260  0.00  0.00    +0.176 C 
ATOM     10  C   UNL     1      36.683 -22.721 -13.625  0.00  0.00    +0.230 C 
ATOM     11  H   UNL     1      31.134 -22.769 -16.684  0.00  0.00    +0.149 HD
ENDROOT
BRANCH   1  12
ATOM     12  C   UNL     1      30.588 -23.241 -14.705  0.00  0.00    +0.071 C 
ATOM     13  C   UNL     1      29.810 -21.996 -14.268  0.00  0.00    +0.020 C 
ATOM     14  C   UNL     1      29.647 -24.367 -15.145  0.00  0.00    +0.020 C 
ATOM     15  C   UNL     1      28.782 -21.546 -15.307  0.00  0.00    +0.002 C 
ATOM     16  C   UNL     1      28.619 -23.909 -16.180  0.00  0.00    +0.002 C 
ATOM     17  C   UNL     1      27.847 -22.683 -15.702  0.00  0.00    +0.000 C 
ENDBRANCH   1  12
BRANCH   8  18
ATOM     18  N   UNL     1      35.861 -21.940 -17.609  0.00  0.00    -0.299 N 
ATOM     19  H   UNL     1      36.674 -22.492 -17.665  0.00  0.00    +0.153 HD
BRANCH  18  20
ATOM     20  C   UNL     1      35.753 -20.915 -18.556  0.00  0.00    +0.049 C 
ATOM     21  C   UNL     1      36.893 -20.222 -18.967  0.00  0.00    +0.016 C 
ATOM     22  C   UNL     1      34.507 -20.585 -19.088  0.00  0.00    +0.016 C 
ATOM     23  C   UNL     1      35.538 -18.872 -20.443  0.00  0.00    +0.122 C 
ATOM     24  C   UNL     1      36.785 -19.201 -19.911  0.00  0.00    +0.021 C 
ATOM     25  C   UNL     1      34.400 -19.564 -20.032  0.00  0.00    +0.021 C 
BRANCH  23  26
ATOM     26  S   UNL     1      35.404 -17.593 -21.624  0.00  0.00    +0.057 S 
ATOM     27  O   UNL     1      34.546 -18.056 -22.707  0.00  0.00    -0.153 OA
ATOM     28  O   UNL     1      35.088 -16.352 -20.931  0.00  0.00    -0.153 OA
BRANCH  26  29
ATOM     29  N   UNL     1      37.013 -17.508 -22.196  0.00  0.00    -0.203 NA
ATOM     30  H   UNL     1      37.657 -17.669 -21.423  0.00  0.00    +0.144 HD
ATOM     31  H   UNL     1      37.183 -16.584 -22.594  0.00  0.00    +0.144 HD
ENDBRANCH  26  29
ENDBRANCH  23  26
ENDBRANCH  18  20
ENDBRANCH   8  18
TORSDOF 5
ENDMDL
MODEL 4
REMARK VINA RESULT:     -10.2      5.794      9.234
REMARK  Name = 23586146
REMARK  5 active torsions:
REMARK  status: ('A' for Active; 'I' for Inactive)
REMARK    1  A    between atoms: N_1  and  C_12
REMARK    2  A    between atoms: C_8  and  N_18
REMARK    3  A    between atoms: N_18  and  C_20
REMARK    4  A    between atoms: C_23  and  S_26
REMARK    5  A    between atoms: S_26  and  N_29
REMARK                            x       y       z     vdW  Elec       q    Type
REMARK                         _______ _______ _______ _____ _____    ______ ____
ROOT
ATOM      1  N   UNL     1      35.323 -19.037 -20.058  0.00  0.00    -0.309 N 
ATOM      2  N   UNL     1      34.802 -18.591 -22.249  0.00  0.00    -0.321 NA
ATOM      3  N   UNL     1      34.830 -16.311 -23.006  0.00  0.00    -0.106 N 
ATOM      4  N   UNL     1      34.601 -15.625 -24.157  0.00  0.00    -0.139 NA
ATOM      5  N   UNL     1      34.294 -17.855 -24.501  0.00  0.00    -0.145 NA
ATOM      6  C   UNL     1      35.151 -18.159 -21.060  0.00  0.00    +0.196 C 
ATOM      7  C   UNL     1      35.372 -16.702 -20.754  0.00  0.00    +0.081 C 
ATOM      8  C   UNL     1      35.202 -15.821 -21.751  0.00  0.00    +0.140 C 
ATOM      9  C   UNL     1      34.637 -17.674 -23.240  0.00  0.00    +0.176 C 
ATOM     10  C   UNL     1      34.286 -16.596 -25.009  0.00  0.00    +0.230 C 
ATOM     11  H   UNL     1      35.569 -18.696 -19.169  0.00  0.00    +0.149 HD
ENDROOT
BRANCH   1  12
ATOM     12  C   UNL     1      35.161 -20.469 -20.232  0.00  0.00    +0.071 C 
ATOM     13  C   UNL     1      36.219 -21.221 -19.419  0.00  0.00    +0.020 C 
ATOM     14  C   UNL     1      33.743 -20.889 -19.833  0.00  0.00    +0.020 C 
ATOM     15  C   UNL     1      35.973 -21.144 -17.911  0.00  0.00    +0.002 C 
ATOM     16  C   UNL     1      33.505 -20.814 -18.325  0.00  0.00    +0.002 C 
ATOM     17  C   UNL     1      34.562 -21.593 -17.548  0.00  0.00    +0.000 C 
ENDBRANCH   1  12
BRANCH   8  18
ATOM     18  N   UNL     1      35.367 -14.472 -21.621  0.00  0.00    -0.299 N 
ATOM     19  H   UNL     1      36.291 -14.143 -21.699  0.00  0.00    +0.153 HD
BRANCH  18  20
ATOM     20  C   UNL     1      34.390 -13.497 -21.390  0.00  0.00    +0.049 C 
ATOM     21  C   UNL     1      34.222 -12.449 -22.296  0.00  0.00    +0.016 C 
ATOM     22  C   UNL     1      33.583 -13.572 -20.255  0.00  0.00    +0.016 C 
ATOM     23  C   UNL     1      32.442 -11.553 -20.930  0.00  0.00    +0.122 C 
ATOM     24  C   UNL     1      33.248 -11.478 -22.066  0.00  0.00    +0.021 C 
ATOM     25  C   UNL     1      32.610 -12.600 -20.025  0.00  0.00    +0.021 C 
BRANCH  23  26
ATOM     26  S   UNL     1      31.223 -10.337 -20.644  0.00  0.00    +0.057 S 
ATOM     27  O   UNL     1      31.007  -9.603 -21.882  0.00  0.00    -0.153 OA
ATOM     28  O   UNL     1      30.095 -10.961 -19.966  0.00  0.00    -0.153 OA
BRANCH  26  29
ATOM     29  N   UNL     1      32.033  -9.319 -19.535  0.00  0.00    -0.203 NA
ATOM     30  H   UNL     1      32.852  -8.911 -19.983  0.00  0.00    +0.144 HD
ATOM     31  H   UNL     1      32.325  -9.864 -18.723  0.00  0.00    +0.144 HD
ENDBRANCH  26  29
ENDBRANCH  23  26
ENDBRANCH  18  20
ENDBRANCH   8  18
TORSDOF 5
ENDMDL
MODEL 5
REMARK VINA RESULT:      -9.9      5.914     11.773
REMARK  Name = 23586146
REMARK  5 active torsions:
REMARK  status: ('A' for Active; 'I' for Inactive)
REMARK    1  A    between atoms: N_1  and  C_12
REMARK    2  A    between atoms: C_8  and  N_18
REMARK    3  A    between atoms: N_18  and  C_20
REMARK    4  A    between atoms: C_23  and  S_26
REMARK    5  A    between atoms: S_26  and  N_29
REMARK                            x       y       z     vdW  Elec       q    Type
REMARK                         _______ _______ _______ _____ _____    ______ ____
ROOT
ATOM      1  N   UNL     1      34.346 -12.522 -23.094  0.00  0.00    -0.309 N 
ATOM      2  N   UNL     1      33.646 -14.358 -24.280  0.00  0.00    -0.321 NA
ATOM      3  N   UNL     1      34.597 -16.503 -23.765  0.00  0.00    -0.106 N 
ATOM      4  N   UNL     1      34.481 -17.789 -24.192  0.00  0.00    -0.139 NA
ATOM      5  N   UNL     1      33.081 -16.442 -25.379  0.00  0.00    -0.145 NA
ATOM      6  C   UNL     1      34.404 -13.841 -23.342  0.00  0.00    +0.196 C 
ATOM      7  C   UNL     1      35.355 -14.664 -22.516  0.00  0.00    +0.081 C 
ATOM      8  C   UNL     1      35.416 -15.981 -22.761  0.00  0.00    +0.140 C 
ATOM      9  C   UNL     1      33.730 -15.697 -24.506  0.00  0.00    +0.176 C 
ATOM     10  C   UNL     1      33.567 -17.689 -25.151  0.00  0.00    +0.230 C 
ATOM     11  H   UNL     1      34.933 -12.147 -22.398  0.00  0.00    +0.149 HD
ENDROOT
BRANCH   1  12
ATOM     12  C   UNL     1      33.455 -11.626 -23.807  0.00  0.00    +0.071 C 
ATOM     13  C   UNL     1      32.958 -10.522 -22.869  0.00  0.00    +0.020 C 
ATOM     14  C   UNL     1      34.166 -11.044 -25.033  0.00  0.00    +0.020 C 
ATOM     15  C   UNL     1      34.051  -9.516 -22.506  0.00  0.00    +0.002 C 
ATOM     16  C   UNL     1      35.255 -10.036 -24.663  0.00  0.00    +0.002 C 
ATOM     17  C   UNL     1      34.719  -8.938 -23.749  0.00  0.00    +0.000 C 
ENDBRANCH   1  12
BRANCH   8  18
ATOM     18  N   UNL     1      36.230 -16.849 -22.092  0.00  0.00    -0.299 N 
ATOM     19  H   UNL     1      37.197 -16.699 -22.198  0.00  0.00    +0.153 HD
BRANCH  18  20
ATOM     20  C   UNL     1      35.867 -17.926 -21.275  0.00  0.00    +0.049 C 
ATOM     21  C   UNL     1      36.846 -18.635 -20.578  0.00  0.00    +0.016 C 
ATOM     22  C   UNL     1      34.526 -18.291 -21.158  0.00  0.00    +0.016 C 
ATOM     23  C   UNL     1      35.141 -20.071 -19.646  0.00  0.00    +0.122 C 
ATOM     24  C   UNL     1      36.483 -19.707 -19.763  0.00  0.00    +0.021 C 
ATOM     25  C   UNL     1      34.163 -19.363 -20.343  0.00  0.00    +0.021 C 
BRANCH  23  26
ATOM     26  S   UNL     1      34.688 -21.414 -18.626  0.00  0.00    +0.057 S 
ATOM     27  O   UNL     1      34.713 -22.629 -19.428  0.00  0.00    -0.153 OA
ATOM     28  O   UNL     1      35.463 -21.343 -17.395  0.00  0.00    -0.153 OA
BRANCH  26  29
ATOM     29  N   UNL     1      33.062 -21.021 -18.273  0.00  0.00    -0.203 NA
ATOM     30  H   UNL     1      32.719 -21.629 -17.531  0.00  0.00    +0.144 HD
ATOM     31  H   UNL     1      32.492 -21.150 -19.110  0.00  0.00    +0.144 HD
ENDBRANCH  26  29
ENDBRANCH  23  26
ENDBRANCH  18  20
ENDBRANCH   8  18
TORSDOF 5
ENDMDL
MODEL 6
REMARK VINA RESULT:      -9.7      5.151     10.881
REMARK  Name = 23586146
REMARK  5 active torsions:
REMARK  status: ('A' for Active; 'I' for Inactive)
REMARK    1  A    between atoms: N_1  and  C_12
REMARK    2  A    between atoms: C_8  and  N_18
REMARK    3  A    between atoms: N_18  and  C_20
REMARK    4  A    between atoms: C_23  and  S_26
REMARK    5  A    between atoms: S_26  and  N_29
REMARK                            x       y       z     vdW  Elec       q    Type
REMARK                         _______ _______ _______ _____ _____    ______ ____
ROOT
ATOM      1  N   UNL     1      34.529 -13.606 -22.553  0.00  0.00    -0.309 N 
ATOM      2  N   UNL     1      34.191 -15.448 -23.880  0.00  0.00    -0.321 NA
ATOM      3  N   UNL     1      35.026 -17.577 -23.143  0.00  0.00    -0.106 N 
ATOM      4  N   UNL     1      35.050 -18.862 -23.587  0.00  0.00    -0.139 NA
ATOM      5  N   UNL     1      33.969 -17.536 -25.089  0.00  0.00    -0.145 NA
ATOM      6  C   UNL     1      34.675 -14.921 -22.780  0.00  0.00    +0.196 C 
ATOM      7  C   UNL     1      35.403 -15.730 -21.741  0.00  0.00    +0.081 C 
ATOM      8  C   UNL     1      35.553 -17.045 -21.963  0.00  0.00    +0.140 C 
ATOM      9  C   UNL     1      34.359 -16.783 -24.079  0.00  0.00    +0.176 C 
ATOM     10  C   UNL     1      34.407 -18.773 -24.747  0.00  0.00    +0.230 C 
ATOM     11  H   UNL     1      34.911 -13.224 -21.731  0.00  0.00    +0.149 HD
ENDROOT
BRANCH   1  12
ATOM     12  C   UNL     1      33.829 -12.723 -23.468  0.00  0.00    +0.071 C 
ATOM     13  C   UNL     1      32.347 -12.639 -23.088  0.00  0.00    +0.020 C 
ATOM     14  C   UNL     1      34.488 -11.340 -23.470  0.00  0.00    +0.020 C 
ATOM     15  C   UNL     1      32.112 -11.859 -21.793  0.00  0.00    +0.002 C 
ATOM     16  C   UNL     1      34.244 -10.565 -22.176  0.00  0.00    +0.002 C 
ATOM     17  C   UNL     1      32.758 -10.479 -21.841  0.00  0.00    +0.000 C 
ENDBRANCH   1  12
BRANCH   8  18
ATOM     18  N   UNL     1      36.189 -17.901 -21.111  0.00  0.00    -0.299 N 
ATOM     19  H   UNL     1      37.161 -17.777 -21.025  0.00  0.00    +0.153 HD
BRANCH  18  20
ATOM     20  C   UNL     1      35.635 -18.931 -20.343  0.00  0.00    +0.049 C 
ATOM     21  C   UNL     1      34.250 -19.096 -20.291  0.00  0.00    +0.016 C 
ATOM     22  C   UNL     1      36.467 -19.793 -19.628  0.00  0.00    +0.016 C 
ATOM     23  C   UNL     1      34.531 -20.985 -18.811  0.00  0.00    +0.122 C 
ATOM     24  C   UNL     1      33.699 -20.123 -19.526  0.00  0.00    +0.021 C 
ATOM     25  C   UNL     1      35.915 -20.820 -18.863  0.00  0.00    +0.021 C 
BRANCH  23  26
ATOM     26  S   UNL     1      33.840 -22.270 -17.853  0.00  0.00    +0.057 S 
ATOM     27  O   UNL     1      32.544 -21.828 -17.358  0.00  0.00    -0.153 OA
ATOM     28  O   UNL     1      33.941 -23.514 -18.604  0.00  0.00    -0.153 OA
BRANCH  26  29
ATOM     29  N   UNL     1      34.938 -22.329 -16.545  0.00  0.00    -0.203 NA
ATOM     30  H   UNL     1      35.892 -22.261 -16.897  0.00  0.00    +0.144 HD
ATOM     31  H   UNL     1      34.822 -23.210 -16.043  0.00  0.00    +0.144 HD
ENDBRANCH  26  29
ENDBRANCH  23  26
ENDBRANCH  18  20
ENDBRANCH   8  18
TORSDOF 5
ENDMDL
MODEL 7
REMARK VINA RESULT:      -9.6      4.542      8.607
REMARK  Name = 23586146
REMARK  5 active torsions:
REMARK  status: ('A' for Active; 'I' for Inactive)
REMARK    1  A    between atoms: N_1  and  C_12
REMARK    2  A    between atoms: C_8  and  N_18
REMARK    3  A    between atoms: N_18  and  C_20
REMARK    4  A    between atoms: C_23  and  S_26
REMARK    5  A    between atoms: S_26  and  N_29
REMARK                            x       y       z     vdW  Elec       q    Type
REMARK                         _______ _______ _______ _____ _____    ______ ____
ROOT
ATOM      1  N   UNL     1      35.840 -19.246 -19.993  0.00  0.00    -0.309 N 
ATOM      2  N   UNL     1      34.444 -20.687 -18.878  0.00  0.00    -0.321 NA
ATOM      3  N   UNL     1      35.330 -21.989 -17.064  0.00  0.00    -0.106 N 
ATOM      4  N   UNL     1      34.886 -22.917 -16.174  0.00  0.00    -0.139 NA
ATOM      5  N   UNL     1      33.187 -22.274 -17.546  0.00  0.00    -0.145 NA
ATOM      6  C   UNL     1      35.636 -20.159 -19.030  0.00  0.00    +0.196 C 
ATOM      7  C   UNL     1      36.809 -20.533 -18.164  0.00  0.00    +0.081 C 
ATOM      8  C   UNL     1      36.609 -21.445 -17.201  0.00  0.00    +0.140 C 
ATOM      9  C   UNL     1      34.272 -21.610 -17.893  0.00  0.00    +0.176 C 
ATOM     10  C   UNL     1      33.607 -23.044 -16.511  0.00  0.00    +0.230 C 
ATOM     11  H   UNL     1      36.744 -18.872 -20.104  0.00  0.00    +0.149 HD
ENDROOT
BRANCH   1  12
ATOM     12  C   UNL     1      34.786 -18.787 -20.878  0.00  0.00    +0.071 C 
ATOM     13  C   UNL     1      34.278 -17.415 -20.424  0.00  0.00    +0.020 C 
ATOM     14  C   UNL     1      35.292 -18.749 -22.323  0.00  0.00    +0.020 C 
ATOM     15  C   UNL     1      35.290 -16.297 -20.676  0.00  0.00    +0.002 C 
ATOM     16  C   UNL     1      36.300 -17.627 -22.568  0.00  0.00    +0.002 C 
ATOM     17  C   UNL     1      35.753 -16.272 -22.128  0.00  0.00    +0.000 C 
ENDBRANCH   1  12
BRANCH   8  18
ATOM     18  N   UNL     1      37.578 -21.880 -16.343  0.00  0.00    -0.299 N 
ATOM     19  H   UNL     1      38.507 -21.719 -16.627  0.00  0.00    +0.153 HD
BRANCH  18  20
ATOM     20  C   UNL     1      37.420 -22.524 -15.111  0.00  0.00    +0.049 C 
ATOM     21  C   UNL     1      38.122 -23.700 -14.843  0.00  0.00    +0.016 C 
ATOM     22  C   UNL     1      36.561 -21.991 -14.150  0.00  0.00    +0.016 C 
ATOM     23  C   UNL     1      37.105 -23.808 -12.653  0.00  0.00    +0.122 C 
ATOM     24  C   UNL     1      37.965 -24.342 -13.614  0.00  0.00    +0.021 C 
ATOM     25  C   UNL     1      36.404 -22.633 -12.922  0.00  0.00    +0.021 C 
BRANCH  23  26
ATOM     26  S   UNL     1      36.909 -24.611 -11.116  0.00  0.00    +0.057 S 
ATOM     27  O   UNL     1      37.207 -26.026 -11.296  0.00  0.00    -0.153 OA
ATOM     28  O   UNL     1      37.618 -23.847 -10.100  0.00  0.00    -0.153 OA
BRANCH  26  29
ATOM     29  N   UNL     1      35.228 -24.430 -10.866  0.00  0.00    -0.203 NA
ATOM     30  H   UNL     1      34.864 -25.254 -10.390  0.00  0.00    +0.144 HD
ATOM     31  H   UNL     1      34.760 -24.323 -11.766  0.00  0.00    +0.144 HD
ENDBRANCH  26  29
ENDBRANCH  23  26
ENDBRANCH  18  20
ENDBRANCH   8  18
TORSDOF 5
ENDMDL
MODEL 8
REMARK VINA RESULT:      -9.3      4.169      5.969
REMARK  Name = 23586146
REMARK  5 active torsions:
REMARK  status: ('A' for Active; 'I' for Inactive)
REMARK    1  A    between atoms: N_1  and  C_12
REMARK    2  A    between atoms: C_8  and  N_18
REMARK    3  A    between atoms: N_18  and  C_20
REMARK    4  A    between atoms: C_23  and  S_26
REMARK    5  A    between atoms: S_26  and  N_29
REMARK                            x       y       z     vdW  Elec       q    Type
REMARK                         _______ _______ _______ _____ _____    ______ ____
ROOT
ATOM      1  N   UNL     1      36.048 -23.295 -12.663  0.00  0.00    -0.309 N 
ATOM      2  N   UNL     1      35.473 -22.680 -14.799  0.00  0.00    -0.321 NA
ATOM      3  N   UNL     1      33.201 -22.978 -15.519  0.00  0.00    -0.106 N 
ATOM      4  N   UNL     1      32.458 -22.762 -16.638  0.00  0.00    -0.139 NA
ATOM      5  N   UNL     1      34.612 -22.115 -16.992  0.00  0.00    -0.145 NA
ATOM      6  C   UNL     1      35.127 -23.175 -13.633  0.00  0.00    +0.196 C 
ATOM      7  C   UNL     1      33.725 -23.626 -13.323  0.00  0.00    +0.081 C 
ATOM      8  C   UNL     1      32.803 -23.509 -14.290  0.00  0.00    +0.140 C 
ATOM      9  C   UNL     1      34.515 -22.573 -15.759  0.00  0.00    +0.176 C 
ATOM     10  C   UNL     1      33.352 -22.249 -17.477  0.00  0.00    +0.230 C 
ATOM     11  H   UNL     1      35.776 -23.683 -11.801  0.00  0.00    +0.149 HD
ENDROOT
BRANCH   1  12
ATOM     12  C   UNL     1      37.427 -22.876 -12.831  0.00  0.00    +0.071 C 
ATOM     13  C   UNL     1      38.278 -23.384 -11.663  0.00  0.00    +0.020 C 
ATOM     14  C   UNL     1      37.966 -23.372 -14.177  0.00  0.00    +0.020 C 
ATOM     15  C   UNL     1      38.492 -24.898 -11.702  0.00  0.00    +0.002 C 
ATOM     16  C   UNL     1      38.182 -24.885 -14.207  0.00  0.00    +0.002 C 
ATOM     17  C   UNL     1      39.053 -25.353 -13.045  0.00  0.00    +0.000 C 
ENDBRANCH   1  12
BRANCH   8  18
ATOM     18  N   UNL     1      31.495 -23.876 -14.152  0.00  0.00    -0.299 N 
ATOM     19  H   UNL     1      31.325 -24.640 -13.555  0.00  0.00    +0.153 HD
BRANCH  18  20
ATOM     20  C   UNL     1      30.366 -23.305 -14.749  0.00  0.00    +0.049 C 
ATOM     21  C   UNL     1      29.942 -22.032 -14.366  0.00  0.00    +0.016 C 
ATOM     22  C   UNL     1      29.663 -24.008 -15.727  0.00  0.00    +0.016 C 
ATOM     23  C   UNL     1      28.114 -22.167 -15.940  0.00  0.00    +0.122 C 
ATOM     24  C   UNL     1      28.817 -21.463 -14.962  0.00  0.00    +0.021 C 
ATOM     25  C   UNL     1      28.538 -23.439 -16.322  0.00  0.00    +0.021 C 
BRANCH  23  26
ATOM     26  S   UNL     1      26.706 -21.454 -16.685  0.00  0.00    +0.057 S 
ATOM     27  O   UNL     1      26.986 -20.049 -16.947  0.00  0.00    -0.153 OA
ATOM     28  O   UNL     1      26.268 -22.319 -17.772  0.00  0.00    -0.153 OA
BRANCH  26  29
ATOM     29  N   UNL     1      25.573 -21.560 -15.409  0.00  0.00    -0.203 NA
ATOM     30  H   UNL     1      25.275 -22.528 -15.299  0.00  0.00    +0.144 HD
ATOM     31  H   UNL     1      24.764 -20.977 -15.624  0.00  0.00    +0.144 HD
ENDBRANCH  26  29
ENDBRANCH  23  26
ENDBRANCH  18  20
ENDBRANCH   8  18
TORSDOF 5
ENDMDL
MODEL 9
REMARK VINA RESULT:      -9.3      5.780     11.107
REMARK  Name = 23586146
REMARK  5 active torsions:
REMARK  status: ('A' for Active; 'I' for Inactive)
REMARK    1  A    between atoms: N_1  and  C_12
REMARK    2  A    between atoms: C_8  and  N_18
REMARK    3  A    between atoms: N_18  and  C_20
REMARK    4  A    between atoms: C_23  and  S_26
REMARK    5  A    between atoms: S_26  and  N_29
REMARK                            x       y       z     vdW  Elec       q    Type
REMARK                         _______ _______ _______ _____ _____    ______ ____
ROOT
ATOM      1  N   UNL     1      32.947 -12.559 -20.494  0.00  0.00    -0.309 N 
ATOM      2  N   UNL     1      33.163 -13.329 -22.646  0.00  0.00    -0.321 NA
ATOM      3  N   UNL     1      34.640 -15.174 -23.074  0.00  0.00    -0.106 N 
ATOM      4  N   UNL     1      35.052 -15.914 -24.138  0.00  0.00    -0.139 NA
ATOM      5  N   UNL     1      33.569 -14.325 -24.817  0.00  0.00    -0.145 NA
ATOM      6  C   UNL     1      33.490 -13.412 -21.378  0.00  0.00    +0.196 C 
ATOM      7  C   UNL     1      34.462 -14.433 -20.852  0.00  0.00    +0.081 C 
ATOM      8  C   UNL     1      35.008 -15.287 -21.731  0.00  0.00    +0.140 C 
ATOM      9  C   UNL     1      33.733 -14.208 -23.514  0.00  0.00    +0.176 C 
ATOM     10  C   UNL     1      34.381 -15.362 -25.144  0.00  0.00    +0.230 C 
ATOM     11  H   UNL     1      33.214 -12.625 -19.550  0.00  0.00    +0.149 HD
ENDROOT
BRANCH   1  12
ATOM     12  C   UNL     1      31.981 -11.544 -20.873  0.00  0.00    +0.071 C 
ATOM     13  C   UNL     1      30.851 -11.481 -19.840  0.00  0.00    +0.020 C 
ATOM     14  C   UNL     1      32.677 -10.188 -21.027  0.00  0.00    +0.020 C 
ATOM     15  C   UNL     1      31.300 -10.883 -18.507  0.00  0.00    +0.002 C 
ATOM     16  C   UNL     1      33.119  -9.594 -19.689  0.00  0.00    +0.002 C 
ATOM     17  C   UNL     1      31.965  -9.524 -18.695  0.00  0.00    +0.000 C 
ENDBRANCH   1  12
BRANCH   8  18
ATOM     18  N   UNL     1      35.903 -16.263 -21.399  0.00  0.00    -0.299 N 
ATOM     19  H   UNL     1      36.845 -16.070 -21.607  0.00  0.00    +0.153 HD
BRANCH  18  20
ATOM     20  C   UNL     1      35.653 -17.503 -20.800  0.00  0.00    +0.049 C 
ATOM     21  C   UNL     1      36.695 -18.212 -20.202  0.00  0.00    +0.016 C 
ATOM     22  C   UNL     1      34.361 -18.030 -20.800  0.00  0.00    +0.016 C 
ATOM     23  C   UNL     1      35.153 -19.974 -19.604  0.00  0.00    +0.122 C 
ATOM     24  C   UNL     1      36.445 -19.447 -19.603  0.00  0.00    +0.021 C 
ATOM     25  C   UNL     1      34.112 -19.265 -20.202  0.00  0.00    +0.021 C 
BRANCH  23  26
ATOM     26  S   UNL     1      34.841 -21.520 -18.856  0.00  0.00    +0.057 S 
ATOM     27  O   UNL     1      35.008 -22.559 -19.863  0.00  0.00    -0.153 OA
ATOM     28  O   UNL     1      35.593 -21.592 -17.611  0.00  0.00    -0.153 OA
BRANCH  26  29
ATOM     29  N   UNL     1      33.179 -21.374 -18.486  0.00  0.00    -0.203 NA
ATOM     30  H   UNL     1      32.653 -21.210 -19.342  0.00  0.00    +0.144 HD
ATOM     31  H   UNL     1      33.041 -20.591 -17.846  0.00  0.00    +0.144 HD
ENDBRANCH  26  29
ENDBRANCH  23  26
ENDBRANCH  18  20
ENDBRANCH   8  18
TORSDOF 5
ENDMDL
