MODEL 1
REMARK VINA RESULT:     -11.7      0.000      0.000
REMARK  Name = 71616860
REMARK  5 active torsions:
REMARK  status: ('A' for Active; 'I' for Inactive)
REMARK    1  A    between atoms: C_10  and  C_17
REMARK    2  A    between atoms: C_15  and  O_21
REMARK    3  A    between atoms: C_16  and  C_18
REMARK    4  A    between atoms: O_21  and  C_22
REMARK    5  A    between atoms: C_22  and  C_25
REMARK                            x       y       z     vdW  Elec       q    Type
REMARK                         _______ _______ _______ _____ _____    ______ ____
ROOT
ATOM      1  O   UNL     1      37.399 -23.975 -12.803  0.00  0.00    -0.193 OA
ATOM      2  N   UNL     1      36.351 -22.968 -14.605  0.00  0.00    -0.205 N 
ATOM      3  N   UNL     1      35.131 -23.965 -12.793  0.00  0.00    -0.284 NA
ATOM      4  C   UNL     1      37.597 -21.294 -15.947  0.00  0.00    +0.049 C 
ATOM      5  C   UNL     1      36.445 -21.269 -16.912  0.00  0.00    -0.019 C 
ATOM      6  C   UNL     1      37.633 -22.642 -15.239  0.00  0.00    +0.114 C 
ATOM      7  C   UNL     1      35.250 -21.941 -16.582  0.00  0.00    +0.011 C 
ATOM      8  C   UNL     1      35.164 -22.653 -15.275  0.00  0.00    +0.068 C 
ATOM      9  C   UNL     1      36.552 -20.555 -18.115  0.00  0.00    +0.004 C 
ATOM     10  C   UNL     1      35.491 -20.534 -19.016  0.00  0.00    +0.041 C 
ATOM     11  C   UNL     1      34.199 -21.921 -17.514  0.00  0.00    +0.002 C 
ATOM     12  C   UNL     1      33.981 -22.954 -14.718  0.00  0.00    +0.088 C 
ATOM     13  C   UNL     1      34.320 -21.222 -18.718  0.00  0.00    +0.008 C 
ATOM     14  C   UNL     1      36.350 -23.654 -13.367  0.00  0.00    +0.275 C 
ATOM     15  C   UNL     1      34.060 -23.636 -13.426  0.00  0.00    +0.291 C 
ENDROOT
BRANCH  10  17
ATOM     16  C   UNL     1      35.705 -19.205 -21.274  0.00  0.00    -0.087 C 
ATOM     17  C   UNL     1      35.608 -19.813 -20.244  0.00  0.00    -0.064 C 
BRANCH  16  18
ATOM     18  C   UNL     1      35.821 -18.474 -22.510  0.00  0.00    +0.065 C 
ATOM     19  C   UNL     1      35.318 -17.060 -22.558  0.00  0.00    +0.014 C 
ATOM     20  C   UNL     1      34.568 -18.146 -23.271  0.00  0.00    +0.014 C 
ENDBRANCH  16  18
ENDBRANCH  10  17
BRANCH  15  21
ATOM     21  O   UNL     1      32.846 -23.919 -12.901  0.00  0.00    -0.448 OA
BRANCH  21  22
ATOM     22  C   UNL     1      31.998 -22.788 -12.775  0.00  0.00    +0.240 C 
BRANCH  22  25
ATOM     23  O   UNL     1      30.357 -22.217 -14.421  0.00  0.00    -0.347 OA
ATOM     24  O   UNL     1      29.303 -24.819 -14.452  0.00  0.00    -0.348 OA
ATOM     25  C   UNL     1      30.631 -23.127 -13.348  0.00  0.00    +0.188 C 
ATOM     26  C   UNL     1      30.587 -24.559 -13.878  0.00  0.00    +0.175 C 
ATOM     27  C   UNL     1      29.076 -22.482 -14.998  0.00  0.00    +0.174 C 
ATOM     28  C   UNL     1      29.033 -23.907 -15.519  0.00  0.00    +0.174 C 
ENDBRANCH  22  25
ENDBRANCH  21  22
ENDBRANCH  15  21
TORSDOF 5
ENDMDL
MODEL 2
REMARK VINA RESULT:     -11.1      1.837      5.416
REMARK  Name = 71616860
REMARK  5 active torsions:
REMARK  status: ('A' for Active; 'I' for Inactive)
REMARK    1  A    between atoms: C_10  and  C_17
REMARK    2  A    between atoms: C_15  and  O_21
REMARK    3  A    between atoms: C_16  and  C_18
REMARK    4  A    between atoms: O_21  and  C_22
REMARK    5  A    between atoms: C_22  and  C_25
REMARK                            x       y       z     vdW  Elec       q    Type
REMARK                         _______ _______ _______ _____ _____    ______ ____
ROOT
ATOM      1  O   UNL     1      32.119 -23.794 -12.685  0.00  0.00    -0.193 OA
ATOM      2  N   UNL     1      33.553 -23.007 -14.323  0.00  0.00    -0.205 N 
ATOM      3  N   UNL     1      34.337 -24.123 -12.347  0.00  0.00    -0.284 NA
ATOM      4  C   UNL     1      32.684 -22.648 -16.618  0.00  0.00    +0.049 C 
ATOM      5  C   UNL     1      34.005 -22.026 -16.978  0.00  0.00    -0.019 C 
ATOM      6  C   UNL     1      32.441 -22.485 -15.124  0.00  0.00    +0.114 C 
ATOM      7  C   UNL     1      35.075 -22.095 -16.063  0.00  0.00    +0.011 C 
ATOM      8  C   UNL     1      34.864 -22.793 -14.762  0.00  0.00    +0.068 C 
ATOM      9  C   UNL     1      34.175 -21.412 -18.228  0.00  0.00    +0.004 C 
ATOM     10  C   UNL     1      35.393 -20.828 -18.564  0.00  0.00    +0.041 C 
ATOM     11  C   UNL     1      36.290 -21.484 -16.416  0.00  0.00    +0.002 C 
ATOM     12  C   UNL     1      35.896 -23.251 -14.037  0.00  0.00    +0.088 C 
ATOM     13  C   UNL     1      36.446 -20.859 -17.656  0.00  0.00    +0.008 C 
ATOM     14  C   UNL     1      33.274 -23.651 -13.093  0.00  0.00    +0.275 C 
ATOM     15  C   UNL     1      35.528 -23.931 -12.795  0.00  0.00    +0.291 C 
ENDROOT
BRANCH  10  17
ATOM     16  C   UNL     1      35.697 -19.666 -20.902  0.00  0.00    -0.087 C 
ATOM     17  C   UNL     1      35.559 -20.196 -19.834  0.00  0.00    -0.064 C 
BRANCH  16  18
ATOM     18  C   UNL     1      35.861 -19.031 -22.184  0.00  0.00    +0.065 C 
ATOM     19  C   UNL     1      35.816 -17.531 -22.253  0.00  0.00    +0.014 C 
ATOM     20  C   UNL     1      34.677 -18.340 -22.800  0.00  0.00    +0.014 C 
ENDBRANCH  16  18
ENDBRANCH  10  17
BRANCH  15  21
ATOM     21  O   UNL     1      36.598 -24.377 -12.098  0.00  0.00    -0.448 OA
BRANCH  21  22
ATOM     22  C   UNL     1      37.108 -25.618 -12.562  0.00  0.00    +0.240 C 
BRANCH  22  25
ATOM     23  O   UNL     1      38.931 -26.021 -14.058  0.00  0.00    -0.347 OA
ATOM     24  O   UNL     1      40.469 -23.956 -12.938  0.00  0.00    -0.348 OA
ATOM     25  C   UNL     1      38.609 -25.491 -12.766  0.00  0.00    +0.188 C 
ATOM     26  C   UNL     1      39.062 -24.034 -12.692  0.00  0.00    +0.175 C 
ATOM     27  C   UNL     1      40.337 -25.937 -14.307  0.00  0.00    +0.174 C 
ATOM     28  C   UNL     1      40.786 -24.488 -14.227  0.00  0.00    +0.174 C 
ENDBRANCH  22  25
ENDBRANCH  21  22
ENDBRANCH  15  21
TORSDOF 5
ENDMDL
MODEL 3
REMARK VINA RESULT:     -11.0      2.642      5.137
REMARK  Name = 71616860
REMARK  5 active torsions:
REMARK  status: ('A' for Active; 'I' for Inactive)
REMARK    1  A    between atoms: C_10  and  C_17
REMARK    2  A    between atoms: C_15  and  O_21
REMARK    3  A    between atoms: C_16  and  C_18
REMARK    4  A    between atoms: O_21  and  C_22
REMARK    5  A    between atoms: C_22  and  C_25
REMARK                            x       y       z     vdW  Elec       q    Type
REMARK                         _______ _______ _______ _____ _____    ______ ____
ROOT
ATOM      1  O   UNL     1      33.684 -23.238 -15.382  0.00  0.00    -0.193 OA
ATOM      2  N   UNL     1      34.677 -21.891 -16.982  0.00  0.00    -0.205 N 
ATOM      3  N   UNL     1      35.922 -22.917 -15.204  0.00  0.00    -0.284 NA
ATOM      4  C   UNL     1      33.544 -21.575 -19.166  0.00  0.00    +0.049 C 
ATOM      5  C   UNL     1      34.588 -20.550 -19.515  0.00  0.00    -0.019 C 
ATOM      6  C   UNL     1      33.395 -21.649 -17.653  0.00  0.00    +0.114 C 
ATOM      7  C   UNL     1      35.707 -20.388 -18.672  0.00  0.00    +0.011 C 
ATOM      8  C   UNL     1      35.823 -21.248 -17.459  0.00  0.00    +0.068 C 
ATOM      9  C   UNL     1      34.461 -19.788 -20.685  0.00  0.00    +0.004 C 
ATOM     10  C   UNL     1      35.420 -18.833 -21.009  0.00  0.00    +0.041 C 
ATOM     11  C   UNL     1      36.653 -19.406 -19.009  0.00  0.00    +0.002 C 
ATOM     12  C   UNL     1      37.003 -21.446 -16.852  0.00  0.00    +0.088 C 
ATOM     13  C   UNL     1      36.511 -18.638 -20.168  0.00  0.00    +0.008 C 
ATOM     14  C   UNL     1      34.707 -22.712 -15.830  0.00  0.00    +0.275 C 
ATOM     15  C   UNL     1      36.961 -22.329 -15.686  0.00  0.00    +0.291 C 
ENDROOT
BRANCH  10  17
ATOM     16  C   UNL     1      35.168 -17.397 -23.197  0.00  0.00    -0.087 C 
ATOM     17  C   UNL     1      35.282 -18.053 -22.198  0.00  0.00    -0.064 C 
BRANCH  16  18
ATOM     18  C   UNL     1      35.033 -16.611 -24.396  0.00  0.00    +0.065 C 
ATOM     19  C   UNL     1      34.467 -15.224 -24.285  0.00  0.00    +0.014 C 
ATOM     20  C   UNL     1      33.653 -16.317 -24.910  0.00  0.00    +0.014 C 
ENDBRANCH  16  18
ENDBRANCH  10  17
BRANCH  15  21
ATOM     21  O   UNL     1      38.170 -22.501 -15.107  0.00  0.00    -0.448 OA
BRANCH  21  22
ATOM     22  C   UNL     1      38.374 -23.805 -14.583  0.00  0.00    +0.240 C 
BRANCH  22  25
ATOM     23  O   UNL     1      37.916 -22.424 -12.684  0.00  0.00    -0.347 OA
ATOM     24  O   UNL     1      37.320 -24.637 -11.063  0.00  0.00    -0.348 OA
ATOM     25  C   UNL     1      38.335 -23.741 -13.065  0.00  0.00    +0.188 C 
ATOM     26  C   UNL     1      37.362 -24.766 -12.486  0.00  0.00    +0.175 C 
ATOM     27  C   UNL     1      37.868 -22.297 -11.261  0.00  0.00    +0.174 C 
ATOM     28  C   UNL     1      36.904 -23.322 -10.687  0.00  0.00    +0.174 C 
ENDBRANCH  22  25
ENDBRANCH  21  22
ENDBRANCH  15  21
TORSDOF 5
ENDMDL
MODEL 4
REMARK VINA RESULT:     -10.3      5.775      9.549
REMARK  Name = 71616860
REMARK  5 active torsions:
REMARK  status: ('A' for Active; 'I' for Inactive)
REMARK    1  A    between atoms: C_10  and  C_17
REMARK    2  A    between atoms: C_15  and  O_21
REMARK    3  A    between atoms: C_16  and  C_18
REMARK    4  A    between atoms: O_21  and  C_22
REMARK    5  A    between atoms: C_22  and  C_25
REMARK                            x       y       z     vdW  Elec       q    Type
REMARK                         _______ _______ _______ _____ _____    ______ ____
ROOT
ATOM      1  O   UNL     1      34.872 -19.350 -23.987  0.00  0.00    -0.193 OA
ATOM      2  N   UNL     1      34.803 -17.185 -23.171  0.00  0.00    -0.205 N 
ATOM      3  N   UNL     1      35.489 -19.052 -21.825  0.00  0.00    -0.284 NA
ATOM      4  C   UNL     1      34.904 -15.289 -24.767  0.00  0.00    +0.049 C 
ATOM      5  C   UNL     1      34.642 -14.358 -23.616  0.00  0.00    -0.019 C 
ATOM      6  C   UNL     1      34.319 -16.659 -24.452  0.00  0.00    +0.114 C 
ATOM      7  C   UNL     1      34.658 -14.862 -22.299  0.00  0.00    +0.011 C 
ATOM      8  C   UNL     1      34.946 -16.310 -22.089  0.00  0.00    +0.068 C 
ATOM      9  C   UNL     1      34.413 -12.994 -23.854  0.00  0.00    +0.004 C 
ATOM     10  C   UNL     1      34.161 -12.129 -22.793  0.00  0.00    +0.041 C 
ATOM     11  C   UNL     1      34.385 -13.975 -21.246  0.00  0.00    +0.002 C 
ATOM     12  C   UNL     1      35.375 -16.774 -20.905  0.00  0.00    +0.088 C 
ATOM     13  C   UNL     1      34.140 -12.620 -21.492  0.00  0.00    +0.008 C 
ATOM     14  C   UNL     1      35.046 -18.574 -23.044  0.00  0.00    +0.275 C 
ATOM     15  C   UNL     1      35.633 -18.213 -20.859  0.00  0.00    +0.291 C 
ENDROOT
BRANCH  10  17
ATOM     16  C   UNL     1      33.717  -9.578 -23.247  0.00  0.00    -0.087 C 
ATOM     17  C   UNL     1      33.920 -10.743 -23.041  0.00  0.00    -0.064 C 
BRANCH  16  18
ATOM     18  C   UNL     1      33.472  -8.180 -23.494  0.00  0.00    +0.065 C 
ATOM     19  C   UNL     1      34.647  -7.275 -23.724  0.00  0.00    +0.014 C 
ATOM     20  C   UNL     1      33.873  -7.184 -22.443  0.00  0.00    +0.014 C 
ENDBRANCH  16  18
ENDBRANCH  10  17
BRANCH  15  21
ATOM     21  O   UNL     1      36.064 -18.637 -19.650  0.00  0.00    -0.448 OA
BRANCH  21  22
ATOM     22  C   UNL     1      37.091 -19.615 -19.718  0.00  0.00    +0.240 C 
BRANCH  22  25
ATOM     23  O   UNL     1      37.039 -20.354 -17.442  0.00  0.00    -0.347 OA
ATOM     24  O   UNL     1      34.973 -22.184 -17.953  0.00  0.00    -0.348 OA
ATOM     25  C   UNL     1      36.744 -20.763 -18.784  0.00  0.00    +0.188 C 
ATOM     26  C   UNL     1      35.266 -21.136 -18.882  0.00  0.00    +0.175 C 
ATOM     27  C   UNL     1      36.740 -21.399 -16.514  0.00  0.00    +0.174 C 
ATOM     28  C   UNL     1      35.272 -21.772 -16.618  0.00  0.00    +0.174 C 
ENDBRANCH  22  25
ENDBRANCH  21  22
ENDBRANCH  15  21
TORSDOF 5
ENDMDL
MODEL 5
REMARK VINA RESULT:     -10.2      8.902     13.103
REMARK  Name = 71616860
REMARK  5 active torsions:
REMARK  status: ('A' for Active; 'I' for Inactive)
REMARK    1  A    between atoms: C_10  and  C_17
REMARK    2  A    between atoms: C_15  and  O_21
REMARK    3  A    between atoms: C_16  and  C_18
REMARK    4  A    between atoms: O_21  and  C_22
REMARK    5  A    between atoms: C_22  and  C_25
REMARK                            x       y       z     vdW  Elec       q    Type
REMARK                         _______ _______ _______ _____ _____    ______ ____
ROOT
ATOM      1  O   UNL     1      34.035 -11.120 -25.292  0.00  0.00    -0.193 OA
ATOM      2  N   UNL     1      34.237 -12.644 -23.562  0.00  0.00    -0.205 N 
ATOM      3  N   UNL     1      33.195 -10.500 -23.278  0.00  0.00    -0.284 NA
ATOM      4  C   UNL     1      34.537 -15.048 -24.099  0.00  0.00    +0.049 C 
ATOM      5  C   UNL     1      34.757 -15.307 -22.634  0.00  0.00    -0.019 C 
ATOM      6  C   UNL     1      34.928 -13.612 -24.422  0.00  0.00    +0.114 C 
ATOM      7  C   UNL     1      34.526 -14.271 -21.706  0.00  0.00    +0.011 C 
ATOM      8  C   UNL     1      34.059 -12.947 -22.208  0.00  0.00    +0.068 C 
ATOM      9  C   UNL     1      35.159 -16.578 -22.198  0.00  0.00    +0.004 C 
ATOM     10  C   UNL     1      35.372 -16.822 -20.845  0.00  0.00    +0.041 C 
ATOM     11  C   UNL     1      34.764 -14.535 -20.347  0.00  0.00    +0.002 C 
ATOM     12  C   UNL     1      33.442 -12.070 -21.402  0.00  0.00    +0.088 C 
ATOM     13  C   UNL     1      35.181 -15.799 -19.921  0.00  0.00    +0.008 C 
ATOM     14  C   UNL     1      33.832 -11.403 -24.109  0.00  0.00    +0.275 C 
ATOM     15  C   UNL     1      33.027 -10.823 -22.044  0.00  0.00    +0.291 C 
ENDROOT
BRANCH  10  17
ATOM     16  C   UNL     1      36.139 -19.204 -20.038  0.00  0.00    -0.087 C 
ATOM     17  C   UNL     1      35.790 -18.116 -20.406  0.00  0.00    -0.064 C 
BRANCH  16  18
ATOM     18  C   UNL     1      36.556 -20.510 -19.598  0.00  0.00    +0.065 C 
ATOM     19  C   UNL     1      35.567 -21.371 -18.866  0.00  0.00    +0.014 C 
ATOM     20  C   UNL     1      36.715 -20.753 -18.124  0.00  0.00    +0.014 C 
ENDBRANCH  16  18
ENDBRANCH  10  17
BRANCH  15  21
ATOM     21  O   UNL     1      32.408  -9.970 -21.197  0.00  0.00    -0.448 OA
BRANCH  21  22
ATOM     22  C   UNL     1      32.064  -8.725 -21.786  0.00  0.00    +0.240 C 
BRANCH  22  25
ATOM     23  O   UNL     1      31.807  -6.441 -21.120  0.00  0.00    -0.347 OA
ATOM     24  O   UNL     1      33.129  -6.873 -18.682  0.00  0.00    -0.348 OA
ATOM     25  C   UNL     1      32.627  -7.601 -20.932  0.00  0.00    +0.188 C 
ATOM     26  C   UNL     1      32.639  -7.975 -19.451  0.00  0.00    +0.175 C 
ATOM     27  C   UNL     1      32.293  -5.342 -20.346  0.00  0.00    +0.174 C 
ATOM     28  C   UNL     1      32.309  -5.719 -18.875  0.00  0.00    +0.174 C 
ENDBRANCH  22  25
ENDBRANCH  21  22
ENDBRANCH  15  21
TORSDOF 5
ENDMDL
MODEL 6
REMARK VINA RESULT:     -10.2      8.058     12.028
REMARK  Name = 71616860
REMARK  5 active torsions:
REMARK  status: ('A' for Active; 'I' for Inactive)
REMARK    1  A    between atoms: C_10  and  C_17
REMARK    2  A    between atoms: C_15  and  O_21
REMARK    3  A    between atoms: C_16  and  C_18
REMARK    4  A    between atoms: O_21  and  C_22
REMARK    5  A    between atoms: C_22  and  C_25
REMARK                            x       y       z     vdW  Elec       q    Type
REMARK                         _______ _______ _______ _____ _____    ______ ____
ROOT
ATOM      1  O   UNL     1      34.743 -15.436 -25.552  0.00  0.00    -0.193 OA
ATOM      2  N   UNL     1      34.190 -13.755 -24.060  0.00  0.00    -0.205 N 
ATOM      3  N   UNL     1      35.094 -15.864 -23.353  0.00  0.00    -0.284 NA
ATOM      4  C   UNL     1      34.072 -11.413 -24.868  0.00  0.00    +0.049 C 
ATOM      5  C   UNL     1      33.533 -11.017 -23.521  0.00  0.00    -0.019 C 
ATOM      6  C   UNL     1      33.732 -12.872 -25.138  0.00  0.00    +0.114 C 
ATOM      7  C   UNL     1      33.527 -11.961 -22.473  0.00  0.00    +0.011 C 
ATOM      8  C   UNL     1      34.065 -13.327 -22.734  0.00  0.00    +0.068 C 
ATOM      9  C   UNL     1      33.072  -9.710 -23.305  0.00  0.00    +0.004 C 
ATOM     10  C   UNL     1      32.565  -9.340 -22.063  0.00  0.00    +0.041 C 
ATOM     11  C   UNL     1      32.995 -11.571 -21.233  0.00  0.00    +0.002 C 
ATOM     12  C   UNL     1      34.466 -14.124 -21.733  0.00  0.00    +0.088 C 
ATOM     13  C   UNL     1      32.521 -10.272 -21.031  0.00  0.00    +0.008 C 
ATOM     14  C   UNL     1      34.681 -15.042 -24.385  0.00  0.00    +0.275 C 
ATOM     15  C   UNL     1      34.988 -15.426 -22.148  0.00  0.00    +0.291 C 
ENDROOT
BRANCH  10  17
ATOM     16  C   UNL     1      31.685  -6.894 -21.671  0.00  0.00    -0.087 C 
ATOM     17  C   UNL     1      32.088  -8.010 -21.850  0.00  0.00    -0.064 C 
BRANCH  16  18
ATOM     18  C   UNL     1      31.202  -5.555 -21.455  0.00  0.00    +0.065 C 
ATOM     19  C   UNL     1      32.128  -4.404 -21.723  0.00  0.00    +0.014 C 
ATOM     20  C   UNL     1      31.770  -4.762 -20.312  0.00  0.00    +0.014 C 
ENDBRANCH  16  18
ENDBRANCH  10  17
BRANCH  15  21
ATOM     21  O   UNL     1      35.381 -16.196 -21.108  0.00  0.00    -0.448 OA
BRANCH  21  22
ATOM     22  C   UNL     1      35.702 -17.531 -21.472  0.00  0.00    +0.240 C 
BRANCH  22  25
ATOM     23  O   UNL     1      34.443 -19.381 -20.625  0.00  0.00    -0.347 OA
ATOM     24  O   UNL     1      36.456 -20.073 -18.794  0.00  0.00    -0.348 OA
ATOM     25  C   UNL     1      35.466 -18.440 -20.276  0.00  0.00    +0.188 C 
ATOM     26  C   UNL     1      36.735 -19.195 -19.889  0.00  0.00    +0.175 C 
ATOM     27  C   UNL     1      34.169 -20.263 -19.533  0.00  0.00    +0.174 C 
ATOM     28  C   UNL     1      35.434 -21.009 -19.146  0.00  0.00    +0.174 C 
ENDBRANCH  22  25
ENDBRANCH  21  22
ENDBRANCH  15  21
TORSDOF 5
ENDMDL
MODEL 7
REMARK VINA RESULT:      -9.8      9.362     13.557
REMARK  Name = 71616860
REMARK  5 active torsions:
REMARK  status: ('A' for Active; 'I' for Inactive)
REMARK    1  A    between atoms: C_10  and  C_17
REMARK    2  A    between atoms: C_15  and  O_21
REMARK    3  A    between atoms: C_16  and  C_18
REMARK    4  A    between atoms: O_21  and  C_22
REMARK    5  A    between atoms: C_22  and  C_25
REMARK                            x       y       z     vdW  Elec       q    Type
REMARK                         _______ _______ _______ _____ _____    ______ ____
ROOT
ATOM      1  O   UNL     1      32.243 -13.506 -19.499  0.00  0.00    -0.193 OA
ATOM      2  N   UNL     1      32.660 -11.783 -20.986  0.00  0.00    -0.205 N 
ATOM      3  N   UNL     1      33.769 -13.908 -21.127  0.00  0.00    -0.284 NA
ATOM      4  C   UNL     1      30.953 -10.009 -21.290  0.00  0.00    +0.049 C 
ATOM      5  C   UNL     1      31.936  -9.265 -22.151  0.00  0.00    -0.019 C 
ATOM      6  C   UNL     1      31.709 -10.894 -20.309  0.00  0.00    +0.114 C 
ATOM      7  C   UNL     1      33.139  -9.895 -22.529  0.00  0.00    +0.011 C 
ATOM      8  C   UNL     1      33.397 -11.289 -22.068  0.00  0.00    +0.068 C 
ATOM      9  C   UNL     1      31.639  -7.969 -22.596  0.00  0.00    +0.004 C 
ATOM     10  C   UNL     1      32.548  -7.272 -23.386  0.00  0.00    +0.041 C 
ATOM     11  C   UNL     1      34.050  -9.167 -23.313  0.00  0.00    +0.002 C 
ATOM     12  C   UNL     1      34.281 -12.081 -22.693  0.00  0.00    +0.088 C 
ATOM     13  C   UNL     1      33.755  -7.868 -23.738  0.00  0.00    +0.008 C 
ATOM     14  C   UNL     1      32.858 -13.091 -20.484  0.00  0.00    +0.275 C 
ATOM     15  C   UNL     1      34.409 -13.428 -22.135  0.00  0.00    +0.291 C 
ENDROOT
BRANCH  10  17
ATOM     16  C   UNL     1      31.992  -4.836 -24.202  0.00  0.00    -0.087 C 
ATOM     17  C   UNL     1      32.246  -5.949 -23.831  0.00  0.00    -0.064 C 
BRANCH  16  18
ATOM     18  C   UNL     1      31.688  -3.500 -24.647  0.00  0.00    +0.065 C 
ATOM     19  C   UNL     1      32.363  -2.984 -25.885  0.00  0.00    +0.014 C 
ATOM     20  C   UNL     1      32.754  -2.447 -24.540  0.00  0.00    +0.014 C 
ENDBRANCH  16  18
ENDBRANCH  10  17
BRANCH  15  21
ATOM     21  O   UNL     1      35.309 -14.192 -22.796  0.00  0.00    -0.448 OA
BRANCH  21  22
ATOM     22  C   UNL     1      34.725 -15.248 -23.543  0.00  0.00    +0.240 C 
BRANCH  22  25
ATOM     23  O   UNL     1      35.450 -16.558 -21.676  0.00  0.00    -0.347 OA
ATOM     24  O   UNL     1      35.087 -18.969 -23.067  0.00  0.00    -0.348 OA
ATOM     25  C   UNL     1      35.345 -16.566 -23.105  0.00  0.00    +0.188 C 
ATOM     26  C   UNL     1      34.494 -17.757 -23.541  0.00  0.00    +0.175 C 
ATOM     27  C   UNL     1      36.037 -17.773 -21.202  0.00  0.00    +0.174 C 
ATOM     28  C   UNL     1      35.192 -18.956 -21.642  0.00  0.00    +0.174 C 
ENDBRANCH  22  25
ENDBRANCH  21  22
ENDBRANCH  15  21
TORSDOF 5
ENDMDL
MODEL 8
REMARK VINA RESULT:      -9.8      8.131     12.390
REMARK  Name = 71616860
REMARK  5 active torsions:
REMARK  status: ('A' for Active; 'I' for Inactive)
REMARK    1  A    between atoms: C_10  and  C_17
REMARK    2  A    between atoms: C_15  and  O_21
REMARK    3  A    between atoms: C_16  and  C_18
REMARK    4  A    between atoms: O_21  and  C_22
REMARK    5  A    between atoms: C_22  and  C_25
REMARK                            x       y       z     vdW  Elec       q    Type
REMARK                         _______ _______ _______ _____ _____    ______ ____
ROOT
ATOM      1  O   UNL     1      33.984 -11.869 -26.283  0.00  0.00    -0.193 OA
ATOM      2  N   UNL     1      34.280 -13.166 -24.389  0.00  0.00    -0.205 N 
ATOM      3  N   UNL     1      33.608 -10.863 -24.285  0.00  0.00    -0.284 NA
ATOM      4  C   UNL     1      34.147 -15.636 -24.583  0.00  0.00    +0.049 C 
ATOM      5  C   UNL     1      34.586 -15.733 -23.149  0.00  0.00    -0.019 C 
ATOM      6  C   UNL     1      34.667 -14.336 -25.184  0.00  0.00    +0.114 C 
ATOM      7  C   UNL     1      34.668 -14.560 -22.369  0.00  0.00    +0.011 C 
ATOM      8  C   UNL     1      34.305 -13.256 -22.993  0.00  0.00    +0.068 C 
ATOM      9  C   UNL     1      34.882 -16.983 -22.587  0.00  0.00    +0.004 C 
ATOM     10  C   UNL     1      35.296 -17.079 -21.262  0.00  0.00    +0.041 C 
ATOM     11  C   UNL     1      35.105 -14.678 -21.039  0.00  0.00    +0.002 C 
ATOM     12  C   UNL     1      33.967 -12.193 -22.248  0.00  0.00    +0.088 C 
ATOM     13  C   UNL     1      35.414 -15.927 -20.492  0.00  0.00    +0.008 C 
ATOM     14  C   UNL     1      33.958 -11.958 -25.053  0.00  0.00    +0.275 C 
ATOM     15  C   UNL     1      33.619 -10.990 -23.005  0.00  0.00    +0.291 C 
ENDROOT
BRANCH  10  17
ATOM     16  C   UNL     1      35.863 -19.427 -20.224  0.00  0.00    -0.087 C 
ATOM     17  C   UNL     1      35.604 -18.354 -20.697  0.00  0.00    -0.064 C 
BRANCH  16  18
ATOM     18  C   UNL     1      36.176 -20.713 -19.657  0.00  0.00    +0.065 C 
ATOM     19  C   UNL     1      35.268 -21.272 -18.600  0.00  0.00    +0.014 C 
ATOM     20  C   UNL     1      36.634 -20.776 -18.228  0.00  0.00    +0.014 C 
ENDBRANCH  16  18
ENDBRANCH  10  17
BRANCH  15  21
ATOM     21  O   UNL     1      33.283  -9.945 -22.215  0.00  0.00    -0.448 OA
BRANCH  21  22
ATOM     22  C   UNL     1      31.883  -9.743 -22.096  0.00  0.00    +0.240 C 
BRANCH  22  25
ATOM     23  O   UNL     1      31.628 -10.788 -19.959  0.00  0.00    -0.347 OA
ATOM     24  O   UNL     1      32.160  -8.397 -18.587  0.00  0.00    -0.348 OA
ATOM     25  C   UNL     1      31.536  -9.526 -20.632  0.00  0.00    +0.188 C 
ATOM     26  C   UNL     1      32.491  -8.533 -19.972  0.00  0.00    +0.175 C 
ATOM     27  C   UNL     1      31.304 -10.651 -18.573  0.00  0.00    +0.174 C 
ATOM     28  C   UNL     1      32.251  -9.658 -17.921  0.00  0.00    +0.174 C 
ENDBRANCH  22  25
ENDBRANCH  21  22
ENDBRANCH  15  21
TORSDOF 5
ENDMDL
MODEL 9
REMARK VINA RESULT:      -9.8      8.332     12.545
REMARK  Name = 71616860
REMARK  5 active torsions:
REMARK  status: ('A' for Active; 'I' for Inactive)
REMARK    1  A    between atoms: C_10  and  C_17
REMARK    2  A    between atoms: C_15  and  O_21
REMARK    3  A    between atoms: C_16  and  C_18
REMARK    4  A    between atoms: O_21  and  C_22
REMARK    5  A    between atoms: C_22  and  C_25
REMARK                            x       y       z     vdW  Elec       q    Type
REMARK                         _______ _______ _______ _____ _____    ______ ____
ROOT
ATOM      1  O   UNL     1      34.052 -15.757 -25.799  0.00  0.00    -0.193 OA
ATOM      2  N   UNL     1      33.980 -13.749 -24.650  0.00  0.00    -0.205 N 
ATOM      3  N   UNL     1      34.711 -15.796 -23.629  0.00  0.00    -0.284 NA
ATOM      4  C   UNL     1      34.028 -11.624 -25.927  0.00  0.00    +0.049 C 
ATOM      5  C   UNL     1      33.780 -10.889 -24.639  0.00  0.00    -0.019 C 
ATOM      6  C   UNL     1      33.463 -13.034 -25.822  0.00  0.00    +0.114 C 
ATOM      7  C   UNL     1      33.830 -11.595 -23.419  0.00  0.00    +0.011 C 
ATOM      8  C   UNL     1      34.137 -13.054 -23.446  0.00  0.00    +0.068 C 
ATOM      9  C   UNL     1      33.533  -9.509 -24.653  0.00  0.00    +0.004 C 
ATOM     10  C   UNL     1      33.296  -8.825 -23.465  0.00  0.00    +0.041 C 
ATOM     11  C   UNL     1      33.570 -10.889 -22.234  0.00  0.00    +0.002 C 
ATOM     12  C   UNL     1      34.595 -13.693 -22.359  0.00  0.00    +0.088 C 
ATOM     13  C   UNL     1      33.307  -9.516 -22.257  0.00  0.00    +0.008 C 
ATOM     14  C   UNL     1      34.239 -15.137 -24.749  0.00  0.00    +0.275 C 
ATOM     15  C   UNL     1      34.868 -15.118 -22.546  0.00  0.00    +0.291 C 
ENDROOT
BRANCH  10  17
ATOM     16  C   UNL     1      32.817  -6.240 -23.504  0.00  0.00    -0.087 C 
ATOM     17  C   UNL     1      33.036  -7.420 -23.485  0.00  0.00    -0.064 C 
BRANCH  16  18
ATOM     18  C   UNL     1      32.552  -4.825 -23.527  0.00  0.00    +0.065 C 
ATOM     19  C   UNL     1      31.517  -4.303 -24.481  0.00  0.00    +0.014 C 
ATOM     20  C   UNL     1      32.971  -4.036 -24.735  0.00  0.00    +0.014 C 
ENDBRANCH  16  18
ENDBRANCH  10  17
BRANCH  15  21
ATOM     21  O   UNL     1      35.329 -15.722 -21.428  0.00  0.00    -0.448 OA
BRANCH  21  22
ATOM     22  C   UNL     1      35.962 -16.970 -21.669  0.00  0.00    +0.240 C 
BRANCH  22  25
ATOM     23  O   UNL     1      34.646 -18.839 -20.960  0.00  0.00    -0.347 OA
ATOM     24  O   UNL     1      36.538 -19.597 -19.030  0.00  0.00    -0.348 OA
ATOM     25  C   UNL     1      35.648 -17.914 -20.519  0.00  0.00    +0.188 C 
ATOM     26  C   UNL     1      36.888 -18.688 -20.077  0.00  0.00    +0.175 C 
ATOM     27  C   UNL     1      34.301 -19.752 -19.915  0.00  0.00    +0.174 C 
ATOM     28  C   UNL     1      35.537 -20.516 -19.474  0.00  0.00    +0.174 C 
ENDBRANCH  22  25
ENDBRANCH  21  22
ENDBRANCH  15  21
TORSDOF 5
ENDMDL
