MODEL 1
REMARK VINA RESULT:     -13.5      0.000      0.000
REMARK  Name = 24794406
REMARK  5 active torsions:
REMARK  status: ('A' for Active; 'I' for Inactive)
REMARK    1  A    between atoms: C_1  and  S_24
REMARK    2  A    between atoms: C_2  and  N_8
REMARK    3  A    between atoms: C_9  and  C_11
REMARK    4  A    between atoms: C_12  and  N_18
REMARK    5  A    between atoms: S_24  and  N_28
REMARK                            x       y       z     vdW  Elec       q    Type
REMARK                         _______ _______ _______ _____ _____    ______ ____
ROOT
ATOM      1  C   UNL     1      32.918 -23.227 -14.226  0.00  0.00    +0.139 C 
ATOM      2  C   UNL     1      32.070 -22.800 -15.248  0.00  0.00    +0.070 C 
ATOM      3  C   UNL     1      32.405 -23.955 -13.153  0.00  0.00    +0.021 C 
ATOM      4  C   UNL     1      30.709 -23.100 -15.196  0.00  0.00    +0.016 C 
ATOM      5  C   UNL     1      31.044 -24.257 -13.101  0.00  0.00    +0.001 C 
ATOM      6  C   UNL     1      30.196 -23.829 -14.124  0.00  0.00    +0.001 C 
ENDROOT
BRANCH   2   8
ATOM      7  O   UNL     1      33.804 -23.656 -17.539  0.00  0.00    -0.270 OA
ATOM      8  N   UNL     1      32.565 -22.058 -16.349  0.00  0.00    -0.279 N 
ATOM      9  C   UNL     1      33.378 -22.498 -17.404  0.00  0.00    +0.250 C 
ATOM     10  H   UNL     1      32.306 -21.109 -16.376  0.00  0.00    +0.155 HD
BRANCH   9  11
ATOM     11  C   UNL     1      33.749 -21.489 -18.381  0.00  0.00    +0.054 C 
ATOM     12  C   UNL     1      34.460 -19.552 -20.259  0.00  0.00    +0.058 C 
ATOM     13  C   UNL     1      32.767 -20.685 -18.961  0.00  0.00    +0.006 C 
ATOM     14  C   UNL     1      35.086 -21.324 -18.742  0.00  0.00    +0.006 C 
ATOM     15  C   UNL     1      33.123 -19.717 -19.900  0.00  0.00    +0.015 C 
ATOM     16  C   UNL     1      35.442 -20.356 -19.680  0.00  0.00    +0.015 C 
BRANCH  12  18
ATOM     17  O   UNL     1      35.676 -16.999 -19.648  0.00  0.00    -0.269 OA
ATOM     18  N   UNL     1      34.830 -18.545 -21.235  0.00  0.00    -0.233 N 
ATOM     19  C   UNL     1      35.458 -17.346 -20.810  0.00  0.00    +0.257 C 
ATOM     20  C   UNL     1      34.551 -18.735 -22.590  0.00  0.00    +0.072 C 
ATOM     21  C   UNL     1      35.849 -16.381 -21.885  0.00  0.00    +0.059 C 
ATOM     22  C   UNL     1      34.881 -17.841 -23.530  0.00  0.00    +0.017 C 
ATOM     23  C   UNL     1      35.555 -16.633 -23.162  0.00  0.00    +0.006 C 
ENDBRANCH  12  18
ENDBRANCH   9  11
ENDBRANCH   2   8
BRANCH   1  24
ATOM     24  S   UNL     1      34.633 -22.871 -14.254  0.00  0.00    +0.076 S 
ATOM     25  O   UNL     1      35.095 -22.828 -12.873  0.00  0.00    -0.150 OA
ATOM     26  O   UNL     1      34.849 -21.711 -15.107  0.00  0.00    -0.150 OA
BRANCH  24  28
ATOM     27 CL   UNL     1      40.908 -25.532 -13.768  0.00  0.00    -0.081 Cl
ATOM     28  N   UNL     1      35.297 -24.272 -15.001  0.00  0.00    -0.199 N 
ATOM     29  N   UNL     1      37.521 -23.588 -14.557  0.00  0.00    -0.227 NA
ATOM     30  C   UNL     1      36.660 -24.621 -14.700  0.00  0.00    +0.147 C 
ATOM     31  C   UNL     1      37.019 -25.953 -14.574  0.00  0.00    +0.036 C 
ATOM     32  C   UNL     1      38.347 -26.245 -14.281  0.00  0.00    +0.016 C 
ATOM     33  C   UNL     1      38.803 -23.911 -14.273  0.00  0.00    +0.112 C 
ATOM     34  C   UNL     1      39.262 -25.209 -14.126  0.00  0.00    +0.077 C 
ATOM     35  H   UNL     1      34.760 -24.820 -15.617  0.00  0.00    +0.175 HD
ENDBRANCH  24  28
ENDBRANCH   1  24
TORSDOF 5
ENDMDL
MODEL 2
REMARK VINA RESULT:     -11.2      9.085     14.553
REMARK  Name = 24794406
REMARK  5 active torsions:
REMARK  status: ('A' for Active; 'I' for Inactive)
REMARK    1  A    between atoms: C_1  and  S_24
REMARK    2  A    between atoms: C_2  and  N_8
REMARK    3  A    between atoms: C_9  and  C_11
REMARK    4  A    between atoms: C_12  and  N_18
REMARK    5  A    between atoms: S_24  and  N_28
REMARK                            x       y       z     vdW  Elec       q    Type
REMARK                         _______ _______ _______ _____ _____    ______ ____
ROOT
ATOM      1  C   UNL     1      32.223  -6.705 -21.181  0.00  0.00    +0.139 C 
ATOM      2  C   UNL     1      32.442  -7.622 -20.154  0.00  0.00    +0.070 C 
ATOM      3  C   UNL     1      31.868  -5.390 -20.877  0.00  0.00    +0.021 C 
ATOM      4  C   UNL     1      32.305  -7.226 -18.823  0.00  0.00    +0.016 C 
ATOM      5  C   UNL     1      31.732  -4.994 -19.546  0.00  0.00    +0.001 C 
ATOM      6  C   UNL     1      31.951  -5.913 -18.519  0.00  0.00    +0.001 C 
ENDROOT
BRANCH   2   8
ATOM      7  O   UNL     1      30.816 -10.137 -20.008  0.00  0.00    -0.270 OA
ATOM      8  N   UNL     1      32.802  -8.963 -20.434  0.00  0.00    -0.279 N 
ATOM      9  C   UNL     1      32.008 -10.116 -20.352  0.00  0.00    +0.250 C 
ATOM     10  H   UNL     1      33.733  -9.105 -20.723  0.00  0.00    +0.155 HD
BRANCH   9  11
ATOM     11  C   UNL     1      32.671 -11.368 -20.680  0.00  0.00    +0.054 C 
ATOM     12  C   UNL     1      33.944 -13.770 -21.305  0.00  0.00    +0.058 C 
ATOM     13  C   UNL     1      32.425 -12.508 -19.914  0.00  0.00    +0.006 C 
ATOM     14  C   UNL     1      33.555 -11.430 -21.756  0.00  0.00    +0.006 C 
ATOM     15  C   UNL     1      33.061 -13.709 -20.227  0.00  0.00    +0.015 C 
ATOM     16  C   UNL     1      34.192 -12.630 -22.069  0.00  0.00    +0.015 C 
BRANCH  12  18
ATOM     17  O   UNL     1      35.263 -15.508 -19.406  0.00  0.00    -0.269 OA
ATOM     18  N   UNL     1      34.606 -15.019 -21.630  0.00  0.00    -0.233 N 
ATOM     19  C   UNL     1      35.183 -15.803 -20.599  0.00  0.00    +0.257 C 
ATOM     20  C   UNL     1      34.701 -15.446 -22.957  0.00  0.00    +0.072 C 
ATOM     21  C   UNL     1      35.805 -17.099 -21.015  0.00  0.00    +0.059 C 
ATOM     22  C   UNL     1      35.292 -16.593 -23.308  0.00  0.00    +0.017 C 
ATOM     23  C   UNL     1      35.854 -17.445 -22.303  0.00  0.00    +0.006 C 
ENDBRANCH  12  18
ENDBRANCH   9  11
ENDBRANCH   2   8
BRANCH   1  24
ATOM     24  S   UNL     1      32.384  -7.162 -22.864  0.00  0.00    +0.076 S 
ATOM     25  O   UNL     1      32.107  -5.979 -23.668  0.00  0.00    -0.150 OA
ATOM     26  O   UNL     1      31.603  -8.369 -23.091  0.00  0.00    -0.150 OA
BRANCH  24  28
ATOM     27 CL   UNL     1      35.644 -11.260 -27.252  0.00  0.00    -0.081 Cl
ATOM     28  N   UNL     1      34.062  -7.522 -22.997  0.00  0.00    -0.199 N 
ATOM     29  N   UNL     1      33.655  -9.447 -24.316  0.00  0.00    -0.227 NA
ATOM     30  C   UNL     1      34.485  -8.415 -24.044  0.00  0.00    +0.147 C 
ATOM     31  C   UNL     1      35.680  -8.185 -24.704  0.00  0.00    +0.036 C 
ATOM     32  C   UNL     1      36.049  -9.071 -25.711  0.00  0.00    +0.016 C 
ATOM     33  C   UNL     1      34.046 -10.287 -25.300  0.00  0.00    +0.112 C 
ATOM     34  C   UNL     1      35.221 -10.146 -26.020  0.00  0.00    +0.077 C 
ATOM     35  H   UNL     1      34.715  -7.130 -22.374  0.00  0.00    +0.175 HD
ENDBRANCH  24  28
ENDBRANCH   1  24
TORSDOF 5
ENDMDL
MODEL 3
REMARK VINA RESULT:     -11.0      3.397      5.557
REMARK  Name = 24794406
REMARK  5 active torsions:
REMARK  status: ('A' for Active; 'I' for Inactive)
REMARK    1  A    between atoms: C_1  and  S_24
REMARK    2  A    between atoms: C_2  and  N_8
REMARK    3  A    between atoms: C_9  and  C_11
REMARK    4  A    between atoms: C_12  and  N_18
REMARK    5  A    between atoms: S_24  and  N_28
REMARK                            x       y       z     vdW  Elec       q    Type
REMARK                         _______ _______ _______ _____ _____    ______ ____
ROOT
ATOM      1  C   UNL     1      35.069 -22.605 -15.965  0.00  0.00    +0.139 C 
ATOM      2  C   UNL     1      36.050 -21.693 -16.354  0.00  0.00    +0.070 C 
ATOM      3  C   UNL     1      35.272 -23.411 -14.844  0.00  0.00    +0.021 C 
ATOM      4  C   UNL     1      37.234 -21.588 -15.624  0.00  0.00    +0.016 C 
ATOM      5  C   UNL     1      36.456 -23.305 -14.114  0.00  0.00    +0.001 C 
ATOM      6  C   UNL     1      37.437 -22.392 -14.504  0.00  0.00    +0.001 C 
ENDROOT
BRANCH   2   8
ATOM      7  O   UNL     1      37.571 -21.581 -18.935  0.00  0.00    -0.270 OA
ATOM      8  N   UNL     1      35.870 -20.862 -17.487  0.00  0.00    -0.279 N 
ATOM      9  C   UNL     1      36.607 -20.842 -18.681  0.00  0.00    +0.250 C 
ATOM     10  H   UNL     1      35.131 -20.214 -17.431  0.00  0.00    +0.155 HD
BRANCH   9  11
ATOM     11  C   UNL     1      36.199 -19.849 -19.661  0.00  0.00    +0.054 C 
ATOM     12  C   UNL     1      35.417 -17.942 -21.541  0.00  0.00    +0.058 C 
ATOM     13  C   UNL     1      37.141 -18.972 -20.198  0.00  0.00    +0.006 C 
ATOM     14  C   UNL     1      34.866 -19.772 -20.064  0.00  0.00    +0.006 C 
ATOM     15  C   UNL     1      36.750 -18.018 -21.138  0.00  0.00    +0.015 C 
ATOM     16  C   UNL     1      34.475 -18.819 -21.004  0.00  0.00    +0.015 C 
BRANCH  12  18
ATOM     17  O   UNL     1      35.140 -15.108 -21.034  0.00  0.00    -0.269 OA
ATOM     18  N   UNL     1      35.010 -16.952 -22.519  0.00  0.00    -0.233 N 
ATOM     19  C   UNL     1      34.950 -15.582 -22.155  0.00  0.00    +0.257 C 
ATOM     20  C   UNL     1      34.653 -17.338 -23.813  0.00  0.00    +0.072 C 
ATOM     21  C   UNL     1      34.567 -14.621 -23.236  0.00  0.00    +0.059 C 
ATOM     22  C   UNL     1      34.281 -16.462 -24.754  0.00  0.00    +0.017 C 
ATOM     23  C   UNL     1      34.244 -15.063 -24.454  0.00  0.00    +0.006 C 
ENDBRANCH  12  18
ENDBRANCH   9  11
ENDBRANCH   2   8
BRANCH   1  24
ATOM     24  S   UNL     1      33.569 -22.767 -16.854  0.00  0.00    +0.076 S 
ATOM     25  O   UNL     1      33.835 -23.608 -18.013  0.00  0.00    -0.150 OA
ATOM     26  O   UNL     1      33.008 -21.440 -17.058  0.00  0.00    -0.150 OA
BRANCH  24  28
ATOM     27 CL   UNL     1      26.984 -21.917 -15.243  0.00  0.00    -0.081 Cl
ATOM     28  N   UNL     1      32.578 -23.654 -15.761  0.00  0.00    -0.199 N 
ATOM     29  N   UNL     1      30.942 -21.943 -15.684  0.00  0.00    -0.227 NA
ATOM     30  C   UNL     1      31.197 -23.270 -15.630  0.00  0.00    +0.147 C 
ATOM     31  C   UNL     1      30.225 -24.241 -15.460  0.00  0.00    +0.036 C 
ATOM     32  C   UNL     1      28.903 -23.824 -15.340  0.00  0.00    +0.016 C 
ATOM     33  C   UNL     1      29.647 -21.576 -15.563  0.00  0.00    +0.112 C 
ATOM     34  C   UNL     1      28.601 -22.467 -15.391  0.00  0.00    +0.077 C 
ATOM     35  H   UNL     1      32.945 -24.404 -15.239  0.00  0.00    +0.175 HD
ENDBRANCH  24  28
ENDBRANCH   1  24
TORSDOF 5
ENDMDL
MODEL 4
REMARK VINA RESULT:     -10.5     11.098     16.822
REMARK  Name = 24794406
REMARK  5 active torsions:
REMARK  status: ('A' for Active; 'I' for Inactive)
REMARK    1  A    between atoms: C_1  and  S_24
REMARK    2  A    between atoms: C_2  and  N_8
REMARK    3  A    between atoms: C_9  and  C_11
REMARK    4  A    between atoms: C_12  and  N_18
REMARK    5  A    between atoms: S_24  and  N_28
REMARK                            x       y       z     vdW  Elec       q    Type
REMARK                         _______ _______ _______ _____ _____    ______ ____
ROOT
ATOM      1  C   UNL     1      32.489  -5.832 -21.259  0.00  0.00    +0.139 C 
ATOM      2  C   UNL     1      32.638  -6.934 -20.417  0.00  0.00    +0.070 C 
ATOM      3  C   UNL     1      32.302  -4.560 -20.716  0.00  0.00    +0.021 C 
ATOM      4  C   UNL     1      32.598  -6.765 -19.033  0.00  0.00    +0.016 C 
ATOM      5  C   UNL     1      32.263  -4.392 -19.332  0.00  0.00    +0.001 C 
ATOM      6  C   UNL     1      32.412  -5.494 -18.490  0.00  0.00    +0.001 C 
ENDROOT
BRANCH   2   8
ATOM      7  O   UNL     1      31.145  -9.478 -19.877  0.00  0.00    -0.270 OA
ATOM      8  N   UNL     1      32.828  -8.236 -20.941  0.00  0.00    -0.279 N 
ATOM      9  C   UNL     1      32.105  -9.405 -20.661  0.00  0.00    +0.250 C 
ATOM     10  H   UNL     1      33.565  -8.334 -21.586  0.00  0.00    +0.155 HD
BRANCH   9  11
ATOM     11  C   UNL     1      32.557 -10.608 -21.340  0.00  0.00    +0.054 C 
ATOM     12  C   UNL     1      33.424 -12.917 -22.644  0.00  0.00    +0.058 C 
ATOM     13  C   UNL     1      33.340 -10.507 -22.489  0.00  0.00    +0.006 C 
ATOM     14  C   UNL     1      32.207 -11.863 -20.843  0.00  0.00    +0.006 C 
ATOM     15  C   UNL     1      33.774 -11.662 -23.142  0.00  0.00    +0.015 C 
ATOM     16  C   UNL     1      32.640 -13.017 -21.495  0.00  0.00    +0.015 C 
BRANCH  12  18
ATOM     17  O   UNL     1      35.253 -14.869 -21.546  0.00  0.00    -0.269 OA
ATOM     18  N   UNL     1      33.875 -14.117 -23.322  0.00  0.00    -0.233 N 
ATOM     19  C   UNL     1      34.746 -15.019 -22.658  0.00  0.00    +0.257 C 
ATOM     20  C   UNL     1      33.478 -14.381 -24.635  0.00  0.00    +0.072 C 
ATOM     21  C   UNL     1      35.125 -16.255 -23.411  0.00  0.00    +0.059 C 
ATOM     22  C   UNL     1      33.858 -15.478 -25.299  0.00  0.00    +0.017 C 
ATOM     23  C   UNL     1      34.702 -16.444 -24.663  0.00  0.00    +0.006 C 
ENDBRANCH  12  18
ENDBRANCH   9  11
ENDBRANCH   2   8
BRANCH   1  24
ATOM     24  S   UNL     1      32.532  -6.002 -23.002  0.00  0.00    +0.076 S 
ATOM     25  O   UNL     1      31.311  -6.686 -23.406  0.00  0.00    -0.150 OA
ATOM     26  O   UNL     1      33.818  -6.570 -23.377  0.00  0.00    -0.150 OA
BRANCH  24  28
ATOM     27 CL   UNL     1      34.088  -3.309 -29.085  0.00  0.00    -0.081 Cl
ATOM     28  N   UNL     1      32.439  -4.370 -23.541  0.00  0.00    -0.199 N 
ATOM     29  N   UNL     1      33.854  -4.787 -25.394  0.00  0.00    -0.227 NA
ATOM     30  C   UNL     1      32.812  -4.081 -24.900  0.00  0.00    +0.147 C 
ATOM     31  C   UNL     1      32.111  -3.126 -25.619  0.00  0.00    +0.036 C 
ATOM     32  C   UNL     1      32.505  -2.881 -26.931  0.00  0.00    +0.016 C 
ATOM     33  C   UNL     1      34.208  -4.521 -26.671  0.00  0.00    +0.112 C 
ATOM     34  C   UNL     1      33.573  -3.587 -27.474  0.00  0.00    +0.077 C 
ATOM     35  H   UNL     1      32.139  -3.653 -22.937  0.00  0.00    +0.175 HD
ENDBRANCH  24  28
ENDBRANCH   1  24
TORSDOF 5
ENDMDL
