MODEL 1
REMARK VINA RESULT:     -12.8      0.000      0.000
REMARK  Name = 124173720
REMARK  4 active torsions:
REMARK  status: ('A' for Active; 'I' for Inactive)
REMARK    1  A    between atoms: C_13  and  N_24
REMARK    2  A    between atoms: C_18  and  C_23
REMARK    3  A    between atoms: N_24  and  C_26
REMARK    4  A    between atoms: C_26  and  C_30
REMARK                            x       y       z     vdW  Elec       q    Type
REMARK                         _______ _______ _______ _____ _____    ______ ____
ROOT
ATOM      1  O   UNL     1      32.665 -21.798 -17.048  0.00  0.00    -0.473 OA
ATOM      2  N   UNL     1      35.049 -22.706 -15.409  0.00  0.00    -0.272 N 
ATOM      3  N   UNL     1      34.513 -23.301 -13.354  0.00  0.00    -0.374 NA
ATOM      4  C   UNL     1      35.872 -23.324 -13.493  0.00  0.00    +0.190 C 
ATOM      5  C   UNL     1      34.011 -22.918 -14.523  0.00  0.00    +0.188 C 
ATOM      6  C   UNL     1      34.990 -22.293 -16.795  0.00  0.00    +0.141 C 
ATOM      7  C   UNL     1      36.232 -22.954 -14.761  0.00  0.00    +0.169 C 
ATOM      8  C   UNL     1      32.564 -22.762 -14.775  0.00  0.00    +0.078 C 
ATOM      9  C   UNL     1      33.697 -22.682 -17.476  0.00  0.00    +0.227 C 
ATOM     10  C   UNL     1      31.987 -22.232 -15.941  0.00  0.00    +0.144 C 
ATOM     11  C   UNL     1      31.685 -23.144 -13.739  0.00  0.00    +0.008 C 
ATOM     12  C   UNL     1      30.596 -22.048 -16.033  0.00  0.00    +0.051 C 
ATOM     13  C   UNL     1      29.756 -22.430 -14.993  0.00  0.00    +0.048 C 
ATOM     14  C   UNL     1      30.301 -22.985 -13.844  0.00  0.00    +0.015 C 
ATOM     15  O   UNL     1      37.457 -24.162 -10.392  0.00  0.00    -0.432 OA
ATOM     16  O   UNL     1      35.203 -24.259 -10.777  0.00  0.00    -0.226 OA
ATOM     17  N   UNL     1      36.725 -23.672 -12.474  0.00  0.00    -0.194 N 
ATOM     18  C   UNL     1      38.168 -23.712 -12.562  0.00  0.00    +0.195 C 
ATOM     19  C   UNL     1      38.565 -23.600 -11.104  0.00  0.00    +0.236 C 
ATOM     20  C   UNL     1      36.337 -24.047 -11.185  0.00  0.00    +0.411 C 
ENDROOT
BRANCH  18  23
ATOM     21  F   UNL     1      39.989 -25.123 -12.975  0.00  0.00    -0.196 F 
ATOM     22  F   UNL     1      38.064 -26.050 -12.559  0.00  0.00    -0.196 F 
ATOM     23  C   UNL     1      38.661 -25.016 -13.187  0.00  0.00    +0.340 C 
ENDBRANCH  18  23
BRANCH  13  24
ATOM     24  N   UNL     1      28.362 -22.253 -15.105  0.00  0.00    -0.327 N 
ATOM     25  H   UNL     1      27.805 -22.393 -14.306  0.00  0.00    +0.147 HD
BRANCH  24  26
ATOM     26  C   UNL     1      27.721 -21.880 -16.328  0.00  0.00    +0.146 C 
ATOM     27  C   UNL     1      27.624 -23.093 -17.241  0.00  0.00    +0.031 C 
BRANCH  26  30
ATOM     28  O   UNL     1      25.695 -21.627 -15.017  0.00  0.00    -0.274 OA
ATOM     29  N   UNL     1      25.888 -20.444 -16.976  0.00  0.00    -0.327 N 
ATOM     30  C   UNL     1      26.341 -21.325 -16.019  0.00  0.00    +0.237 C 
ATOM     31  H   UNL     1      25.004 -20.023 -16.879  0.00  0.00    +0.145 HD
ATOM     32  H   UNL     1      26.448 -20.236 -17.759  0.00  0.00    +0.145 HD
ENDBRANCH  26  30
ENDBRANCH  24  26
ENDBRANCH  13  24
TORSDOF 4
ENDMDL
MODEL 2
REMARK VINA RESULT:     -12.8      3.771      5.965
REMARK  Name = 124173720
REMARK  4 active torsions:
REMARK  status: ('A' for Active; 'I' for Inactive)
REMARK    1  A    between atoms: C_13  and  N_24
REMARK    2  A    between atoms: C_18  and  C_23
REMARK    3  A    between atoms: N_24  and  C_26
REMARK    4  A    between atoms: C_26  and  C_30
REMARK                            x       y       z     vdW  Elec       q    Type
REMARK                         _______ _______ _______ _____ _____    ______ ____
ROOT
ATOM      1  O   UNL     1      32.364 -22.063 -17.607  0.00  0.00    -0.473 OA
ATOM      2  N   UNL     1      34.215 -23.152 -15.466  0.00  0.00    -0.272 N 
ATOM      3  N   UNL     1      36.340 -22.691 -15.840  0.00  0.00    -0.374 NA
ATOM      4  C   UNL     1      36.237 -23.514 -14.754  0.00  0.00    +0.190 C 
ATOM      5  C   UNL     1      35.104 -22.475 -16.278  0.00  0.00    +0.188 C 
ATOM      6  C   UNL     1      32.771 -23.204 -15.546  0.00  0.00    +0.141 C 
ATOM      7  C   UNL     1      34.927 -23.818 -14.502  0.00  0.00    +0.169 C 
ATOM      8  C   UNL     1      34.793 -21.634 -17.452  0.00  0.00    +0.078 C 
ATOM      9  C   UNL     1      32.168 -21.981 -16.199  0.00  0.00    +0.227 C 
ATOM     10  C   UNL     1      33.526 -21.483 -18.040  0.00  0.00    +0.144 C 
ATOM     11  C   UNL     1      35.870 -20.954 -18.061  0.00  0.00    +0.008 C 
ATOM     12  C   UNL     1      33.365 -20.724 -19.214  0.00  0.00    +0.051 C 
ATOM     13  C   UNL     1      34.447 -20.070 -19.793  0.00  0.00    +0.048 C 
ATOM     14  C   UNL     1      35.702 -20.180 -19.212  0.00  0.00    +0.015 C 
ATOM     15  O   UNL     1      39.480 -24.383 -13.504  0.00  0.00    -0.432 OA
ATOM     16  O   UNL     1      39.080 -22.818 -15.126  0.00  0.00    -0.226 OA
ATOM     17  N   UNL     1      37.326 -23.955 -14.042  0.00  0.00    -0.194 N 
ATOM     18  C   UNL     1      37.280 -24.826 -12.888  0.00  0.00    +0.195 C 
ATOM     19  C   UNL     1      38.684 -25.396 -12.881  0.00  0.00    +0.236 C 
ATOM     20  C   UNL     1      38.658 -23.632 -14.315  0.00  0.00    +0.411 C 
ENDROOT
BRANCH  18  23
ATOM     21  F   UNL     1      35.905 -24.614 -11.006  0.00  0.00    -0.196 F 
ATOM     22  F   UNL     1      38.023 -24.173 -10.767  0.00  0.00    -0.196 F 
ATOM     23  C   UNL     1      36.974 -24.052 -11.607  0.00  0.00    +0.340 C 
ENDBRANCH  18  23
BRANCH  13  24
ATOM     24  N   UNL     1      34.269 -19.301 -20.961  0.00  0.00    -0.327 N 
ATOM     25  H   UNL     1      33.359 -19.194 -21.318  0.00  0.00    +0.147 HD
BRANCH  24  26
ATOM     26  C   UNL     1      35.353 -18.671 -21.650  0.00  0.00    +0.146 C 
ATOM     27  C   UNL     1      35.106 -18.732 -23.150  0.00  0.00    +0.031 C 
BRANCH  26  30
ATOM     28  O   UNL     1      35.684 -16.911 -20.013  0.00  0.00    -0.274 OA
ATOM     29  N   UNL     1      35.322 -16.318 -22.201  0.00  0.00    -0.327 N 
ATOM     30  C   UNL     1      35.472 -17.231 -21.180  0.00  0.00    +0.237 C 
ATOM     31  H   UNL     1      35.379 -15.354 -22.012  0.00  0.00    +0.145 HD
ATOM     32  H   UNL     1      35.156 -16.630 -23.121  0.00  0.00    +0.145 HD
ENDBRANCH  26  30
ENDBRANCH  24  26
ENDBRANCH  13  24
TORSDOF 4
ENDMDL
MODEL 3
REMARK VINA RESULT:     -11.3      5.309      9.653
REMARK  Name = 124173720
REMARK  4 active torsions:
REMARK  status: ('A' for Active; 'I' for Inactive)
REMARK    1  A    between atoms: C_13  and  N_24
REMARK    2  A    between atoms: C_18  and  C_23
REMARK    3  A    between atoms: N_24  and  C_26
REMARK    4  A    between atoms: C_26  and  C_30
REMARK                            x       y       z     vdW  Elec       q    Type
REMARK                         _______ _______ _______ _____ _____    ______ ____
ROOT
ATOM      1  O   UNL     1      33.986 -22.497 -16.013  0.00  0.00    -0.473 OA
ATOM      2  N   UNL     1      34.130 -20.849 -18.555  0.00  0.00    -0.272 N 
ATOM      3  N   UNL     1      36.132 -20.002 -18.927  0.00  0.00    -0.374 NA
ATOM      4  C   UNL     1      35.255 -19.522 -19.859  0.00  0.00    +0.190 C 
ATOM      5  C   UNL     1      35.443 -20.809 -18.128  0.00  0.00    +0.188 C 
ATOM      6  C   UNL     1      33.019 -21.598 -18.006  0.00  0.00    +0.141 C 
ATOM      7  C   UNL     1      34.002 -20.031 -19.648  0.00  0.00    +0.169 C 
ATOM      8  C   UNL     1      36.040 -21.522 -16.980  0.00  0.00    +0.078 C 
ATOM      9  C   UNL     1      33.449 -22.854 -17.283  0.00  0.00    +0.227 C 
ATOM     10  C   UNL     1      35.337 -22.274 -16.025  0.00  0.00    +0.144 C 
ATOM     11  C   UNL     1      37.436 -21.405 -16.806  0.00  0.00    +0.008 C 
ATOM     12  C   UNL     1      36.003 -22.836 -14.921  0.00  0.00    +0.051 C 
ATOM     13  C   UNL     1      37.378 -22.699 -14.774  0.00  0.00    +0.048 C 
ATOM     14  C   UNL     1      38.099 -21.987 -15.722  0.00  0.00    +0.015 C 
ATOM     15  O   UNL     1      36.863 -17.169 -22.029  0.00  0.00    -0.432 OA
ATOM     16  O   UNL     1      37.939 -18.469 -20.483  0.00  0.00    -0.226 OA
ATOM     17  N   UNL     1      35.621 -18.646 -20.853  0.00  0.00    -0.194 N 
ATOM     18  C   UNL     1      34.738 -18.104 -21.862  0.00  0.00    +0.195 C 
ATOM     19  C   UNL     1      35.489 -16.857 -22.285  0.00  0.00    +0.236 C 
ATOM     20  C   UNL     1      36.907 -18.138 -21.051  0.00  0.00    +0.411 C 
ENDROOT
BRANCH  18  23
ATOM     21  F   UNL     1      33.897 -18.435 -24.020  0.00  0.00    -0.196 F 
ATOM     22  F   UNL     1      35.760 -19.431 -23.497  0.00  0.00    -0.196 F 
ATOM     23  C   UNL     1      34.547 -19.074 -23.027  0.00  0.00    +0.340 C 
ENDBRANCH  18  23
BRANCH  13  24
ATOM     24  N   UNL     1      38.036 -23.280 -13.671  0.00  0.00    -0.327 N 
ATOM     25  H   UNL     1      38.183 -22.729 -12.869  0.00  0.00    +0.147 HD
BRANCH  24  26
ATOM     26  C   UNL     1      38.498 -24.634 -13.665  0.00  0.00    +0.146 C 
ATOM     27  C   UNL     1      40.012 -24.653 -13.516  0.00  0.00    +0.031 C 
BRANCH  26  30
ATOM     28  O   UNL     1      37.909 -25.036 -11.346  0.00  0.00    -0.274 OA
ATOM     29  N   UNL     1      37.131 -26.491 -12.942  0.00  0.00    -0.327 N 
ATOM     30  C   UNL     1      37.833 -25.382 -12.523  0.00  0.00    +0.237 C 
ATOM     31  H   UNL     1      36.659 -27.053 -12.286  0.00  0.00    +0.145 HD
ATOM     32  H   UNL     1      37.101 -26.722 -13.899  0.00  0.00    +0.145 HD
ENDBRANCH  26  30
ENDBRANCH  24  26
ENDBRANCH  13  24
TORSDOF 4
ENDMDL
