MODEL 1
REMARK VINA RESULT:     -12.6      0.000      0.000
REMARK  Name = 46926973
REMARK  4 active torsions:
REMARK  status: ('A' for Active; 'I' for Inactive)
REMARK    1  A    between atoms: C_4  and  C_17
REMARK    2  A    between atoms: C_6  and  C_13
REMARK    3  A    between atoms: C_17  and  C_19
REMARK    4  A    between atoms: C_21  and  C_26
REMARK                            x       y       z     vdW  Elec       q    Type
REMARK                         _______ _______ _______ _____ _____    ______ ____
ROOT
ATOM      1  O   UNL     1      34.021 -19.038 -21.792  0.00  0.00    -0.274 OA
ATOM      2  N   UNL     1      36.069 -19.045 -20.635  0.00  0.00    -0.269 N 
ATOM      3  N   UNL     1      36.820 -20.105 -18.658  0.00  0.00    -0.229 NA
ATOM      4  C   UNL     1      35.188 -18.680 -21.662  0.00  0.00    +0.232 C 
ATOM      5  C   UNL     1      35.820 -19.884 -19.542  0.00  0.00    +0.134 C 
ATOM      6  C   UNL     1      35.301 -21.528 -17.427  0.00  0.00    +0.038 C 
ATOM      7  C   UNL     1      34.555 -20.439 -19.437  0.00  0.00    +0.035 C 
ATOM      8  C   UNL     1      34.298 -21.275 -18.356  0.00  0.00    +0.006 C 
ATOM      9  C   UNL     1      36.533 -20.923 -17.621  0.00  0.00    +0.102 C 
ATOM     10  H   UNL     1      36.975 -18.663 -20.688  0.00  0.00    +0.156 HD
ENDROOT
BRANCH   6  13
ATOM     11  N   UNL     1      36.165 -22.831 -15.649  0.00  0.00    -0.241 NA
ATOM     12  N   UNL     1      33.579 -23.549 -14.835  0.00  0.00    -0.239 NA
ATOM     13  C   UNL     1      35.065 -22.390 -16.293  0.00  0.00    +0.102 C 
ATOM     14  C   UNL     1      33.795 -22.743 -15.893  0.00  0.00    +0.118 C 
ATOM     15  C   UNL     1      35.948 -23.636 -14.590  0.00  0.00    +0.119 C 
ATOM     16  C   UNL     1      34.678 -23.989 -14.190  0.00  0.00    +0.120 C 
ENDBRANCH   6  13
BRANCH   4  17
ATOM     17  C   UNL     1      35.867 -17.749 -22.655  0.00  0.00    +0.113 C 
BRANCH  17  19
ATOM     18  N   UNL     1      34.805 -14.312 -21.474  0.00  0.00    -0.244 NA
ATOM     19  C   UNL     1      35.285 -16.359 -22.667  0.00  0.00    +0.006 C 
ATOM     20  C   UNL     1      34.176 -14.549 -23.797  0.00  0.00    -0.004 C 
ATOM     21  C   UNL     1      34.251 -13.836 -22.612  0.00  0.00    +0.077 C 
ATOM     22  C   UNL     1      34.706 -15.835 -23.816  0.00  0.00    -0.005 C 
ATOM     23  C   UNL     1      35.309 -15.564 -21.531  0.00  0.00    +0.095 C 
ATOM     24  C   UNL     1      33.556 -13.989 -25.031  0.00  0.00    +0.033 C 
BRANCH  21  26
ATOM     25  N   UNL     1      32.714  -9.897 -22.268  0.00  0.00    -0.248 NA
ATOM     26  C   UNL     1      33.727 -12.493 -22.495  0.00  0.00    +0.020 C 
ATOM     27  C   UNL     1      32.685 -12.224 -21.612  0.00  0.00    +0.016 C 
ATOM     28  C   UNL     1      34.262 -11.465 -23.263  0.00  0.00    +0.022 C 
ATOM     29  C   UNL     1      32.220 -10.921 -21.538  0.00  0.00    +0.059 C 
ATOM     30  C   UNL     1      33.725 -10.197 -23.114  0.00  0.00    +0.098 C 
ATOM     31  C   UNL     1      31.103 -10.596 -20.602  0.00  0.00    +0.052 C 
ENDBRANCH  21  26
ENDBRANCH  17  19
ENDBRANCH   4  17
TORSDOF 4
ENDMDL
MODEL 2
REMARK VINA RESULT:     -12.2      1.406      2.358
REMARK  Name = 46926973
REMARK  4 active torsions:
REMARK  status: ('A' for Active; 'I' for Inactive)
REMARK    1  A    between atoms: C_4  and  C_17
REMARK    2  A    between atoms: C_6  and  C_13
REMARK    3  A    between atoms: C_17  and  C_19
REMARK    4  A    between atoms: C_21  and  C_26
REMARK                            x       y       z     vdW  Elec       q    Type
REMARK                         _______ _______ _______ _____ _____    ______ ____
ROOT
ATOM      1  O   UNL     1      36.831 -17.910 -22.254  0.00  0.00    -0.274 OA
ATOM      2  N   UNL     1      34.629 -18.606 -21.808  0.00  0.00    -0.269 N 
ATOM      3  N   UNL     1      33.657 -19.962 -20.132  0.00  0.00    -0.229 NA
ATOM      4  C   UNL     1      35.633 -17.931 -22.517  0.00  0.00    +0.232 C 
ATOM      5  C   UNL     1      34.765 -19.396 -20.661  0.00  0.00    +0.134 C 
ATOM      6  C   UNL     1      35.068 -20.926 -18.422  0.00  0.00    +0.038 C 
ATOM      7  C   UNL     1      36.039 -19.547 -20.136  0.00  0.00    +0.035 C 
ATOM      8  C   UNL     1      36.185 -20.329 -18.996  0.00  0.00    +0.006 C 
ATOM      9  C   UNL     1      33.838 -20.715 -19.023  0.00  0.00    +0.102 C 
ATOM     10  H   UNL     1      33.715 -18.513 -22.162  0.00  0.00    +0.156 HD
ENDROOT
BRANCH   6  13
ATOM     11  N   UNL     1      36.367 -21.675 -16.590  0.00  0.00    -0.241 NA
ATOM     12  N   UNL     1      34.272 -23.309 -15.691  0.00  0.00    -0.239 NA
ATOM     13  C   UNL     1      35.187 -21.744 -17.238  0.00  0.00    +0.102 C 
ATOM     14  C   UNL     1      34.158 -22.546 -16.796  0.00  0.00    +0.118 C 
ATOM     15  C   UNL     1      36.480 -22.437 -15.484  0.00  0.00    +0.119 C 
ATOM     16  C   UNL     1      35.452 -23.240 -15.042  0.00  0.00    +0.120 C 
ENDBRANCH   6  13
BRANCH   4  17
ATOM     17  C   UNL     1      35.049 -17.185 -23.707  0.00  0.00    +0.113 C 
BRANCH  17  19
ATOM     18  N   UNL     1      33.809 -13.637 -24.162  0.00  0.00    -0.244 NA
ATOM     19  C   UNL     1      34.711 -15.748 -23.405  0.00  0.00    +0.006 C 
ATOM     20  C   UNL     1      34.644 -13.869 -21.905  0.00  0.00    -0.004 C 
ATOM     21  C   UNL     1      34.072 -13.138 -22.934  0.00  0.00    +0.077 C 
ATOM     22  C   UNL     1      34.966 -15.199 -22.154  0.00  0.00    -0.005 C 
ATOM     23  C   UNL     1      34.136 -14.932 -24.367  0.00  0.00    +0.095 C 
ATOM     24  C   UNL     1      34.920 -13.282 -20.563  0.00  0.00    +0.033 C 
BRANCH  21  26
ATOM     25  N   UNL     1      32.991  -9.064 -22.454  0.00  0.00    -0.248 NA
ATOM     26  C   UNL     1      33.703 -11.749 -22.770  0.00  0.00    +0.020 C 
ATOM     27  C   UNL     1      34.377 -10.760 -23.478  0.00  0.00    +0.016 C 
ATOM     28  C   UNL     1      32.674 -11.398 -21.904  0.00  0.00    +0.022 C 
ATOM     29  C   UNL     1      33.986  -9.444 -23.286  0.00  0.00    +0.059 C 
ATOM     30  C   UNL     1      32.359 -10.054 -21.782  0.00  0.00    +0.098 C 
ATOM     31  C   UNL     1      34.687  -8.356 -24.029  0.00  0.00    +0.052 C 
ENDBRANCH  21  26
ENDBRANCH  17  19
ENDBRANCH   4  17
TORSDOF 4
ENDMDL
MODEL 3
REMARK VINA RESULT:     -12.2      2.769     11.406
REMARK  Name = 46926973
REMARK  4 active torsions:
REMARK  status: ('A' for Active; 'I' for Inactive)
REMARK    1  A    between atoms: C_4  and  C_17
REMARK    2  A    between atoms: C_6  and  C_13
REMARK    3  A    between atoms: C_17  and  C_19
REMARK    4  A    between atoms: C_21  and  C_26
REMARK                            x       y       z     vdW  Elec       q    Type
REMARK                         _______ _______ _______ _____ _____    ______ ____
ROOT
ATOM      1  O   UNL     1      32.931 -13.273 -22.432  0.00  0.00    -0.274 OA
ATOM      2  N   UNL     1      34.408 -11.663 -23.303  0.00  0.00    -0.269 N 
ATOM      3  N   UNL     1      34.504  -9.303 -23.177  0.00  0.00    -0.229 NA
ATOM      4  C   UNL     1      33.925 -12.959 -23.080  0.00  0.00    +0.232 C 
ATOM      5  C   UNL     1      33.875 -10.452 -22.844  0.00  0.00    +0.134 C 
ATOM      6  C   UNL     1      32.809  -8.113 -21.928  0.00  0.00    +0.038 C 
ATOM      7  C   UNL     1      32.727 -10.513 -22.069  0.00  0.00    +0.035 C 
ATOM      8  C   UNL     1      32.190  -9.316 -21.607  0.00  0.00    +0.006 C 
ATOM      9  C   UNL     1      33.953  -8.160 -22.709  0.00  0.00    +0.102 C 
ATOM     10  H   UNL     1      35.224 -11.594 -23.850  0.00  0.00    +0.156 HD
ENDROOT
BRANCH   6  13
ATOM     11  N   UNL     1      32.406  -6.609 -20.144  0.00  0.00    -0.241 NA
ATOM     12  N   UNL     1      31.174  -4.783 -21.879  0.00  0.00    -0.239 NA
ATOM     13  C   UNL     1      32.276  -6.854 -21.463  0.00  0.00    +0.102 C 
ATOM     14  C   UNL     1      31.671  -5.957 -22.315  0.00  0.00    +0.118 C 
ATOM     15  C   UNL     1      31.909  -5.435 -19.708  0.00  0.00    +0.119 C 
ATOM     16  C   UNL     1      31.303  -4.538 -20.559  0.00  0.00    +0.120 C 
ENDBRANCH   6  13
BRANCH   4  17
ATOM     17  C   UNL     1      34.810 -13.992 -23.761  0.00  0.00    +0.113 C 
BRANCH  17  19
ATOM     18  N   UNL     1      35.377 -16.302 -20.814  0.00  0.00    -0.244 NA
ATOM     19  C   UNL     1      34.982 -15.256 -22.957  0.00  0.00    +0.006 C 
ATOM     20  C   UNL     1      35.077 -17.654 -22.796  0.00  0.00    -0.004 C 
ATOM     21  C   UNL     1      35.304 -17.499 -21.439  0.00  0.00    +0.077 C 
ATOM     22  C   UNL     1      34.913 -16.505 -23.563  0.00  0.00    -0.005 C 
ATOM     23  C   UNL     1      35.214 -15.209 -21.592  0.00  0.00    +0.095 C 
ATOM     24  C   UNL     1      35.004 -18.992 -23.448  0.00  0.00    +0.033 C 
BRANCH  21  26
ATOM     25  N   UNL     1      35.841 -20.827 -18.864  0.00  0.00    -0.248 NA
ATOM     26  C   UNL     1      35.487 -18.634 -20.561  0.00  0.00    +0.020 C 
ATOM     27  C   UNL     1      34.384 -19.346 -20.102  0.00  0.00    +0.016 C 
ATOM     28  C   UNL     1      36.766 -19.017 -20.173  0.00  0.00    +0.022 C 
ATOM     29  C   UNL     1      34.613 -20.426 -19.263  0.00  0.00    +0.059 C 
ATOM     30  C   UNL     1      36.888 -20.110 -19.331  0.00  0.00    +0.098 C 
ATOM     31  C   UNL     1      33.454 -21.213 -18.751  0.00  0.00    +0.052 C 
ENDBRANCH  21  26
ENDBRANCH  17  19
ENDBRANCH   4  17
TORSDOF 4
ENDMDL
MODEL 4
REMARK VINA RESULT:     -11.7      1.469     11.062
REMARK  Name = 46926973
REMARK  4 active torsions:
REMARK  status: ('A' for Active; 'I' for Inactive)
REMARK    1  A    between atoms: C_4  and  C_17
REMARK    2  A    between atoms: C_6  and  C_13
REMARK    3  A    between atoms: C_17  and  C_19
REMARK    4  A    between atoms: C_21  and  C_26
REMARK                            x       y       z     vdW  Elec       q    Type
REMARK                         _______ _______ _______ _____ _____    ______ ____
ROOT
ATOM      1  O   UNL     1      35.696 -16.854 -19.901  0.00  0.00    -0.274 OA
ATOM      2  N   UNL     1      35.188 -16.766 -22.196  0.00  0.00    -0.269 N 
ATOM      3  N   UNL     1      34.487 -15.032 -23.644  0.00  0.00    -0.229 NA
ATOM      4  C   UNL     1      35.582 -17.385 -21.001  0.00  0.00    +0.232 C 
ATOM      5  C   UNL     1      34.841 -15.425 -22.399  0.00  0.00    +0.134 C 
ATOM      6  C   UNL     1      34.173 -12.804 -22.759  0.00  0.00    +0.038 C 
ATOM      7  C   UNL     1      34.884 -14.580 -21.301  0.00  0.00    +0.035 C 
ATOM      8  C   UNL     1      34.541 -13.247 -21.493  0.00  0.00    +0.006 C 
ATOM      9  C   UNL     1      34.162 -13.728 -23.791  0.00  0.00    +0.102 C 
ATOM     10  H   UNL     1      35.152 -17.346 -22.990  0.00  0.00    +0.156 HD
ENDROOT
BRANCH   6  13
ATOM     11  N   UNL     1      32.985 -10.872 -22.080  0.00  0.00    -0.241 NA
ATOM     12  N   UNL     1      33.944  -9.430 -24.285  0.00  0.00    -0.239 NA
ATOM     13  C   UNL     1      33.812 -11.425 -22.989  0.00  0.00    +0.102 C 
ATOM     14  C   UNL     1      34.283 -10.716 -24.072  0.00  0.00    +0.118 C 
ATOM     15  C   UNL     1      32.646  -9.585 -22.293  0.00  0.00    +0.119 C 
ATOM     16  C   UNL     1      33.116  -8.877 -23.376  0.00  0.00    +0.120 C 
ENDBRANCH   6  13
BRANCH   4  17
ATOM     17  C   UNL     1      35.873 -18.861 -21.225  0.00  0.00    +0.113 C 
BRANCH  17  19
ATOM     18  N   UNL     1      36.720 -20.756 -18.059  0.00  0.00    -0.244 NA
ATOM     19  C   UNL     1      35.709 -19.699 -19.983  0.00  0.00    +0.006 C 
ATOM     20  C   UNL     1      34.342 -20.956 -18.454  0.00  0.00    -0.004 C 
ATOM     21  C   UNL     1      35.491 -21.210 -17.723  0.00  0.00    +0.077 C 
ATOM     22  C   UNL     1      34.463 -20.184 -19.605  0.00  0.00    -0.005 C 
ATOM     23  C   UNL     1      36.797 -20.011 -19.183  0.00  0.00    +0.095 C 
ATOM     24  C   UNL     1      33.005 -21.476 -18.052  0.00  0.00    +0.033 C 
BRANCH  21  26
ATOM     25  N   UNL     1      35.416 -23.535 -14.175  0.00  0.00    -0.248 NA
ATOM     26  C   UNL     1      35.466 -22.003 -16.514  0.00  0.00    +0.020 C 
ATOM     27  C   UNL     1      36.605 -22.105 -15.722  0.00  0.00    +0.016 C 
ATOM     28  C   UNL     1      34.302 -22.665 -16.137  0.00  0.00    +0.022 C 
ATOM     29  C   UNL     1      36.528 -22.877 -14.573  0.00  0.00    +0.059 C 
ATOM     30  C   UNL     1      34.329 -23.412 -14.970  0.00  0.00    +0.098 C 
ATOM     31  C   UNL     1      37.731 -23.010 -13.699  0.00  0.00    +0.052 C 
ENDBRANCH  21  26
ENDBRANCH  17  19
ENDBRANCH   4  17
TORSDOF 4
ENDMDL
MODEL 5
REMARK VINA RESULT:     -11.7      1.847      3.149
REMARK  Name = 46926973
REMARK  4 active torsions:
REMARK  status: ('A' for Active; 'I' for Inactive)
REMARK    1  A    between atoms: C_4  and  C_17
REMARK    2  A    between atoms: C_6  and  C_13
REMARK    3  A    between atoms: C_17  and  C_19
REMARK    4  A    between atoms: C_21  and  C_26
REMARK                            x       y       z     vdW  Elec       q    Type
REMARK                         _______ _______ _______ _____ _____    ______ ____
ROOT
ATOM      1  O   UNL     1      33.612 -19.949 -20.207  0.00  0.00    -0.274 OA
ATOM      2  N   UNL     1      35.305 -20.793 -18.810  0.00  0.00    -0.269 N 
ATOM      3  N   UNL     1      35.288 -22.046 -16.804  0.00  0.00    -0.229 NA
ATOM      4  C   UNL     1      34.794 -20.107 -19.921  0.00  0.00    +0.232 C 
ATOM      5  C   UNL     1      34.592 -21.440 -17.793  0.00  0.00    +0.134 C 
ATOM      6  C   UNL     1      33.171 -22.694 -15.830  0.00  0.00    +0.038 C 
ATOM      7  C   UNL     1      33.209 -21.418 -17.868  0.00  0.00    +0.035 C 
ATOM      8  C   UNL     1      32.492 -22.059 -16.864  0.00  0.00    +0.006 C 
ATOM      9  C   UNL     1      34.556 -22.659 -15.845  0.00  0.00    +0.102 C 
ATOM     10  H   UNL     1      36.286 -20.823 -18.735  0.00  0.00    +0.156 HD
ENDROOT
BRANCH   6  13
ATOM     11  N   UNL     1      31.185 -23.722 -15.053  0.00  0.00    -0.241 NA
ATOM     12  N   UNL     1      32.363 -24.262 -12.566  0.00  0.00    -0.239 NA
ATOM     13  C   UNL     1      32.456 -23.368 -14.773  0.00  0.00    +0.102 C 
ATOM     14  C   UNL     1      33.034 -23.633 -13.551  0.00  0.00    +0.118 C 
ATOM     15  C   UNL     1      30.515 -24.352 -14.068  0.00  0.00    +0.119 C 
ATOM     16  C   UNL     1      31.092 -24.616 -12.846  0.00  0.00    +0.120 C 
ENDBRANCH   6  13
BRANCH   4  17
ATOM     17  C   UNL     1      35.920 -19.554 -20.781  0.00  0.00    +0.113 C 
BRANCH  17  19
ATOM     18  N   UNL     1      35.394 -15.942 -21.790  0.00  0.00    -0.244 NA
ATOM     19  C   UNL     1      35.517 -18.349 -21.591  0.00  0.00    +0.006 C 
ATOM     20  C   UNL     1      34.558 -17.359 -23.562  0.00  0.00    -0.004 C 
ATOM     21  C   UNL     1      34.815 -16.120 -22.999  0.00  0.00    +0.077 C 
ATOM     22  C   UNL     1      34.920 -18.490 -22.838  0.00  0.00    -0.005 C 
ATOM     23  C   UNL     1      35.731 -17.064 -21.116  0.00  0.00    +0.095 C 
ATOM     24  C   UNL     1      33.917 -17.514 -24.899  0.00  0.00    +0.033 C 
BRANCH  21  26
ATOM     25  N   UNL     1      33.816 -12.507 -24.984  0.00  0.00    -0.248 NA
ATOM     26  C   UNL     1      34.474 -14.888 -23.675  0.00  0.00    +0.020 C 
ATOM     27  C   UNL     1      34.386 -13.699 -22.959  0.00  0.00    +0.016 C 
ATOM     28  C   UNL     1      34.234 -14.888 -25.045  0.00  0.00    +0.022 C 
ATOM     29  C   UNL     1      34.056 -12.547 -23.655  0.00  0.00    +0.059 C 
ATOM     30  C   UNL     1      33.911 -13.682 -25.647  0.00  0.00    +0.098 C 
ATOM     31  C   UNL     1      33.952 -11.252 -22.918  0.00  0.00    +0.052 C 
ENDBRANCH  21  26
ENDBRANCH  17  19
ENDBRANCH   4  17
TORSDOF 4
ENDMDL
MODEL 6
REMARK VINA RESULT:     -11.6      3.043      5.802
REMARK  Name = 46926973
REMARK  4 active torsions:
REMARK  status: ('A' for Active; 'I' for Inactive)
REMARK    1  A    between atoms: C_4  and  C_17
REMARK    2  A    between atoms: C_6  and  C_13
REMARK    3  A    between atoms: C_17  and  C_19
REMARK    4  A    between atoms: C_21  and  C_26
REMARK                            x       y       z     vdW  Elec       q    Type
REMARK                         _______ _______ _______ _____ _____    ______ ____
ROOT
ATOM      1  O   UNL     1      34.692 -12.667 -21.493  0.00  0.00    -0.274 OA
ATOM      2  N   UNL     1      34.723 -14.346 -23.139  0.00  0.00    -0.269 N 
ATOM      3  N   UNL     1      35.000 -16.695 -23.065  0.00  0.00    -0.229 NA
ATOM      4  C   UNL     1      34.619 -13.033 -22.662  0.00  0.00    +0.232 C 
ATOM      5  C   UNL     1      34.931 -15.519 -22.401  0.00  0.00    +0.134 C 
ATOM      6  C   UNL     1      35.331 -17.782 -20.931  0.00  0.00    +0.038 C 
ATOM      7  C   UNL     1      35.050 -15.396 -21.026  0.00  0.00    +0.035 C 
ATOM      8  C   UNL     1      35.256 -16.554 -20.285  0.00  0.00    +0.006 C 
ATOM      9  C   UNL     1      35.200 -17.799 -22.311  0.00  0.00    +0.102 C 
ATOM     10  H   UNL     1      34.640 -14.459 -24.113  0.00  0.00    +0.156 HD
ENDROOT
BRANCH   6  13
ATOM     11  N   UNL     1      34.434 -19.692 -19.857  0.00  0.00    -0.241 NA
ATOM     12  N   UNL     1      36.999 -20.576 -19.148  0.00  0.00    -0.239 NA
ATOM     13  C   UNL     1      35.544 -19.002 -20.189  0.00  0.00    +0.102 C 
ATOM     14  C   UNL     1      36.804 -19.437 -19.841  0.00  0.00    +0.118 C 
ATOM     15  C   UNL     1      34.630 -20.831 -19.165  0.00  0.00    +0.119 C 
ATOM     16  C   UNL     1      35.889 -21.266 -18.816  0.00  0.00    +0.120 C 
ENDBRANCH   6  13
BRANCH   4  17
ATOM     17  C   UNL     1      34.392 -12.057 -23.806  0.00  0.00    +0.113 C 
BRANCH  17  19
ATOM     18  N   UNL     1      32.511  -9.169 -22.237  0.00  0.00    -0.244 NA
ATOM     19  C   UNL     1      34.056 -10.662 -23.345  0.00  0.00    +0.006 C 
ATOM     20  C   UNL     1      34.588  -8.324 -23.143  0.00  0.00    -0.004 C 
ATOM     21  C   UNL     1      33.381  -8.163 -22.482  0.00  0.00    +0.077 C 
ATOM     22  C   UNL     1      34.924  -9.602 -23.579  0.00  0.00    -0.005 C 
ATOM     23  C   UNL     1      32.873 -10.395 -22.675  0.00  0.00    +0.095 C 
ATOM     24  C   UNL     1      35.519  -7.189 -23.396  0.00  0.00    +0.033 C 
BRANCH  21  26
ATOM     25  N   UNL     1      32.101  -4.382 -21.047  0.00  0.00    -0.248 NA
ATOM     26  C   UNL     1      32.944  -6.874 -21.993  0.00  0.00    +0.020 C 
ATOM     27  C   UNL     1      32.967  -6.601 -20.629  0.00  0.00    +0.016 C 
ATOM     28  C   UNL     1      32.501  -5.903 -22.884  0.00  0.00    +0.022 C 
ATOM     29  C   UNL     1      32.538  -5.350 -20.212  0.00  0.00    +0.059 C 
ATOM     30  C   UNL     1      32.093  -4.685 -22.365  0.00  0.00    +0.098 C 
ATOM     31  C   UNL     1      32.548  -5.022 -18.756  0.00  0.00    +0.052 C 
ENDBRANCH  21  26
ENDBRANCH  17  19
ENDBRANCH   4  17
TORSDOF 4
ENDMDL
MODEL 7
REMARK VINA RESULT:     -11.6      1.661     10.925
REMARK  Name = 46926973
REMARK  4 active torsions:
REMARK  status: ('A' for Active; 'I' for Inactive)
REMARK    1  A    between atoms: C_4  and  C_17
REMARK    2  A    between atoms: C_6  and  C_13
REMARK    3  A    between atoms: C_17  and  C_19
REMARK    4  A    between atoms: C_21  and  C_26
REMARK                            x       y       z     vdW  Elec       q    Type
REMARK                         _______ _______ _______ _____ _____    ______ ____
ROOT
ATOM      1  O   UNL     1      35.689 -16.885 -19.904  0.00  0.00    -0.274 OA
ATOM      2  N   UNL     1      35.186 -16.836 -22.201  0.00  0.00    -0.269 N 
ATOM      3  N   UNL     1      34.514 -15.120 -23.685  0.00  0.00    -0.229 NA
ATOM      4  C   UNL     1      35.569 -17.436 -20.994  0.00  0.00    +0.232 C 
ATOM      5  C   UNL     1      34.860 -15.493 -22.432  0.00  0.00    +0.134 C 
ATOM      6  C   UNL     1      34.234 -12.870 -22.846  0.00  0.00    +0.038 C 
ATOM      7  C   UNL     1      34.915 -14.628 -21.352  0.00  0.00    +0.035 C 
ATOM      8  C   UNL     1      34.593 -13.293 -21.571  0.00  0.00    +0.006 C 
ATOM      9  C   UNL     1      34.209 -13.815 -23.860  0.00  0.00    +0.102 C 
ATOM     10  H   UNL     1      35.141 -17.431 -22.984  0.00  0.00    +0.156 HD
ENDROOT
BRANCH   6  13
ATOM     11  N   UNL     1      33.099 -10.898 -22.193  0.00  0.00    -0.241 NA
ATOM     12  N   UNL     1      34.037  -9.533 -24.456  0.00  0.00    -0.239 NA
ATOM     13  C   UNL     1      33.895 -11.491 -23.105  0.00  0.00    +0.102 C 
ATOM     14  C   UNL     1      34.356 -10.820 -24.217  0.00  0.00    +0.118 C 
ATOM     15  C   UNL     1      32.781  -9.610 -22.432  0.00  0.00    +0.119 C 
ATOM     16  C   UNL     1      33.241  -8.940 -23.544  0.00  0.00    +0.120 C 
ENDBRANCH   6  13
BRANCH   4  17
ATOM     17  C   UNL     1      35.836 -18.921 -21.188  0.00  0.00    +0.113 C 
BRANCH  17  19
ATOM     18  N   UNL     1      33.666 -20.882 -18.783  0.00  0.00    -0.244 NA
ATOM     19  C   UNL     1      35.425 -19.762 -20.007  0.00  0.00    +0.006 C 
ATOM     20  C   UNL     1      35.950 -20.967 -17.993  0.00  0.00    -0.004 C 
ATOM     21  C   UNL     1      34.604 -21.282 -17.896  0.00  0.00    +0.077 C 
ATOM     22  C   UNL     1      36.359 -20.192 -19.073  0.00  0.00    -0.005 C 
ATOM     23  C   UNL     1      34.102 -20.131 -19.819  0.00  0.00    +0.095 C 
ATOM     24  C   UNL     1      36.954 -21.426 -16.992  0.00  0.00    +0.033 C 
BRANCH  21  26
ATOM     25  N   UNL     1      33.079 -23.627 -14.707  0.00  0.00    -0.248 NA
ATOM     26  C   UNL     1      34.084 -22.081 -16.808  0.00  0.00    +0.020 C 
ATOM     27  C   UNL     1      32.711 -22.219 -16.638  0.00  0.00    +0.016 C 
ATOM     28  C   UNL     1      34.956 -22.716 -15.930  0.00  0.00    +0.022 C 
ATOM     29  C   UNL     1      32.264 -22.996 -15.580  0.00  0.00    +0.059 C 
ATOM     30  C   UNL     1      34.408 -23.470 -14.905  0.00  0.00    +0.098 C 
ATOM     31  C   UNL     1      30.796 -23.165 -15.366  0.00  0.00    +0.052 C 
ENDBRANCH  21  26
ENDBRANCH  17  19
ENDBRANCH   4  17
TORSDOF 4
ENDMDL
MODEL 8
REMARK VINA RESULT:     -11.4      1.620      2.330
REMARK  Name = 46926973
REMARK  4 active torsions:
REMARK  status: ('A' for Active; 'I' for Inactive)
REMARK    1  A    between atoms: C_4  and  C_17
REMARK    2  A    between atoms: C_6  and  C_13
REMARK    3  A    between atoms: C_17  and  C_19
REMARK    4  A    between atoms: C_21  and  C_26
REMARK                            x       y       z     vdW  Elec       q    Type
REMARK                         _______ _______ _______ _____ _____    ______ ____
ROOT
ATOM      1  O   UNL     1      34.779 -20.441 -19.851  0.00  0.00    -0.274 OA
ATOM      2  N   UNL     1      36.836 -20.236 -18.730  0.00  0.00    -0.269 N 
ATOM      3  N   UNL     1      37.611 -20.932 -16.607  0.00  0.00    -0.229 NA
ATOM      4  C   UNL     1      35.944 -20.061 -19.797  0.00  0.00    +0.232 C 
ATOM      5  C   UNL     1      36.603 -20.874 -17.506  0.00  0.00    +0.134 C 
ATOM      6  C   UNL     1      36.113 -22.128 -15.132  0.00  0.00    +0.038 C 
ATOM      7  C   UNL     1      35.343 -21.410 -17.294  0.00  0.00    +0.035 C 
ATOM      8  C   UNL     1      35.101 -22.046 -16.082  0.00  0.00    +0.006 C 
ATOM      9  C   UNL     1      37.339 -21.559 -15.440  0.00  0.00    +0.102 C 
ATOM     10  H   UNL     1      37.739 -19.865 -18.858  0.00  0.00    +0.156 HD
ENDROOT
BRANCH   6  13
ATOM     11  N   UNL     1      36.980 -22.929 -13.080  0.00  0.00    -0.241 NA
ATOM     12  N   UNL     1      34.448 -23.840 -12.293  0.00  0.00    -0.239 NA
ATOM     13  C   UNL     1      35.893 -22.782 -13.864  0.00  0.00    +0.102 C 
ATOM     14  C   UNL     1      34.649 -23.229 -13.477  0.00  0.00    +0.118 C 
ATOM     15  C   UNL     1      36.778 -23.538 -11.895  0.00  0.00    +0.119 C 
ATOM     16  C   UNL     1      35.534 -23.987 -11.509  0.00  0.00    +0.120 C 
ENDBRANCH   6  13
BRANCH   4  17
ATOM     17  C   UNL     1      36.608 -19.312 -20.942  0.00  0.00    +0.113 C 
BRANCH  17  19
ATOM     18  N   UNL     1      35.169 -15.869 -20.298  0.00  0.00    -0.244 NA
ATOM     19  C   UNL     1      36.012 -17.951 -21.193  0.00  0.00    +0.006 C 
ATOM     20  C   UNL     1      35.203 -16.248 -22.686  0.00  0.00    -0.004 C 
ATOM     21  C   UNL     1      34.932 -15.474 -21.569  0.00  0.00    +0.077 C 
ATOM     22  C   UNL     1      35.754 -17.509 -22.485  0.00  0.00    -0.005 C 
ATOM     23  C   UNL     1      35.705 -17.100 -20.143  0.00  0.00    +0.095 C 
ATOM     24  C   UNL     1      34.925 -15.777 -24.073  0.00  0.00    +0.033 C 
BRANCH  21  26
ATOM     25  N   UNL     1      33.250 -11.593 -21.888  0.00  0.00    -0.248 NA
ATOM     26  C   UNL     1      34.358 -14.151 -21.678  0.00  0.00    +0.020 C 
ATOM     27  C   UNL     1      33.425 -13.716 -20.743  0.00  0.00    +0.016 C 
ATOM     28  C   UNL     1      34.738 -13.309 -22.717  0.00  0.00    +0.022 C 
ATOM     29  C   UNL     1      32.906 -12.439 -20.892  0.00  0.00    +0.059 C 
ATOM     30  C   UNL     1      34.160 -12.052 -22.777  0.00  0.00    +0.098 C 
ATOM     31  C   UNL     1      31.902 -11.939 -19.907  0.00  0.00    +0.052 C 
ENDBRANCH  21  26
ENDBRANCH  17  19
ENDBRANCH   4  17
TORSDOF 4
ENDMDL
MODEL 9
REMARK VINA RESULT:     -11.3      3.002     11.647
REMARK  Name = 46926973
REMARK  4 active torsions:
REMARK  status: ('A' for Active; 'I' for Inactive)
REMARK    1  A    between atoms: C_4  and  C_17
REMARK    2  A    between atoms: C_6  and  C_13
REMARK    3  A    between atoms: C_17  and  C_19
REMARK    4  A    between atoms: C_21  and  C_26
REMARK                            x       y       z     vdW  Elec       q    Type
REMARK                         _______ _______ _______ _____ _____    ______ ____
ROOT
ATOM      1  O   UNL     1      32.710 -12.910 -22.964  0.00  0.00    -0.274 OA
ATOM      2  N   UNL     1      34.470 -11.497 -23.626  0.00  0.00    -0.269 N 
ATOM      3  N   UNL     1      34.857  -9.172 -23.423  0.00  0.00    -0.229 NA
ATOM      4  C   UNL     1      33.801 -12.721 -23.493  0.00  0.00    +0.232 C 
ATOM      5  C   UNL     1      34.051 -10.233 -23.192  0.00  0.00    +0.134 C 
ATOM      6  C   UNL     1      33.205  -7.787 -22.329  0.00  0.00    +0.038 C 
ATOM      7  C   UNL     1      32.828 -10.152 -22.546  0.00  0.00    +0.035 C 
ATOM      8  C   UNL     1      32.403  -8.902 -22.111  0.00  0.00    +0.006 C 
ATOM      9  C   UNL     1      34.411  -7.973 -22.984  0.00  0.00    +0.102 C 
ATOM     10  H   UNL     1      35.343 -11.529 -24.080  0.00  0.00    +0.156 HD
ENDROOT
BRANCH   6  13
ATOM     11  N   UNL     1      32.458  -5.605 -22.862  0.00  0.00    -0.241 NA
ATOM     12  N   UNL     1      32.356  -4.907 -20.148  0.00  0.00    -0.239 NA
ATOM     13  C   UNL     1      32.792  -6.475 -21.889  0.00  0.00    +0.102 C 
ATOM     14  C   UNL     1      32.741  -6.133 -20.556  0.00  0.00    +0.118 C 
ATOM     15  C   UNL     1      32.071  -4.380 -22.455  0.00  0.00    +0.119 C 
ATOM     16  C   UNL     1      32.022  -4.037 -21.122  0.00  0.00    +0.120 C 
ENDBRANCH   6  13
BRANCH   4  17
ATOM     17  C   UNL     1      34.614 -13.853 -24.104  0.00  0.00    +0.113 C 
BRANCH  17  19
ATOM     18  N   UNL     1      35.224 -17.366 -22.832  0.00  0.00    -0.244 NA
ATOM     19  C   UNL     1      34.850 -15.000 -23.156  0.00  0.00    +0.006 C 
ATOM     20  C   UNL     1      35.130 -15.873 -20.932  0.00  0.00    -0.004 C 
ATOM     21  C   UNL     1      35.278 -17.127 -21.502  0.00  0.00    +0.077 C 
ATOM     22  C   UNL     1      34.912 -14.794 -21.783  0.00  0.00    -0.005 C 
ATOM     23  C   UNL     1      35.010 -16.294 -23.626  0.00  0.00    +0.095 C 
ATOM     24  C   UNL     1      35.195 -15.650 -19.460  0.00  0.00    +0.033 C 
BRANCH  21  26
ATOM     25  N   UNL     1      35.950 -20.591 -19.148  0.00  0.00    -0.248 NA
ATOM     26  C   UNL     1      35.507 -18.308 -20.700  0.00  0.00    +0.020 C 
ATOM     27  C   UNL     1      34.435 -19.100 -20.302  0.00  0.00    +0.016 C 
ATOM     28  C   UNL     1      36.800 -18.656 -20.323  0.00  0.00    +0.022 C 
ATOM     29  C   UNL     1      34.709 -20.221 -19.533  0.00  0.00    +0.059 C 
ATOM     30  C   UNL     1      36.966 -19.796 -19.554  0.00  0.00    +0.098 C 
ATOM     31  C   UNL     1      33.583 -21.095 -19.088  0.00  0.00    +0.052 C 
ENDBRANCH  21  26
ENDBRANCH  17  19
ENDBRANCH   4  17
TORSDOF 4
ENDMDL
