MODEL 1
REMARK VINA RESULT:     -12.6      0.000      0.000
REMARK  Name = 24875320
REMARK  6 active torsions:
REMARK  status: ('A' for Active; 'I' for Inactive)
REMARK    1  A    between atoms: C_1  and  N_22
REMARK    2  A    between atoms: C_3  and  C_10
REMARK    3  A    between atoms: N_9  and  C_12
REMARK    4  A    between atoms: C_14  and  C_21
REMARK    5  A    between atoms: N_22  and  C_25
REMARK    6  A    between atoms: C_28  and  C_32
REMARK                            x       y       z     vdW  Elec       q    Type
REMARK                         _______ _______ _______ _____ _____    ______ ____
ROOT
ATOM      1  C   UNL     1      31.893 -22.342 -16.096  0.00  0.00    +0.044 C 
ATOM      2  C   UNL     1      30.583 -22.474 -15.638  0.00  0.00    -0.008 C 
ATOM      3  C   UNL     1      32.717 -23.154 -13.974  0.00  0.00    +0.055 C 
ATOM      4  C   UNL     1      32.960 -22.682 -15.264  0.00  0.00    +0.019 C 
ATOM      5  C   UNL     1      30.338 -22.946 -14.348  0.00  0.00    -0.003 C 
ATOM      6  C   UNL     1      31.405 -23.285 -13.516  0.00  0.00    +0.004 C 
ATOM      7  C   UNL     1      29.421 -22.118 -16.507  0.00  0.00    +0.032 C 
ENDROOT
BRANCH   3  10
ATOM      8  O   UNL     1      33.610 -24.188 -12.092  0.00  0.00    -0.270 OA
ATOM      9  N   UNL     1      35.084 -23.017 -13.492  0.00  0.00    -0.280 N 
ATOM     10  C   UNL     1      33.829 -23.507 -13.107  0.00  0.00    +0.250 C 
ATOM     11  H   UNL     1      35.102 -22.491 -14.325  0.00  0.00    +0.155 HD
BRANCH   9  12
ATOM     12  C   UNL     1      36.331 -23.177 -12.839  0.00  0.00    +0.050 C 
ATOM     13  C   UNL     1      37.375 -23.845 -13.480  0.00  0.00    +0.019 C 
ATOM     14  C   UNL     1      38.602 -24.003 -12.837  0.00  0.00    +0.073 C 
ATOM     15  C   UNL     1      36.516 -22.666 -11.554  0.00  0.00    +0.015 C 
ATOM     16  C   UNL     1      38.786 -23.492 -11.551  0.00  0.00    +0.004 C 
ATOM     17  C   UNL     1      37.744 -22.823 -10.911  0.00  0.00    +0.001 C 
BRANCH  14  21
ATOM     18  F   UNL     1      39.668 -26.075 -13.379  0.00  0.00    -0.166 F 
ATOM     19  F   UNL     1      39.758 -24.502 -14.870  0.00  0.00    -0.166 F 
ATOM     20  F   UNL     1      40.945 -24.345 -13.054  0.00  0.00    -0.166 F 
ATOM     21  C   UNL     1      39.717 -24.718 -13.521  0.00  0.00    +0.419 C 
ENDBRANCH  14  21
ENDBRANCH   9  12
ENDBRANCH   3  10
BRANCH   1  22
ATOM     22  N   UNL     1      32.159 -21.866 -17.399  0.00  0.00    -0.312 N 
ATOM     23  H   UNL     1      31.360 -21.817 -17.973  0.00  0.00    +0.152 HD
BRANCH  22  25
ATOM     24  N   UNL     1      35.731 -21.685 -18.317  0.00  0.00    -0.241 NA
ATOM     25  C   UNL     1      33.342 -21.449 -18.038  0.00  0.00    +0.068 C 
ATOM     26  C   UNL     1      33.323 -20.434 -18.988  0.00  0.00    +0.022 C 
ATOM     27  C   UNL     1      34.560 -22.038 -17.741  0.00  0.00    +0.113 C 
ATOM     28  C   UNL     1      34.507 -20.045 -19.604  0.00  0.00    +0.073 C 
ATOM     29  C   UNL     1      35.674 -20.695 -19.236  0.00  0.00    +0.103 C 
BRANCH  28  32
ATOM     30  O   UNL     1      33.880 -19.085 -21.661  0.00  0.00    -0.270 OA
ATOM     31  N   UNL     1      35.266 -17.844 -20.322  0.00  0.00    -0.325 N 
ATOM     32  C   UNL     1      34.522 -18.988 -20.599  0.00  0.00    +0.244 C 
ATOM     33  H   UNL     1      35.299 -17.107 -20.974  0.00  0.00    +0.145 HD
ATOM     34  H   UNL     1      35.760 -17.771 -19.473  0.00  0.00    +0.145 HD
ENDBRANCH  28  32
ENDBRANCH  22  25
ENDBRANCH   1  22
TORSDOF 6
ENDMDL
MODEL 2
REMARK VINA RESULT:     -12.6      4.702      8.666
REMARK  Name = 24875320
REMARK  6 active torsions:
REMARK  status: ('A' for Active; 'I' for Inactive)
REMARK    1  A    between atoms: C_1  and  N_22
REMARK    2  A    between atoms: C_3  and  C_10
REMARK    3  A    between atoms: N_9  and  C_12
REMARK    4  A    between atoms: C_14  and  C_21
REMARK    5  A    between atoms: N_22  and  C_25
REMARK    6  A    between atoms: C_28  and  C_32
REMARK                            x       y       z     vdW  Elec       q    Type
REMARK                         _______ _______ _______ _____ _____    ______ ____
ROOT
ATOM      1  C   UNL     1      34.684 -22.402 -14.953  0.00  0.00    +0.044 C 
ATOM      2  C   UNL     1      33.341 -22.761 -14.836  0.00  0.00    -0.008 C 
ATOM      3  C   UNL     1      34.359 -21.958 -17.307  0.00  0.00    +0.055 C 
ATOM      4  C   UNL     1      35.193 -22.001 -16.189  0.00  0.00    +0.019 C 
ATOM      5  C   UNL     1      32.508 -22.719 -15.954  0.00  0.00    -0.003 C 
ATOM      6  C   UNL     1      33.017 -22.318 -17.189  0.00  0.00    +0.004 C 
ATOM      7  C   UNL     1      32.769 -23.194 -13.526  0.00  0.00    +0.032 C 
ENDROOT
BRANCH   3  10
ATOM      8  O   UNL     1      35.115 -22.400 -19.462  0.00  0.00    -0.270 OA
ATOM      9  N   UNL     1      35.130 -20.167 -18.741  0.00  0.00    -0.280 N 
ATOM     10  C   UNL     1      34.890 -21.540 -18.594  0.00  0.00    +0.250 C 
ATOM     11  H   UNL     1      34.901 -19.607 -17.964  0.00  0.00    +0.155 HD
BRANCH   9  12
ATOM     12  C   UNL     1      35.660 -19.479 -19.860  0.00  0.00    +0.050 C 
ATOM     13  C   UNL     1      34.877 -19.291 -20.999  0.00  0.00    +0.019 C 
ATOM     14  C   UNL     1      35.399 -18.614 -22.101  0.00  0.00    +0.073 C 
ATOM     15  C   UNL     1      36.966 -18.990 -19.823  0.00  0.00    +0.015 C 
ATOM     16  C   UNL     1      36.706 -18.125 -22.064  0.00  0.00    +0.004 C 
ATOM     17  C   UNL     1      37.488 -18.313 -20.925  0.00  0.00    +0.001 C 
BRANCH  14  21
ATOM     18  F   UNL     1      33.241 -18.695 -23.129  0.00  0.00    -0.166 F 
ATOM     19  F   UNL     1      34.589 -17.131 -23.793  0.00  0.00    -0.166 F 
ATOM     20  F   UNL     1      34.959 -19.197 -24.363  0.00  0.00    -0.166 F 
ATOM     21  C   UNL     1      34.563 -18.412 -23.318  0.00  0.00    +0.419 C 
ENDBRANCH  14  21
ENDBRANCH   9  12
ENDBRANCH   3  10
BRANCH   1  22
ATOM     22  N   UNL     1      35.542 -22.438 -13.832  0.00  0.00    -0.312 N 
ATOM     23  H   UNL     1      35.556 -21.599 -13.317  0.00  0.00    +0.152 HD
BRANCH  22  25
ATOM     24  N   UNL     1      36.843 -25.033 -11.550  0.00  0.00    -0.241 NA
ATOM     25  C   UNL     1      36.381 -23.439 -13.307  0.00  0.00    +0.068 C 
ATOM     26  C   UNL     1      37.536 -23.829 -13.976  0.00  0.00    +0.022 C 
ATOM     27  C   UNL     1      36.082 -24.066 -12.109  0.00  0.00    +0.113 C 
ATOM     28  C   UNL     1      38.345 -24.821 -13.433  0.00  0.00    +0.073 C 
ATOM     29  C   UNL     1      37.958 -25.387 -12.229  0.00  0.00    +0.103 C 
BRANCH  28  32
ATOM     30  O   UNL     1      40.031 -26.388 -13.931  0.00  0.00    -0.270 OA
ATOM     31  N   UNL     1      40.171 -24.352 -14.976  0.00  0.00    -0.325 N 
ATOM     32  C   UNL     1      39.557 -25.251 -14.106  0.00  0.00    +0.244 C 
ATOM     33  H   UNL     1      40.995 -24.609 -15.450  0.00  0.00    +0.145 HD
ATOM     34  H   UNL     1      39.780 -23.459 -15.118  0.00  0.00    +0.145 HD
ENDBRANCH  28  32
ENDBRANCH  22  25
ENDBRANCH   1  22
TORSDOF 6
ENDMDL
MODEL 3
REMARK VINA RESULT:     -12.4      4.855      9.618
REMARK  Name = 24875320
REMARK  6 active torsions:
REMARK  status: ('A' for Active; 'I' for Inactive)
REMARK    1  A    between atoms: C_1  and  N_22
REMARK    2  A    between atoms: C_3  and  C_10
REMARK    3  A    between atoms: N_9  and  C_12
REMARK    4  A    between atoms: C_14  and  C_21
REMARK    5  A    between atoms: N_22  and  C_25
REMARK    6  A    between atoms: C_28  and  C_32
REMARK                            x       y       z     vdW  Elec       q    Type
REMARK                         _______ _______ _______ _____ _____    ______ ____
ROOT
ATOM      1  C   UNL     1      36.154 -22.012 -15.971  0.00  0.00    +0.044 C 
ATOM      2  C   UNL     1      34.887 -22.586 -15.866  0.00  0.00    -0.008 C 
ATOM      3  C   UNL     1      35.555 -21.086 -18.121  0.00  0.00    +0.055 C 
ATOM      4  C   UNL     1      36.488 -21.263 -17.099  0.00  0.00    +0.019 C 
ATOM      5  C   UNL     1      33.954 -22.410 -16.887  0.00  0.00    -0.003 C 
ATOM      6  C   UNL     1      34.289 -21.661 -18.016  0.00  0.00    +0.004 C 
ATOM      7  C   UNL     1      34.502 -23.393 -14.668  0.00  0.00    +0.032 C 
ENDROOT
BRANCH   3  10
ATOM      8  O   UNL     1      36.973 -20.542 -19.883  0.00  0.00    -0.270 OA
ATOM      9  N   UNL     1      34.988 -19.311 -19.665  0.00  0.00    -0.280 N 
ATOM     10  C   UNL     1      35.904 -20.306 -19.297  0.00  0.00    +0.250 C 
ATOM     11  H   UNL     1      34.182 -19.242 -19.103  0.00  0.00    +0.155 HD
BRANCH   9  12
ATOM     12  C   UNL     1      35.070 -18.390 -20.738  0.00  0.00    +0.050 C 
ATOM     13  C   UNL     1      34.657 -18.768 -22.016  0.00  0.00    +0.019 C 
ATOM     14  C   UNL     1      34.738 -17.862 -23.073  0.00  0.00    +0.073 C 
ATOM     15  C   UNL     1      35.563 -17.104 -20.518  0.00  0.00    +0.015 C 
ATOM     16  C   UNL     1      35.232 -16.575 -22.852  0.00  0.00    +0.004 C 
ATOM     17  C   UNL     1      35.644 -16.197 -21.574  0.00  0.00    +0.001 C 
BRANCH  14  21
ATOM     18  F   UNL     1      32.946 -18.418 -24.556  0.00  0.00    -0.166 F 
ATOM     19  F   UNL     1      34.641 -17.370 -25.411  0.00  0.00    -0.166 F 
ATOM     20  F   UNL     1      34.836 -19.457 -24.832  0.00  0.00    -0.166 F 
ATOM     21  C   UNL     1      34.298 -18.266 -24.438  0.00  0.00    +0.419 C 
ENDBRANCH  14  21
ENDBRANCH   9  12
ENDBRANCH   3  10
BRANCH   1  22
ATOM     22  N   UNL     1      37.110 -22.179 -14.945  0.00  0.00    -0.312 N 
ATOM     23  H   UNL     1      37.798 -21.475 -14.926  0.00  0.00    +0.152 HD
BRANCH  22  25
ATOM     24  N   UNL     1      38.164 -25.303 -13.282  0.00  0.00    -0.241 NA
ATOM     25  C   UNL     1      37.273 -23.156 -13.945  0.00  0.00    +0.068 C 
ATOM     26  C   UNL     1      36.740 -22.976 -12.674  0.00  0.00    +0.022 C 
ATOM     27  C   UNL     1      37.971 -24.326 -14.196  0.00  0.00    +0.113 C 
ATOM     28  C   UNL     1      36.918 -23.958 -11.705  0.00  0.00    +0.073 C 
ATOM     29  C   UNL     1      37.631 -25.093 -12.057  0.00  0.00    +0.103 C 
BRANCH  28  32
ATOM     30  O   UNL     1      35.536 -24.599  -9.909  0.00  0.00    -0.270 OA
ATOM     31  N   UNL     1      36.831 -22.731  -9.603  0.00  0.00    -0.325 N 
ATOM     32  C   UNL     1      36.373 -23.800 -10.369  0.00  0.00    +0.244 C 
ATOM     33  H   UNL     1      36.484 -22.593  -8.692  0.00  0.00    +0.145 HD
ATOM     34  H   UNL     1      37.503 -22.113  -9.971  0.00  0.00    +0.145 HD
ENDBRANCH  28  32
ENDBRANCH  22  25
ENDBRANCH   1  22
TORSDOF 6
ENDMDL
MODEL 4
REMARK VINA RESULT:     -12.2      8.808     13.698
REMARK  Name = 24875320
REMARK  6 active torsions:
REMARK  status: ('A' for Active; 'I' for Inactive)
REMARK    1  A    between atoms: C_1  and  N_22
REMARK    2  A    between atoms: C_3  and  C_10
REMARK    3  A    between atoms: N_9  and  C_12
REMARK    4  A    between atoms: C_14  and  C_21
REMARK    5  A    between atoms: N_22  and  C_25
REMARK    6  A    between atoms: C_28  and  C_32
REMARK                            x       y       z     vdW  Elec       q    Type
REMARK                         _______ _______ _______ _____ _____    ______ ____
ROOT
ATOM      1  C   UNL     1      35.261 -16.413 -23.132  0.00  0.00    +0.044 C 
ATOM      2  C   UNL     1      34.413 -16.756 -24.185  0.00  0.00    -0.008 C 
ATOM      3  C   UNL     1      34.464 -14.134 -23.232  0.00  0.00    +0.055 C 
ATOM      4  C   UNL     1      35.287 -15.102 -22.656  0.00  0.00    +0.019 C 
ATOM      5  C   UNL     1      33.590 -15.789 -24.761  0.00  0.00    -0.003 C 
ATOM      6  C   UNL     1      33.616 -14.477 -24.285  0.00  0.00    +0.004 C 
ATOM      7  C   UNL     1      34.363 -18.153 -24.714  0.00  0.00    +0.032 C 
ENDROOT
BRANCH   3  10
ATOM      8  O   UNL     1      34.648 -12.570 -21.521  0.00  0.00    -0.270 OA
ATOM      9  N   UNL     1      34.314 -11.764 -23.699  0.00  0.00    -0.280 N 
ATOM     10  C   UNL     1      34.492 -12.768 -22.737  0.00  0.00    +0.250 C 
ATOM     11  H   UNL     1      34.203 -12.075 -24.627  0.00  0.00    +0.155 HD
BRANCH   9  12
ATOM     12  C   UNL     1      34.272 -10.360 -23.512  0.00  0.00    +0.050 C 
ATOM     13  C   UNL     1      33.203  -9.779 -22.828  0.00  0.00    +0.019 C 
ATOM     14  C   UNL     1      33.162  -8.397 -22.644  0.00  0.00    +0.073 C 
ATOM     15  C   UNL     1      35.298  -9.559 -24.011  0.00  0.00    +0.015 C 
ATOM     16  C   UNL     1      34.189  -7.596 -23.144  0.00  0.00    +0.004 C 
ATOM     17  C   UNL     1      35.257  -8.177 -23.827  0.00  0.00    +0.001 C 
BRANCH  14  21
ATOM     18  F   UNL     1      31.653  -8.456 -20.789  0.00  0.00    -0.166 F 
ATOM     19  F   UNL     1      32.271  -6.500 -21.493  0.00  0.00    -0.166 F 
ATOM     20  F   UNL     1      30.891  -7.693 -22.678  0.00  0.00    -0.166 F 
ATOM     21  C   UNL     1      32.020  -7.775 -21.914  0.00  0.00    +0.419 C 
ENDBRANCH  14  21
ENDBRANCH   9  12
ENDBRANCH   3  10
BRANCH   1  22
ATOM     22  N   UNL     1      36.101 -17.380 -22.536  0.00  0.00    -0.312 N 
ATOM     23  H   UNL     1      36.975 -17.473 -22.980  0.00  0.00    +0.152 HD
BRANCH  22  25
ATOM     24  N   UNL     1      36.888 -19.318 -19.493  0.00  0.00    -0.241 NA
ATOM     25  C   UNL     1      35.932 -18.237 -21.432  0.00  0.00    +0.068 C 
ATOM     26  C   UNL     1      34.706 -18.840 -21.174  0.00  0.00    +0.022 C 
ATOM     27  C   UNL     1      36.982 -18.506 -20.570  0.00  0.00    +0.113 C 
ATOM     28  C   UNL     1      34.570 -19.681 -20.075  0.00  0.00    +0.073 C 
ATOM     29  C   UNL     1      35.681 -19.886 -19.273  0.00  0.00    +0.103 C 
BRANCH  28  32
ATOM     30  O   UNL     1      32.217 -19.796 -20.077  0.00  0.00    -0.270 OA
ATOM     31  N   UNL     1      33.339 -21.573 -19.159  0.00  0.00    -0.325 N 
ATOM     32  C   UNL     1      33.303 -20.325 -19.777  0.00  0.00    +0.244 C 
ATOM     33  H   UNL     1      32.499 -22.040 -18.943  0.00  0.00    +0.145 HD
ATOM     34  H   UNL     1      34.204 -21.989 -18.939  0.00  0.00    +0.145 HD
ENDBRANCH  28  32
ENDBRANCH  22  25
ENDBRANCH   1  22
TORSDOF 6
ENDMDL
MODEL 5
REMARK VINA RESULT:     -12.0      3.880      7.782
REMARK  Name = 24875320
REMARK  6 active torsions:
REMARK  status: ('A' for Active; 'I' for Inactive)
REMARK    1  A    between atoms: C_1  and  N_22
REMARK    2  A    between atoms: C_3  and  C_10
REMARK    3  A    between atoms: N_9  and  C_12
REMARK    4  A    between atoms: C_14  and  C_21
REMARK    5  A    between atoms: N_22  and  C_25
REMARK    6  A    between atoms: C_28  and  C_32
REMARK                            x       y       z     vdW  Elec       q    Type
REMARK                         _______ _______ _______ _____ _____    ______ ____
ROOT
ATOM      1  C   UNL     1      35.636 -23.623 -14.182  0.00  0.00    +0.044 C 
ATOM      2  C   UNL     1      36.905 -23.974 -13.724  0.00  0.00    -0.008 C 
ATOM      3  C   UNL     1      36.633 -22.113 -15.785  0.00  0.00    +0.055 C 
ATOM      4  C   UNL     1      35.500 -22.692 -15.212  0.00  0.00    +0.019 C 
ATOM      5  C   UNL     1      38.039 -23.395 -14.295  0.00  0.00    -0.003 C 
ATOM      6  C   UNL     1      37.903 -22.465 -15.325  0.00  0.00    +0.004 C 
ATOM      7  C   UNL     1      37.081 -24.968 -12.622  0.00  0.00    +0.032 C 
ENDROOT
BRANCH   3  10
ATOM      8  O   UNL     1      37.297 -20.201 -16.931  0.00  0.00    -0.270 OA
ATOM      9  N   UNL     1      35.412 -21.348 -17.729  0.00  0.00    -0.280 N 
ATOM     10  C   UNL     1      36.491 -21.143 -16.858  0.00  0.00    +0.250 C 
ATOM     11  H   UNL     1      34.858 -22.141 -17.545  0.00  0.00    +0.155 HD
BRANCH   9  12
ATOM     12  C   UNL     1      35.013 -20.562 -18.839  0.00  0.00    +0.050 C 
ATOM     13  C   UNL     1      35.941 -19.745 -19.485  0.00  0.00    +0.019 C 
ATOM     14  C   UNL     1      35.549 -18.972 -20.578  0.00  0.00    +0.073 C 
ATOM     15  C   UNL     1      33.693 -20.606 -19.285  0.00  0.00    +0.015 C 
ATOM     16  C   UNL     1      34.227 -19.016 -21.024  0.00  0.00    +0.004 C 
ATOM     17  C   UNL     1      33.300 -19.833 -20.378  0.00  0.00    +0.001 C 
BRANCH  14  21
ATOM     18  F   UNL     1      36.336 -16.765 -21.058  0.00  0.00    -0.166 F 
ATOM     19  F   UNL     1      37.830 -18.328 -20.885  0.00  0.00    -0.166 F 
ATOM     20  F   UNL     1      36.526 -18.261 -22.625  0.00  0.00    -0.166 F 
ATOM     21  C   UNL     1      36.539 -18.099 -21.269  0.00  0.00    +0.419 C 
ENDBRANCH  14  21
ENDBRANCH   9  12
ENDBRANCH   3  10
BRANCH   1  22
ATOM     22  N   UNL     1      34.478 -24.199 -13.616  0.00  0.00    -0.312 N 
ATOM     23  H   UNL     1      34.665 -24.959 -13.019  0.00  0.00    +0.152 HD
BRANCH  22  25
ATOM     24  N   UNL     1      30.885 -23.981 -12.793  0.00  0.00    -0.241 NA
ATOM     25  C   UNL     1      33.108 -23.899 -13.738  0.00  0.00    +0.068 C 
ATOM     26  C   UNL     1      32.614 -23.252 -14.865  0.00  0.00    +0.022 C 
ATOM     27  C   UNL     1      32.211 -24.239 -12.739  0.00  0.00    +0.113 C 
ATOM     28  C   UNL     1      31.255 -22.968 -14.957  0.00  0.00    +0.073 C 
ATOM     29  C   UNL     1      30.440 -23.350 -13.903  0.00  0.00    +0.103 C 
BRANCH  28  32
ATOM     30  O   UNL     1      31.441 -21.712 -16.940  0.00  0.00    -0.270 OA
ATOM     31  N   UNL     1      29.328 -22.334 -16.304  0.00  0.00    -0.325 N 
ATOM     32  C   UNL     1      30.708 -22.294 -16.120  0.00  0.00    +0.244 C 
ATOM     33  H   UNL     1      28.922 -21.887 -17.082  0.00  0.00    +0.145 HD
ATOM     34  H   UNL     1      28.758 -22.809 -15.657  0.00  0.00    +0.145 HD
ENDBRANCH  28  32
ENDBRANCH  22  25
ENDBRANCH   1  22
TORSDOF 6
ENDMDL
MODEL 6
REMARK VINA RESULT:     -12.0      1.150      1.732
REMARK  Name = 24875320
REMARK  6 active torsions:
REMARK  status: ('A' for Active; 'I' for Inactive)
REMARK    1  A    between atoms: C_1  and  N_22
REMARK    2  A    between atoms: C_3  and  C_10
REMARK    3  A    between atoms: N_9  and  C_12
REMARK    4  A    between atoms: C_14  and  C_21
REMARK    5  A    between atoms: N_22  and  C_25
REMARK    6  A    between atoms: C_28  and  C_32
REMARK                            x       y       z     vdW  Elec       q    Type
REMARK                         _______ _______ _______ _____ _____    ______ ____
ROOT
ATOM      1  C   UNL     1      31.893 -22.425 -16.019  0.00  0.00    +0.044 C 
ATOM      2  C   UNL     1      30.641 -22.319 -15.413  0.00  0.00    -0.008 C 
ATOM      3  C   UNL     1      32.869 -23.034 -13.893  0.00  0.00    +0.055 C 
ATOM      4  C   UNL     1      33.006 -22.782 -15.259  0.00  0.00    +0.019 C 
ATOM      5  C   UNL     1      30.502 -22.570 -14.048  0.00  0.00    -0.003 C 
ATOM      6  C   UNL     1      31.616 -22.927 -13.288  0.00  0.00    +0.004 C 
ATOM      7  C   UNL     1      29.430 -21.939 -16.203  0.00  0.00    +0.032 C 
ENDROOT
BRANCH   3  10
ATOM      8  O   UNL     1      33.866 -24.065 -12.063  0.00  0.00    -0.270 OA
ATOM      9  N   UNL     1      35.267 -22.954 -13.581  0.00  0.00    -0.280 N 
ATOM     10  C   UNL     1      34.030 -23.405 -13.101  0.00  0.00    +0.250 C 
ATOM     11  H   UNL     1      35.239 -22.441 -14.421  0.00  0.00    +0.155 HD
BRANCH   9  12
ATOM     12  C   UNL     1      36.553 -23.139 -13.015  0.00  0.00    +0.050 C 
ATOM     13  C   UNL     1      37.504 -23.912 -13.681  0.00  0.00    +0.019 C 
ATOM     14  C   UNL     1      38.770 -24.094 -13.123  0.00  0.00    +0.073 C 
ATOM     15  C   UNL     1      36.868 -22.547 -11.792  0.00  0.00    +0.015 C 
ATOM     16  C   UNL     1      39.084 -23.502 -11.899  0.00  0.00    +0.004 C 
ATOM     17  C   UNL     1      38.133 -22.729 -11.235  0.00  0.00    +0.001 C 
BRANCH  14  21
ATOM     18  F   UNL     1      39.389 -26.208 -14.056  0.00  0.00    -0.166 F 
ATOM     19  F   UNL     1      40.123 -24.434 -15.065  0.00  0.00    -0.166 F 
ATOM     20  F   UNL     1      40.961 -25.015 -13.144  0.00  0.00    -0.166 F 
ATOM     21  C   UNL     1      39.786 -24.921 -13.834  0.00  0.00    +0.419 C 
ENDBRANCH  14  21
ENDBRANCH   9  12
ENDBRANCH   3  10
BRANCH   1  22
ATOM     22  N   UNL     1      32.051 -22.176 -17.400  0.00  0.00    -0.312 N 
ATOM     23  H   UNL     1      31.365 -22.604 -17.961  0.00  0.00    +0.152 HD
BRANCH  22  25
ATOM     24  N   UNL     1      33.459 -19.796 -19.847  0.00  0.00    -0.241 NA
ATOM     25  C   UNL     1      32.998 -21.435 -18.131  0.00  0.00    +0.068 C 
ATOM     26  C   UNL     1      34.360 -21.580 -17.892  0.00  0.00    +0.022 C 
ATOM     27  C   UNL     1      32.603 -20.538 -19.110  0.00  0.00    +0.113 C 
ATOM     28  C   UNL     1      35.273 -20.833 -18.630  0.00  0.00    +0.073 C 
ATOM     29  C   UNL     1      34.776 -19.963 -19.587  0.00  0.00    +0.103 C 
BRANCH  28  32
ATOM     30  O   UNL     1      37.519 -20.860 -19.338  0.00  0.00    -0.270 OA
ATOM     31  N   UNL     1      37.136 -21.186 -17.101  0.00  0.00    -0.325 N 
ATOM     32  C   UNL     1      36.702 -20.961 -18.405  0.00  0.00    +0.244 C 
ATOM     33  H   UNL     1      38.098 -21.278 -16.911  0.00  0.00    +0.145 HD
ATOM     34  H   UNL     1      36.482 -21.251 -16.368  0.00  0.00    +0.145 HD
ENDBRANCH  28  32
ENDBRANCH  22  25
ENDBRANCH   1  22
TORSDOF 6
ENDMDL
MODEL 7
REMARK VINA RESULT:     -11.8      8.612     13.062
REMARK  Name = 24875320
REMARK  6 active torsions:
REMARK  status: ('A' for Active; 'I' for Inactive)
REMARK    1  A    between atoms: C_1  and  N_22
REMARK    2  A    between atoms: C_3  and  C_10
REMARK    3  A    between atoms: N_9  and  C_12
REMARK    4  A    between atoms: C_14  and  C_21
REMARK    5  A    between atoms: N_22  and  C_25
REMARK    6  A    between atoms: C_28  and  C_32
REMARK                            x       y       z     vdW  Elec       q    Type
REMARK                         _______ _______ _______ _____ _____    ______ ____
ROOT
ATOM      1  C   UNL     1      35.208 -16.296 -23.047  0.00  0.00    +0.044 C 
ATOM      2  C   UNL     1      34.539 -16.686 -24.208  0.00  0.00    -0.008 C 
ATOM      3  C   UNL     1      34.110 -14.145 -23.139  0.00  0.00    +0.055 C 
ATOM      4  C   UNL     1      34.993 -15.025 -22.514  0.00  0.00    +0.019 C 
ATOM      5  C   UNL     1      33.656 -15.807 -24.834  0.00  0.00    -0.003 C 
ATOM      6  C   UNL     1      33.442 -14.536 -24.300  0.00  0.00    +0.004 C 
ATOM      7  C   UNL     1      34.749 -18.042 -24.801  0.00  0.00    +0.032 C 
ENDROOT
BRANCH   3  10
ATOM      8  O   UNL     1      34.612 -11.882 -22.952  0.00  0.00    -0.270 OA
ATOM      9  N   UNL     1      32.859 -12.719 -21.637  0.00  0.00    -0.280 N 
ATOM     10  C   UNL     1      33.888 -12.820 -22.584  0.00  0.00    +0.250 C 
ATOM     11  H   UNL     1      32.368 -13.551 -21.447  0.00  0.00    +0.155 HD
BRANCH   9  12
ATOM     12  C   UNL     1      32.432 -11.576 -20.917  0.00  0.00    +0.050 C 
ATOM     13  C   UNL     1      32.403 -10.328 -21.540  0.00  0.00    +0.019 C 
ATOM     14  C   UNL     1      31.984  -9.203 -20.831  0.00  0.00    +0.073 C 
ATOM     15  C   UNL     1      32.041 -11.698 -19.583  0.00  0.00    +0.015 C 
ATOM     16  C   UNL     1      31.593  -9.325 -19.497  0.00  0.00    +0.004 C 
ATOM     17  C   UNL     1      31.622 -10.572 -18.874  0.00  0.00    +0.001 C 
BRANCH  14  21
ATOM     18  F   UNL     1      33.087  -7.582 -22.201  0.00  0.00    -0.166 F 
ATOM     19  F   UNL     1      30.931  -7.730 -22.393  0.00  0.00    -0.166 F 
ATOM     20  F   UNL     1      31.804  -6.843 -20.609  0.00  0.00    -0.166 F 
ATOM     21  C   UNL     1      31.953  -7.869 -21.497  0.00  0.00    +0.419 C 
ENDBRANCH  14  21
ENDBRANCH   9  12
ENDBRANCH   3  10
BRANCH   1  22
ATOM     22  N   UNL     1      36.104 -17.174 -22.400  0.00  0.00    -0.312 N 
ATOM     23  H   UNL     1      37.031 -17.104 -22.725  0.00  0.00    +0.152 HD
BRANCH  22  25
ATOM     24  N   UNL     1      36.899 -19.433 -19.589  0.00  0.00    -0.241 NA
ATOM     25  C   UNL     1      35.933 -18.129 -21.381  0.00  0.00    +0.068 C 
ATOM     26  C   UNL     1      34.691 -18.707 -21.142  0.00  0.00    +0.022 C 
ATOM     27  C   UNL     1      36.995 -18.523 -20.584  0.00  0.00    +0.113 C 
ATOM     28  C   UNL     1      34.551 -19.647 -20.127  0.00  0.00    +0.073 C 
ATOM     29  C   UNL     1      35.676 -19.974 -19.386  0.00  0.00    +0.103 C 
BRANCH  28  32
ATOM     30  O   UNL     1      32.203 -19.772 -20.263  0.00  0.00    -0.270 OA
ATOM     31  N   UNL     1      33.265 -21.458 -19.127  0.00  0.00    -0.325 N 
ATOM     32  C   UNL     1      33.268 -20.269 -19.853  0.00  0.00    +0.244 C 
ATOM     33  H   UNL     1      32.413 -21.908 -18.923  0.00  0.00    +0.145 HD
ATOM     34  H   UNL     1      34.114 -21.850 -18.820  0.00  0.00    +0.145 HD
ENDBRANCH  28  32
ENDBRANCH  22  25
ENDBRANCH   1  22
TORSDOF 6
ENDMDL
MODEL 8
REMARK VINA RESULT:     -11.7      4.919      9.333
REMARK  Name = 24875320
REMARK  6 active torsions:
REMARK  status: ('A' for Active; 'I' for Inactive)
REMARK    1  A    between atoms: C_1  and  N_22
REMARK    2  A    between atoms: C_3  and  C_10
REMARK    3  A    between atoms: N_9  and  C_12
REMARK    4  A    between atoms: C_14  and  C_21
REMARK    5  A    between atoms: N_22  and  C_25
REMARK    6  A    between atoms: C_28  and  C_32
REMARK                            x       y       z     vdW  Elec       q    Type
REMARK                         _______ _______ _______ _____ _____    ______ ____
ROOT
ATOM      1  C   UNL     1      35.176 -22.279 -15.975  0.00  0.00    +0.044 C 
ATOM      2  C   UNL     1      33.824 -22.622 -15.952  0.00  0.00    -0.008 C 
ATOM      3  C   UNL     1      34.862 -21.184 -18.106  0.00  0.00    +0.055 C 
ATOM      4  C   UNL     1      35.694 -21.561 -17.052  0.00  0.00    +0.019 C 
ATOM      5  C   UNL     1      32.991 -22.245 -17.005  0.00  0.00    -0.003 C 
ATOM      6  C   UNL     1      33.509 -21.527 -18.083  0.00  0.00    +0.004 C 
ATOM      7  C   UNL     1      33.241 -23.389 -14.810  0.00  0.00    +0.032 C 
ENDROOT
BRANCH   3  10
ATOM      8  O   UNL     1      36.500 -20.772 -19.705  0.00  0.00    -0.270 OA
ATOM      9  N   UNL     1      34.627 -19.358 -19.677  0.00  0.00    -0.280 N 
ATOM     10  C   UNL     1      35.403 -20.437 -19.229  0.00  0.00    +0.250 C 
ATOM     11  H   UNL     1      33.777 -19.215 -19.201  0.00  0.00    +0.155 HD
BRANCH   9  12
ATOM     12  C   UNL     1      34.907 -18.446 -20.724  0.00  0.00    +0.050 C 
ATOM     13  C   UNL     1      34.775 -17.074 -20.509  0.00  0.00    +0.019 C 
ATOM     14  C   UNL     1      35.050 -16.176 -21.540  0.00  0.00    +0.073 C 
ATOM     15  C   UNL     1      35.314 -18.920 -21.972  0.00  0.00    +0.015 C 
ATOM     16  C   UNL     1      35.457 -16.651 -22.788  0.00  0.00    +0.004 C 
ATOM     17  C   UNL     1      35.589 -18.022 -23.003  0.00  0.00    +0.001 C 
BRANCH  14  21
ATOM     18  F   UNL     1      33.613 -14.282 -21.280  0.00  0.00    -0.166 F 
ATOM     19  F   UNL     1      35.453 -14.287 -20.131  0.00  0.00    -0.166 F 
ATOM     20  F   UNL     1      35.517 -13.966 -22.282  0.00  0.00    -0.166 F 
ATOM     21  C   UNL     1      34.909 -14.710 -21.311  0.00  0.00    +0.419 C 
ENDBRANCH  14  21
ENDBRANCH   9  12
ENDBRANCH   3  10
BRANCH   1  22
ATOM     22  N   UNL     1      36.033 -22.651 -14.917  0.00  0.00    -0.312 N 
ATOM     23  H   UNL     1      36.151 -21.949 -14.237  0.00  0.00    +0.152 HD
BRANCH  22  25
ATOM     24  N   UNL     1      36.768 -26.238 -14.434  0.00  0.00    -0.241 NA
ATOM     25  C   UNL     1      36.753 -23.830 -14.643  0.00  0.00    +0.068 C 
ATOM     26  C   UNL     1      38.105 -23.786 -14.323  0.00  0.00    +0.022 C 
ATOM     27  C   UNL     1      36.136 -25.070 -14.685  0.00  0.00    +0.113 C 
ATOM     28  C   UNL     1      38.790 -24.967 -14.060  0.00  0.00    +0.073 C 
ATOM     29  C   UNL     1      38.082 -26.156 -14.127  0.00  0.00    +0.103 C 
BRANCH  28  32
ATOM     30  O   UNL     1      40.731 -23.973 -13.169  0.00  0.00    -0.270 OA
ATOM     31  N   UNL     1      40.951 -26.091 -14.022  0.00  0.00    -0.325 N 
ATOM     32  C   UNL     1      40.202 -24.955 -13.722  0.00  0.00    +0.244 C 
ATOM     33  H   UNL     1      41.912 -26.118 -13.807  0.00  0.00    +0.145 HD
ATOM     34  H   UNL     1      40.520 -26.867 -14.447  0.00  0.00    +0.145 HD
ENDBRANCH  28  32
ENDBRANCH  22  25
ENDBRANCH   1  22
TORSDOF 6
ENDMDL
MODEL 9
REMARK VINA RESULT:     -11.7      6.179     10.398
REMARK  Name = 24875320
REMARK  6 active torsions:
REMARK  status: ('A' for Active; 'I' for Inactive)
REMARK    1  A    between atoms: C_1  and  N_22
REMARK    2  A    between atoms: C_3  and  C_10
REMARK    3  A    between atoms: N_9  and  C_12
REMARK    4  A    between atoms: C_14  and  C_21
REMARK    5  A    between atoms: N_22  and  C_25
REMARK    6  A    between atoms: C_28  and  C_32
REMARK                            x       y       z     vdW  Elec       q    Type
REMARK                         _______ _______ _______ _____ _____    ______ ____
ROOT
ATOM      1  C   UNL     1      34.445 -14.348 -23.356  0.00  0.00    +0.044 C 
ATOM      2  C   UNL     1      33.970 -14.393 -24.667  0.00  0.00    -0.008 C 
ATOM      3  C   UNL     1      34.705 -16.750 -23.368  0.00  0.00    +0.055 C 
ATOM      4  C   UNL     1      34.812 -15.527 -22.707  0.00  0.00    +0.019 C 
ATOM      5  C   UNL     1      33.863 -15.616 -25.328  0.00  0.00    -0.003 C 
ATOM      6  C   UNL     1      34.229 -16.795 -24.679  0.00  0.00    +0.004 C 
ATOM      7  C   UNL     1      33.571 -13.146 -25.387  0.00  0.00    +0.032 C 
ENDROOT
BRANCH   3  10
ATOM      8  O   UNL     1      35.230 -19.016 -23.358  0.00  0.00    -0.270 OA
ATOM      9  N   UNL     1      35.242 -17.888 -21.301  0.00  0.00    -0.280 N 
ATOM     10  C   UNL     1      35.086 -17.979 -22.691  0.00  0.00    +0.250 C 
ATOM     11  H   UNL     1      35.095 -16.996 -20.911  0.00  0.00    +0.155 HD
BRANCH   9  12
ATOM     12  C   UNL     1      35.582 -18.912 -20.383  0.00  0.00    +0.050 C 
ATOM     13  C   UNL     1      34.580 -19.697 -19.809  0.00  0.00    +0.019 C 
ATOM     14  C   UNL     1      34.915 -20.705 -18.906  0.00  0.00    +0.073 C 
ATOM     15  C   UNL     1      36.918 -19.136 -20.051  0.00  0.00    +0.015 C 
ATOM     16  C   UNL     1      36.252 -20.929 -18.575  0.00  0.00    +0.004 C 
ATOM     17  C   UNL     1      37.253 -20.145 -19.148  0.00  0.00    +0.001 C 
BRANCH  14  21
ATOM     18  F   UNL     1      34.121 -21.934 -17.014  0.00  0.00    -0.166 F 
ATOM     19  F   UNL     1      32.634 -20.916 -18.221  0.00  0.00    -0.166 F 
ATOM     20  F   UNL     1      33.620 -22.697 -18.988  0.00  0.00    -0.166 F 
ATOM     21  C   UNL     1      33.846 -21.543 -18.293  0.00  0.00    +0.419 C 
ENDBRANCH  14  21
ENDBRANCH   9  12
ENDBRANCH   3  10
BRANCH   1  22
ATOM     22  N   UNL     1      34.561 -13.118 -22.671  0.00  0.00    -0.312 N 
ATOM     23  H   UNL     1      35.484 -12.780 -22.619  0.00  0.00    +0.152 HD
BRANCH  22  25
ATOM     24  N   UNL     1      31.918 -11.988 -20.354  0.00  0.00    -0.241 NA
ATOM     25  C   UNL     1      33.615 -12.282 -22.049  0.00  0.00    +0.068 C 
ATOM     26  C   UNL     1      33.429 -10.971 -22.473  0.00  0.00    +0.022 C 
ATOM     27  C   UNL     1      32.841 -12.738 -20.994  0.00  0.00    +0.113 C 
ATOM     28  C   UNL     1      32.488 -10.167 -21.838  0.00  0.00    +0.073 C 
ATOM     29  C   UNL     1      31.764 -10.719 -20.793  0.00  0.00    +0.103 C 
BRANCH  28  32
ATOM     30  O   UNL     1      31.693  -7.973 -21.522  0.00  0.00    -0.270 OA
ATOM     31  N   UNL     1      32.744  -8.415 -23.511  0.00  0.00    -0.325 N 
ATOM     32  C   UNL     1      32.269  -8.795 -22.258  0.00  0.00    +0.244 C 
ATOM     33  H   UNL     1      32.614  -7.492 -23.829  0.00  0.00    +0.145 HD
ATOM     34  H   UNL     1      33.210  -9.070 -24.080  0.00  0.00    +0.145 HD
ENDBRANCH  28  32
ENDBRANCH  22  25
ENDBRANCH   1  22
TORSDOF 6
ENDMDL
