MODEL 1
REMARK VINA RESULT:     -13.2      0.000      0.000
REMARK  Name = 9976892
REMARK  4 active torsions:
REMARK  status: ('A' for Active; 'I' for Inactive)
REMARK    1  A    between atoms: N_1  and  C_13
REMARK    2  A    between atoms: C_10  and  O_17
REMARK    3  A    between atoms: O_17  and  C_20
REMARK    4  A    between atoms: C_19  and  N_25
REMARK                            x       y       z     vdW  Elec       q    Type
REMARK                         _______ _______ _______ _____ _____    ______ ____
ROOT
ATOM      1  N   UNL     1      37.942 -23.621 -13.187  0.00  0.00    +0.389 N 
ATOM      2  C   UNL     1      38.028 -23.367 -14.632  0.00  0.00    -0.073 C 
ATOM      3  C   UNL     1      36.628 -24.131 -12.762  0.00  0.00    -0.073 C 
ATOM      4  C   UNL     1      37.208 -22.154 -15.087  0.00  0.00    +0.003 C 
ATOM      5  C   UNL     1      35.518 -23.078 -12.825  0.00  0.00    +0.003 C 
ATOM      6  C   UNL     1      35.744 -22.458 -15.278  0.00  0.00    -0.025 C 
ATOM      7  C   UNL     1      34.944 -22.895 -14.207  0.00  0.00    -0.028 C 
ATOM      8  C   UNL     1      35.162 -22.288 -16.544  0.00  0.00    +0.033 C 
ATOM      9  C   UNL     1      33.580 -23.151 -14.427  0.00  0.00    -0.002 C 
ATOM     10  C   UNL     1      33.808 -22.550 -16.750  0.00  0.00    +0.147 C 
ATOM     11  C   UNL     1      33.017 -22.980 -15.692  0.00  0.00    +0.037 C 
ATOM     12  H   UNL     1      38.086 -22.730 -12.711  0.00  0.00    -0.080 HD
ENDROOT
BRANCH   1  13
ATOM     13  C   UNL     1      38.946 -24.593 -12.838  0.00  0.00    -0.058 C 
ATOM     14  C   UNL     1      38.957 -25.759 -13.848  0.00  0.00    -0.021 C 
ATOM     15  C   UNL     1      40.322 -24.189 -13.404  0.00  0.00    -0.021 C 
ATOM     16  C   UNL     1      40.497 -25.664 -13.823  0.00  0.00    -0.004 C 
ENDBRANCH   1  13
BRANCH  10  17
ATOM     17  O   UNL     1      33.262 -22.381 -17.985  0.00  0.00    -0.436 OA
BRANCH  17  20
ATOM     18  N   UNL     1      32.798 -20.478 -19.229  0.00  0.00    -0.209 NA
ATOM     19  C   UNL     1      34.605 -19.254 -20.270  0.00  0.00    +0.073 C 
ATOM     20  C   UNL     1      33.727 -21.328 -18.756  0.00  0.00    +0.230 C 
ATOM     21  C   UNL     1      35.525 -20.162 -19.757  0.00  0.00    +0.021 C 
ATOM     22  C   UNL     1      33.265 -19.455 -19.980  0.00  0.00    +0.117 C 
ATOM     23  C   UNL     1      35.084 -21.227 -18.980  0.00  0.00    +0.059 C 
BRANCH  19  25
ATOM     24  O   UNL     1      34.937 -19.008 -23.297  0.00  0.00    -0.275 OA
ATOM     25  N   UNL     1      35.028 -18.152 -21.070  0.00  0.00    -0.257 N 
ATOM     26  C   UNL     1      35.421 -15.922 -21.646  0.00  0.00    +0.031 C 
ATOM     27  C   UNL     1      35.469 -16.899 -20.490  0.00  0.00    +0.099 C 
ATOM     28  C   UNL     1      35.733 -16.787 -22.851  0.00  0.00    +0.087 C 
ATOM     29  C   UNL     1      35.159 -18.133 -22.472  0.00  0.00    +0.229 C 
ENDBRANCH  19  25
ENDBRANCH  17  20
ENDBRANCH  10  17
TORSDOF 4
ENDMDL
MODEL 2
REMARK VINA RESULT:     -12.6      1.805      2.950
REMARK  Name = 9976892
REMARK  4 active torsions:
REMARK  status: ('A' for Active; 'I' for Inactive)
REMARK    1  A    between atoms: N_1  and  C_13
REMARK    2  A    between atoms: C_10  and  O_17
REMARK    3  A    between atoms: O_17  and  C_20
REMARK    4  A    between atoms: C_19  and  N_25
REMARK                            x       y       z     vdW  Elec       q    Type
REMARK                         _______ _______ _______ _____ _____    ______ ____
ROOT
ATOM      1  N   UNL     1      36.477 -23.335 -14.075  0.00  0.00    +0.389 N 
ATOM      2  C   UNL     1      37.502 -22.848 -15.010  0.00  0.00    -0.073 C 
ATOM      3  C   UNL     1      35.216 -23.709 -14.736  0.00  0.00    -0.073 C 
ATOM      4  C   UNL     1      37.187 -21.465 -15.592  0.00  0.00    +0.003 C 
ATOM      5  C   UNL     1      34.424 -22.506 -15.259  0.00  0.00    +0.003 C 
ATOM      6  C   UNL     1      36.222 -21.508 -16.750  0.00  0.00    -0.025 C 
ATOM      7  C   UNL     1      34.914 -22.001 -16.592  0.00  0.00    -0.028 C 
ATOM      8  C   UNL     1      36.630 -21.034 -18.007  0.00  0.00    +0.033 C 
ATOM      9  C   UNL     1      34.044 -22.007 -17.696  0.00  0.00    -0.002 C 
ATOM     10  C   UNL     1      35.758 -21.050 -19.095  0.00  0.00    +0.147 C 
ATOM     11  C   UNL     1      34.465 -21.536 -18.938  0.00  0.00    +0.037 C 
ATOM     12  H   UNL     1      36.263 -22.573 -13.431  0.00  0.00    -0.080 HD
ENDROOT
BRANCH   1  13
ATOM     13  C   UNL     1      36.999 -24.492 -13.395  0.00  0.00    -0.058 C 
ATOM     14  C   UNL     1      38.200 -25.085 -14.159  0.00  0.00    -0.021 C 
ATOM     15  C   UNL     1      37.999 -24.080 -12.296  0.00  0.00    -0.021 C 
ATOM     16  C   UNL     1      38.900 -25.229 -12.792  0.00  0.00    -0.004 C 
ENDBRANCH   1  13
BRANCH  10  17
ATOM     17  O   UNL     1      36.171 -20.588 -20.306  0.00  0.00    -0.436 OA
BRANCH  17  20
ATOM     18  N   UNL     1      36.263 -18.327 -19.790  0.00  0.00    -0.209 NA
ATOM     19  C   UNL     1      35.233 -16.716 -21.270  0.00  0.00    +0.073 C 
ATOM     20  C   UNL     1      35.849 -19.283 -20.641  0.00  0.00    +0.230 C 
ATOM     21  C   UNL     1      34.828 -17.742 -22.117  0.00  0.00    +0.021 C 
ATOM     22  C   UNL     1      35.941 -17.058 -20.130  0.00  0.00    +0.117 C 
ATOM     23  C   UNL     1      35.139 -19.060 -21.802  0.00  0.00    +0.059 C 
BRANCH  19  25
ATOM     24  O   UNL     1      35.140 -15.235 -23.941  0.00  0.00    -0.275 OA
ATOM     25  N   UNL     1      34.928 -15.355 -21.566  0.00  0.00    -0.257 N 
ATOM     26  C   UNL     1      34.005 -13.229 -21.263  0.00  0.00    +0.031 C 
ATOM     27  C   UNL     1      34.665 -14.377 -20.527  0.00  0.00    +0.099 C 
ATOM     28  C   UNL     1      34.640 -13.281 -22.638  0.00  0.00    +0.087 C 
ATOM     29  C   UNL     1      34.917 -14.754 -22.840  0.00  0.00    +0.229 C 
ENDBRANCH  19  25
ENDBRANCH  17  20
ENDBRANCH  10  17
TORSDOF 4
ENDMDL
MODEL 3
REMARK VINA RESULT:     -12.1      5.734     12.796
REMARK  Name = 9976892
REMARK  4 active torsions:
REMARK  status: ('A' for Active; 'I' for Inactive)
REMARK    1  A    between atoms: N_1  and  C_13
REMARK    2  A    between atoms: C_10  and  O_17
REMARK    3  A    between atoms: O_17  and  C_20
REMARK    4  A    between atoms: C_19  and  N_25
REMARK                            x       y       z     vdW  Elec       q    Type
REMARK                         _______ _______ _______ _____ _____    ______ ____
ROOT
ATOM      1  N   UNL     1      32.572  -8.008 -21.705  0.00  0.00    +0.389 N 
ATOM      2  C   UNL     1      33.709  -8.460 -22.520  0.00  0.00    -0.073 C 
ATOM      3  C   UNL     1      32.210  -8.952 -20.636  0.00  0.00    -0.073 C 
ATOM      4  C   UNL     1      33.370  -9.644 -23.433  0.00  0.00    +0.003 C 
ATOM      5  C   UNL     1      31.557 -10.237 -21.155  0.00  0.00    +0.003 C 
ATOM      6  C   UNL     1      33.411 -10.976 -22.727  0.00  0.00    -0.025 C 
ATOM      7  C   UNL     1      32.553 -11.256 -21.649  0.00  0.00    -0.028 C 
ATOM      8  C   UNL     1      34.312 -11.961 -23.162  0.00  0.00    +0.033 C 
ATOM      9  C   UNL     1      32.615 -12.517 -21.031  0.00  0.00    -0.002 C 
ATOM     10  C   UNL     1      34.366 -13.206 -22.537  0.00  0.00    +0.147 C 
ATOM     11  C   UNL     1      33.517 -13.484 -21.472  0.00  0.00    +0.037 C 
ATOM     12  H   UNL     1      31.764  -7.931 -22.323  0.00  0.00    -0.080 HD
ENDROOT
BRANCH   1  13
ATOM     13  C   UNL     1      32.920  -6.746 -21.104  0.00  0.00    -0.058 C 
ATOM     14  C   UNL     1      31.727  -5.770 -21.143  0.00  0.00    -0.021 C 
ATOM     15  C   UNL     1      32.732  -6.796 -19.574  0.00  0.00    -0.021 C 
ATOM     16  C   UNL     1      32.080  -5.402 -19.687  0.00  0.00    -0.004 C 
ENDBRANCH   1  13
BRANCH  10  17
ATOM     17  O   UNL     1      35.247 -14.148 -22.971  0.00  0.00    -0.436 OA
BRANCH  17  20
ATOM     18  N   UNL     1      35.324 -15.320 -20.969  0.00  0.00    -0.209 NA
ATOM     19  C   UNL     1      35.296 -17.738 -20.992  0.00  0.00    +0.073 C 
ATOM     20  C   UNL     1      35.263 -15.367 -22.312  0.00  0.00    +0.230 C 
ATOM     21  C   UNL     1      35.233 -17.731 -22.381  0.00  0.00    +0.021 C 
ATOM     22  C   UNL     1      35.340 -16.516 -20.339  0.00  0.00    +0.117 C 
ATOM     23  C   UNL     1      35.216 -16.521 -23.065  0.00  0.00    +0.059 C 
BRANCH  19  25
ATOM     24  O   UNL     1      33.013 -19.576 -20.133  0.00  0.00    -0.275 OA
ATOM     25  N   UNL     1      35.316 -18.963 -20.262  0.00  0.00    -0.257 N 
ATOM     26  C   UNL     1      36.182 -20.957 -19.406  0.00  0.00    +0.031 C 
ATOM     27  C   UNL     1      36.539 -19.518 -19.714  0.00  0.00    +0.099 C 
ATOM     28  C   UNL     1      34.710 -20.887 -19.054  0.00  0.00    +0.087 C 
ATOM     29  C   UNL     1      34.201 -19.745 -19.903  0.00  0.00    +0.229 C 
ENDBRANCH  19  25
ENDBRANCH  17  20
ENDBRANCH  10  17
TORSDOF 4
ENDMDL
MODEL 4
REMARK VINA RESULT:     -12.1      3.452     10.665
REMARK  Name = 9976892
REMARK  4 active torsions:
REMARK  status: ('A' for Active; 'I' for Inactive)
REMARK    1  A    between atoms: N_1  and  C_13
REMARK    2  A    between atoms: C_10  and  O_17
REMARK    3  A    between atoms: O_17  and  C_20
REMARK    4  A    between atoms: C_19  and  N_25
REMARK                            x       y       z     vdW  Elec       q    Type
REMARK                         _______ _______ _______ _____ _____    ______ ____
ROOT
ATOM      1  N   UNL     1      32.741 -12.245 -20.617  0.00  0.00    +0.389 N 
ATOM      2  C   UNL     1      33.298 -13.374 -19.858  0.00  0.00    -0.073 C 
ATOM      3  C   UNL     1      32.458 -12.571 -22.024  0.00  0.00    -0.073 C 
ATOM      4  C   UNL     1      34.737 -13.722 -20.254  0.00  0.00    +0.003 C 
ATOM      5  C   UNL     1      33.721 -12.750 -22.872  0.00  0.00    +0.003 C 
ATOM      6  C   UNL     1      34.828 -14.575 -21.495  0.00  0.00    -0.025 C 
ATOM      7  C   UNL     1      34.347 -14.115 -22.733  0.00  0.00    -0.028 C 
ATOM      8  C   UNL     1      35.416 -15.847 -21.417  0.00  0.00    +0.033 C 
ATOM      9  C   UNL     1      34.466 -14.938 -23.866  0.00  0.00    -0.002 C 
ATOM     10  C   UNL     1      35.524 -16.656 -22.548  0.00  0.00    +0.147 C 
ATOM     11  C   UNL     1      35.050 -16.201 -23.772  0.00  0.00    +0.037 C 
ATOM     12  H   UNL     1      33.440 -11.501 -20.616  0.00  0.00    -0.080 HD
ENDROOT
BRANCH   1  13
ATOM     13  C   UNL     1      31.513 -11.838 -19.985  0.00  0.00    -0.058 C 
ATOM     14  C   UNL     1      31.785 -11.221 -18.598  0.00  0.00    -0.021 C 
ATOM     15  C   UNL     1      31.097 -10.426 -20.447  0.00  0.00    -0.021 C 
ATOM     16  C   UNL     1      30.766 -10.124 -18.971  0.00  0.00    -0.004 C 
ENDBRANCH   1  13
BRANCH  10  17
ATOM     17  O   UNL     1      36.096 -17.887 -22.452  0.00  0.00    -0.436 OA
BRANCH  17  20
ATOM     18  N   UNL     1      34.394 -19.027 -21.363  0.00  0.00    -0.209 NA
ATOM     19  C   UNL     1      34.887 -20.298 -19.365  0.00  0.00    +0.073 C 
ATOM     20  C   UNL     1      35.698 -18.702 -21.405  0.00  0.00    +0.230 C 
ATOM     21  C   UNL     1      36.226 -19.934 -19.456  0.00  0.00    +0.021 C 
ATOM     22  C   UNL     1      34.019 -19.823 -20.335  0.00  0.00    +0.117 C 
ATOM     23  C   UNL     1      36.650 -19.116 -20.498  0.00  0.00    +0.059 C 
BRANCH  19  25
ATOM     24  O   UNL     1      36.398 -21.597 -17.049  0.00  0.00    -0.275 OA
ATOM     25  N   UNL     1      34.423 -21.135 -18.308  0.00  0.00    -0.257 N 
ATOM     26  C   UNL     1      32.906 -22.070 -16.797  0.00  0.00    +0.031 C 
ATOM     27  C   UNL     1      33.046 -21.585 -18.225  0.00  0.00    +0.099 C 
ATOM     28  C   UNL     1      34.290 -22.587 -16.463  0.00  0.00    +0.087 C 
ATOM     29  C   UNL     1      35.201 -21.699 -17.279  0.00  0.00    +0.229 C 
ENDBRANCH  19  25
ENDBRANCH  17  20
ENDBRANCH  10  17
TORSDOF 4
ENDMDL
MODEL 5
REMARK VINA RESULT:     -11.9      3.870     11.703
REMARK  Name = 9976892
REMARK  4 active torsions:
REMARK  status: ('A' for Active; 'I' for Inactive)
REMARK    1  A    between atoms: N_1  and  C_13
REMARK    2  A    between atoms: C_10  and  O_17
REMARK    3  A    between atoms: O_17  and  C_20
REMARK    4  A    between atoms: C_19  and  N_25
REMARK                            x       y       z     vdW  Elec       q    Type
REMARK                         _______ _______ _______ _____ _____    ______ ____
ROOT
ATOM      1  N   UNL     1      33.625 -11.265 -24.413  0.00  0.00    +0.389 N 
ATOM      2  C   UNL     1      34.120 -12.420 -25.176  0.00  0.00    -0.073 C 
ATOM      3  C   UNL     1      34.104 -11.239 -23.021  0.00  0.00    -0.073 C 
ATOM      4  C   UNL     1      33.491 -13.749 -24.745  0.00  0.00    +0.003 C 
ATOM      5  C   UNL     1      33.470 -12.319 -22.140  0.00  0.00    +0.003 C 
ATOM      6  C   UNL     1      34.134 -14.347 -23.519  0.00  0.00    -0.025 C 
ATOM      7  C   UNL     1      34.124 -13.670 -22.286  0.00  0.00    -0.028 C 
ATOM      8  C   UNL     1      34.742 -15.609 -23.604  0.00  0.00    +0.033 C 
ATOM      9  C   UNL     1      34.722 -14.273 -21.166  0.00  0.00    -0.002 C 
ATOM     10  C   UNL     1      35.336 -16.194 -22.486  0.00  0.00    +0.147 C 
ATOM     11  C   UNL     1      35.325 -15.525 -21.267  0.00  0.00    +0.037 C 
ATOM     12  H   UNL     1      32.608 -11.334 -24.379  0.00  0.00    -0.080 HD
ENDROOT
BRANCH   1  13
ATOM     13  C   UNL     1      34.068 -10.064 -25.073  0.00  0.00    -0.058 C 
ATOM     14  C   UNL     1      35.143  -9.341 -24.236  0.00  0.00    -0.021 C 
ATOM     15  C   UNL     1      35.182 -10.376 -26.094  0.00  0.00    -0.021 C 
ATOM     16  C   UNL     1      35.919  -9.133 -25.554  0.00  0.00    -0.004 C 
ENDBRANCH   1  13
BRANCH  10  17
ATOM     17  O   UNL     1      35.922 -17.417 -22.588  0.00  0.00    -0.436 OA
BRANCH  17  20
ATOM     18  N   UNL     1      34.497 -18.800 -21.388  0.00  0.00    -0.209 NA
ATOM     19  C   UNL     1      35.346 -20.056 -19.504  0.00  0.00    +0.073 C 
ATOM     20  C   UNL     1      35.739 -18.308 -21.543  0.00  0.00    +0.230 C 
ATOM     21  C   UNL     1      36.612 -19.519 -19.708  0.00  0.00    +0.021 C 
ATOM     22  C   UNL     1      34.331 -19.668 -20.364  0.00  0.00    +0.117 C 
ATOM     23  C   UNL     1      36.822 -18.622 -20.750  0.00  0.00    +0.059 C 
BRANCH  19  25
ATOM     24  O   UNL     1      36.973 -20.677 -16.994  0.00  0.00    -0.275 OA
ATOM     25  N   UNL     1      35.100 -20.977 -18.444  0.00  0.00    -0.257 N 
ATOM     26  C   UNL     1      33.863 -22.353 -17.017  0.00  0.00    +0.031 C 
ATOM     27  C   UNL     1      33.968 -21.884 -18.453  0.00  0.00    +0.099 C 
ATOM     28  C   UNL     1      35.300 -22.337 -16.535  0.00  0.00    +0.087 C 
ATOM     29  C   UNL     1      35.918 -21.203 -17.320  0.00  0.00    +0.229 C 
ENDBRANCH  19  25
ENDBRANCH  17  20
ENDBRANCH  10  17
TORSDOF 4
ENDMDL
MODEL 6
REMARK VINA RESULT:     -11.8      7.649     12.983
REMARK  Name = 9976892
REMARK  4 active torsions:
REMARK  status: ('A' for Active; 'I' for Inactive)
REMARK    1  A    between atoms: N_1  and  C_13
REMARK    2  A    between atoms: C_10  and  O_17
REMARK    3  A    between atoms: O_17  and  C_20
REMARK    4  A    between atoms: C_19  and  N_25
REMARK                            x       y       z     vdW  Elec       q    Type
REMARK                         _______ _______ _______ _____ _____    ______ ____
ROOT
ATOM      1  N   UNL     1      34.740 -15.877 -22.697  0.00  0.00    +0.389 N 
ATOM      2  C   UNL     1      35.117 -14.585 -22.104  0.00  0.00    -0.073 C 
ATOM      3  C   UNL     1      34.698 -15.853 -24.167  0.00  0.00    -0.073 C 
ATOM      4  C   UNL     1      34.029 -13.514 -22.235  0.00  0.00    +0.003 C 
ATOM      5  C   UNL     1      33.522 -15.048 -24.729  0.00  0.00    +0.003 C 
ATOM      6  C   UNL     1      34.014 -12.836 -23.582  0.00  0.00    -0.025 C 
ATOM      7  C   UNL     1      33.774 -13.563 -24.762  0.00  0.00    -0.028 C 
ATOM      8  C   UNL     1      34.230 -11.451 -23.660  0.00  0.00    +0.033 C 
ATOM      9  C   UNL     1      33.755 -12.886 -25.994  0.00  0.00    -0.002 C 
ATOM     10  C   UNL     1      34.213 -10.793 -24.890  0.00  0.00    +0.147 C 
ATOM     11  C   UNL     1      33.974 -11.510 -26.056  0.00  0.00    +0.037 C 
ATOM     12  H   UNL     1      33.798 -16.098 -22.373  0.00  0.00    -0.080 HD
ENDROOT
BRANCH   1  13
ATOM     13  C   UNL     1      35.704 -16.863 -22.281  0.00  0.00    -0.058 C 
ATOM     14  C   UNL     1      35.600 -17.131 -20.766  0.00  0.00    -0.021 C 
ATOM     15  C   UNL     1      35.158 -18.290 -22.494  0.00  0.00    -0.021 C 
ATOM     16  C   UNL     1      35.726 -18.632 -21.101  0.00  0.00    -0.004 C 
ENDBRANCH   1  13
BRANCH  10  17
ATOM     17  O   UNL     1      34.425  -9.450 -24.946  0.00  0.00    -0.436 OA
BRANCH  17  20
ATOM     18  N   UNL     1      32.750  -8.740 -23.507  0.00  0.00    -0.209 NA
ATOM     19  C   UNL     1      33.282  -7.218 -21.704  0.00  0.00    +0.073 C 
ATOM     20  C   UNL     1      34.050  -8.692 -23.849  0.00  0.00    +0.230 C 
ATOM     21  C   UNL     1      34.615  -7.204 -22.100  0.00  0.00    +0.021 C 
ATOM     22  C   UNL     1      32.397  -7.995 -22.434  0.00  0.00    +0.117 C 
ATOM     23  C   UNL     1      35.017  -7.956 -23.198  0.00  0.00    +0.059 C 
BRANCH  19  25
ATOM     24  O   UNL     1      32.996  -7.994 -18.764  0.00  0.00    -0.275 OA
ATOM     25  N   UNL     1      32.840  -6.456 -20.583  0.00  0.00    -0.257 N 
ATOM     26  C   UNL     1      32.389  -4.555 -19.301  0.00  0.00    +0.031 C 
ATOM     27  C   UNL     1      32.350  -5.097 -20.714  0.00  0.00    +0.099 C 
ATOM     28  C   UNL     1      32.125  -5.779 -18.447  0.00  0.00    +0.087 C 
ATOM     29  C   UNL     1      32.733  -6.904 -19.252  0.00  0.00    +0.229 C 
ENDBRANCH  19  25
ENDBRANCH  17  20
ENDBRANCH  10  17
TORSDOF 4
ENDMDL
MODEL 7
REMARK VINA RESULT:     -10.9      3.695     10.900
REMARK  Name = 9976892
REMARK  4 active torsions:
REMARK  status: ('A' for Active; 'I' for Inactive)
REMARK    1  A    between atoms: N_1  and  C_13
REMARK    2  A    between atoms: C_10  and  O_17
REMARK    3  A    between atoms: O_17  and  C_20
REMARK    4  A    between atoms: C_19  and  N_25
REMARK                            x       y       z     vdW  Elec       q    Type
REMARK                         _______ _______ _______ _____ _____    ______ ____
ROOT
ATOM      1  N   UNL     1      32.862 -11.579 -20.786  0.00  0.00    +0.389 N 
ATOM      2  C   UNL     1      33.344 -12.844 -20.215  0.00  0.00    -0.073 C 
ATOM      3  C   UNL     1      32.486 -11.685 -22.204  0.00  0.00    -0.073 C 
ATOM      4  C   UNL     1      34.724 -13.260 -20.735  0.00  0.00    +0.003 C 
ATOM      5  C   UNL     1      33.687 -11.856 -23.140  0.00  0.00    +0.003 C 
ATOM      6  C   UNL     1      34.678 -13.941 -22.080  0.00  0.00    -0.025 C 
ATOM      7  C   UNL     1      34.187 -13.276 -23.218  0.00  0.00    -0.028 C 
ATOM      8  C   UNL     1      35.147 -15.258 -22.203  0.00  0.00    +0.033 C 
ATOM      9  C   UNL     1      34.177 -13.946 -24.454  0.00  0.00    -0.002 C 
ATOM     10  C   UNL     1      35.127 -15.912 -23.435  0.00  0.00    +0.147 C 
ATOM     11  C   UNL     1      34.643 -15.255 -24.560  0.00  0.00    +0.037 C 
ATOM     12  H   UNL     1      33.627 -10.905 -20.727  0.00  0.00    -0.080 HD
ENDROOT
BRANCH   1  13
ATOM     13  C   UNL     1      31.707 -11.156 -20.036  0.00  0.00    -0.058 C 
ATOM     14  C   UNL     1      31.708 -11.778 -18.625  0.00  0.00    -0.021 C 
ATOM     15  C   UNL     1      31.961  -9.796 -19.354  0.00  0.00    -0.021 C 
ATOM     16  C   UNL     1      31.293 -10.390 -18.096  0.00  0.00    -0.004 C 
ENDBRANCH   1  13
BRANCH  10  17
ATOM     17  O   UNL     1      35.584 -17.190 -23.535  0.00  0.00    -0.436 OA
BRANCH  17  20
ATOM     18  N   UNL     1      34.435 -18.702 -22.203  0.00  0.00    -0.209 NA
ATOM     19  C   UNL     1      35.453 -19.529 -20.171  0.00  0.00    +0.073 C 
ATOM     20  C   UNL     1      35.551 -17.977 -22.395  0.00  0.00    +0.230 C 
ATOM     21  C   UNL     1      36.585 -18.760 -20.418  0.00  0.00    +0.021 C 
ATOM     22  C   UNL     1      34.415 -19.466 -21.086  0.00  0.00    +0.117 C 
ATOM     23  C   UNL     1      36.643 -17.961 -21.554  0.00  0.00    +0.059 C 
BRANCH  19  25
ATOM     24  O   UNL     1      33.072 -21.020 -18.973  0.00  0.00    -0.275 OA
ATOM     25  N   UNL     1      35.365 -20.357 -19.014  0.00  0.00    -0.257 N 
ATOM     26  C   UNL     1      36.096 -21.781 -17.312  0.00  0.00    +0.031 C 
ATOM     27  C   UNL     1      36.490 -20.565 -18.122  0.00  0.00    +0.099 C 
ATOM     28  C   UNL     1      34.586 -21.675 -17.228  0.00  0.00    +0.087 C 
ATOM     29  C   UNL     1      34.211 -21.003 -18.529  0.00  0.00    +0.229 C 
ENDBRANCH  19  25
ENDBRANCH  17  20
ENDBRANCH  10  17
TORSDOF 4
ENDMDL
MODEL 8
REMARK VINA RESULT:     -10.7      6.562     11.080
REMARK  Name = 9976892
REMARK  4 active torsions:
REMARK  status: ('A' for Active; 'I' for Inactive)
REMARK    1  A    between atoms: N_1  and  C_13
REMARK    2  A    between atoms: C_10  and  O_17
REMARK    3  A    between atoms: O_17  and  C_20
REMARK    4  A    between atoms: C_19  and  N_25
REMARK                            x       y       z     vdW  Elec       q    Type
REMARK                         _______ _______ _______ _____ _____    ______ ____
ROOT
ATOM      1  N   UNL     1      35.346 -18.070 -21.253  0.00  0.00    +0.389 N 
ATOM      2  C   UNL     1      34.972 -17.543 -22.573  0.00  0.00    -0.073 C 
ATOM      3  C   UNL     1      34.819 -17.271 -20.136  0.00  0.00    -0.073 C 
ATOM      4  C   UNL     1      35.690 -16.237 -22.932  0.00  0.00    +0.003 C 
ATOM      5  C   UNL     1      35.506 -15.910 -19.985  0.00  0.00    +0.003 C 
ATOM      6  C   UNL     1      35.055 -15.015 -22.319  0.00  0.00    -0.025 C 
ATOM      7  C   UNL     1      34.968 -14.861 -20.923  0.00  0.00    -0.028 C 
ATOM      8  C   UNL     1      34.553 -14.005 -23.154  0.00  0.00    +0.033 C 
ATOM      9  C   UNL     1      34.381 -13.697 -20.396  0.00  0.00    -0.002 C 
ATOM     10  C   UNL     1      33.969 -12.857 -22.617  0.00  0.00    +0.147 C 
ATOM     11  C   UNL     1      33.884 -12.704 -21.239  0.00  0.00    +0.037 C 
ATOM     12  H   UNL     1      36.364 -18.041 -21.189  0.00  0.00    -0.080 HD
ENDROOT
BRANCH   1  13
ATOM     13  C   UNL     1      34.831 -19.411 -21.140  0.00  0.00    -0.058 C 
ATOM     14  C   UNL     1      35.490 -20.156 -19.961  0.00  0.00    -0.021 C 
ATOM     15  C   UNL     1      33.523 -19.431 -20.322  0.00  0.00    -0.021 C 
ATOM     16  C   UNL     1      34.082 -20.677 -19.604  0.00  0.00    -0.004 C 
ENDBRANCH   1  13
BRANCH  10  17
ATOM     17  O   UNL     1      33.486 -11.889 -23.443  0.00  0.00    -0.436 OA
BRANCH  17  20
ATOM     18  N   UNL     1      32.199 -10.552 -22.050  0.00  0.00    -0.209 NA
ATOM     19  C   UNL     1      32.734  -8.206 -21.807  0.00  0.00    +0.073 C 
ATOM     20  C   UNL     1      33.241 -10.640 -22.896  0.00  0.00    +0.230 C 
ATOM     21  C   UNL     1      33.800  -8.352 -22.687  0.00  0.00    +0.021 C 
ATOM     22  C   UNL     1      31.970  -9.327 -21.523  0.00  0.00    +0.117 C 
ATOM     23  C   UNL     1      34.067  -9.595 -23.250  0.00  0.00    +0.059 C 
BRANCH  19  25
ATOM     24  O   UNL     1      33.362  -7.120 -19.022  0.00  0.00    -0.275 OA
ATOM     25  N   UNL     1      32.436  -6.944 -21.215  0.00  0.00    -0.257 N 
ATOM     26  C   UNL     1      31.929  -4.665 -21.120  0.00  0.00    +0.031 C 
ATOM     27  C   UNL     1      31.653  -5.933 -21.900  0.00  0.00    +0.099 C 
ATOM     28  C   UNL     1      32.151  -5.163 -19.705  0.00  0.00    +0.087 C 
ATOM     29  C   UNL     1      32.762  -6.531 -19.909  0.00  0.00    +0.229 C 
ENDBRANCH  19  25
ENDBRANCH  17  20
ENDBRANCH  10  17
TORSDOF 4
ENDMDL
MODEL 9
REMARK VINA RESULT:     -10.6      3.009      5.280
REMARK  Name = 9976892
REMARK  4 active torsions:
REMARK  status: ('A' for Active; 'I' for Inactive)
REMARK    1  A    between atoms: N_1  and  C_13
REMARK    2  A    between atoms: C_10  and  O_17
REMARK    3  A    between atoms: O_17  and  C_20
REMARK    4  A    between atoms: C_19  and  N_25
REMARK                            x       y       z     vdW  Elec       q    Type
REMARK                         _______ _______ _______ _____ _____    ______ ____
ROOT
ATOM      1  N   UNL     1      31.927 -22.778 -15.646  0.00  0.00    +0.389 N 
ATOM      2  C   UNL     1      32.131 -21.985 -16.867  0.00  0.00    -0.073 C 
ATOM      3  C   UNL     1      32.987 -22.587 -14.643  0.00  0.00    -0.073 C 
ATOM      4  C   UNL     1      33.291 -22.488 -17.733  0.00  0.00    +0.003 C 
ATOM      5  C   UNL     1      34.324 -23.218 -15.044  0.00  0.00    +0.003 C 
ATOM      6  C   UNL     1      34.642 -22.015 -17.259  0.00  0.00    -0.025 C 
ATOM      7  C   UNL     1      35.131 -22.361 -15.986  0.00  0.00    -0.028 C 
ATOM      8  C   UNL     1      35.435 -21.227 -18.108  0.00  0.00    +0.033 C 
ATOM      9  C   UNL     1      36.403 -21.910 -15.593  0.00  0.00    -0.002 C 
ATOM     10  C   UNL     1      36.694 -20.782 -17.703  0.00  0.00    +0.147 C 
ATOM     11  C   UNL     1      37.177 -21.125 -16.446  0.00  0.00    +0.037 C 
ATOM     12  H   UNL     1      31.943 -23.763 -15.915  0.00  0.00    -0.080 HD
ENDROOT
BRANCH   1  13
ATOM     13  C   UNL     1      30.668 -22.393 -15.062  0.00  0.00    -0.058 C 
ATOM     14  C   UNL     1      29.553 -22.366 -16.127  0.00  0.00    -0.021 C 
ATOM     15  C   UNL     1      29.950 -23.614 -14.451  0.00  0.00    -0.021 C 
ATOM     16  C   UNL     1      28.654 -23.075 -15.093  0.00  0.00    -0.004 C 
ENDBRANCH   1  13
BRANCH  10  17
ATOM     17  O   UNL     1      37.447 -20.018 -18.539  0.00  0.00    -0.436 OA
BRANCH  17  20
ATOM     18  N   UNL     1      37.564 -18.605 -20.376  0.00  0.00    -0.209 NA
ATOM     19  C   UNL     1      35.582 -18.185 -21.696  0.00  0.00    +0.073 C 
ATOM     20  C   UNL     1      36.807 -19.404 -19.603  0.00  0.00    +0.230 C 
ATOM     21  C   UNL     1      34.844 -19.022 -20.865  0.00  0.00    +0.021 C 
ATOM     22  C   UNL     1      36.927 -18.012 -21.411  0.00  0.00    +0.117 C 
ATOM     23  C   UNL     1      35.463 -19.650 -19.791  0.00  0.00    +0.059 C 
BRANCH  19  25
ATOM     24  O   UNL     1      35.649 -15.252 -22.546  0.00  0.00    -0.275 OA
ATOM     25  N   UNL     1      34.974 -17.527 -22.805  0.00  0.00    -0.257 N 
ATOM     26  C   UNL     1      34.023 -17.295 -24.926  0.00  0.00    +0.031 C 
ATOM     27  C   UNL     1      34.096 -18.219 -23.729  0.00  0.00    +0.099 C 
ATOM     28  C   UNL     1      34.168 -15.915 -24.316  0.00  0.00    +0.087 C 
ATOM     29  C   UNL     1      35.055 -16.156 -23.116  0.00  0.00    +0.229 C 
ENDBRANCH  19  25
ENDBRANCH  17  20
ENDBRANCH  10  17
TORSDOF 4
ENDMDL
