MODEL 1
REMARK VINA RESULT:     -11.5      0.000      0.000
REMARK  Name = 16040323
REMARK  5 active torsions:
REMARK  status: ('A' for Active; 'I' for Inactive)
REMARK    1  A    between atoms: C_1  and  C_2
REMARK    2  A    between atoms: C_1  and  C_16
REMARK    3  A    between atoms: C_5  and  C_8
REMARK    4  A    between atoms: C_11  and  O_14
REMARK    5  A    between atoms: C_16  and  C_21
REMARK                            x       y       z     vdW  Elec       q    Type
REMARK                         _______ _______ _______ _____ _____    ______ ____
ROOT
ATOM      1  C   UNL     1      36.226 -22.419 -15.962  0.00  0.00    +0.028 C 
ENDROOT
BRANCH   1   2
ATOM      2  C   UNL     1      35.315 -21.858 -17.023  0.00  0.00    -0.022 C 
ATOM      3  C   UNL     1      35.836 -21.014 -17.993  0.00  0.00    -0.004 C 
ATOM      4  C   UNL     1      33.968 -22.193 -17.013  0.00  0.00    -0.004 C 
ATOM      5  C   UNL     1      34.992 -20.494 -18.975  0.00  0.00    -0.000 C 
ATOM      6  C   UNL     1      33.125 -21.674 -17.995  0.00  0.00    -0.000 C 
ATOM      7  C   UNL     1      33.637 -20.824 -18.976  0.00  0.00    -0.000 C 
BRANCH   5   8
ATOM      8  C   UNL     1      35.522 -19.614 -19.993  0.00  0.00    +0.003 C 
ATOM      9  C   UNL     1      34.725 -19.235 -21.073  0.00  0.00    +0.037 C 
ATOM     10  C   UNL     1      36.832 -19.143 -19.894  0.00  0.00    +0.000 C 
ATOM     11  C   UNL     1      35.236 -18.385 -22.054  0.00  0.00    +0.139 C 
ATOM     12  C   UNL     1      37.343 -18.294 -20.876  0.00  0.00    +0.003 C 
ATOM     13  C   UNL     1      36.545 -17.914 -21.955  0.00  0.00    +0.037 C 
BRANCH  11  14
ATOM     14  O   UNL     1      34.458 -18.015 -23.108  0.00  0.00    -0.471 OA
ATOM     15  C   UNL     1      34.763 -16.771 -23.735  0.00  0.00    +0.252 C 
ENDBRANCH  11  14
ENDBRANCH   5   8
ENDBRANCH   1   2
BRANCH   1  16
ATOM     16  C   UNL     1      35.782 -21.985 -14.570  0.00  0.00    +0.028 C 
BRANCH  16  21
ATOM     17  O   UNL     1      38.302 -22.566 -11.619  0.00  0.00    -0.274 OA
ATOM     18  N   UNL     1      35.924 -24.413 -14.379  0.00  0.00    -0.247 NA
ATOM     19  N   UNL     1      38.025 -24.171 -13.306  0.00  0.00    -0.231 N 
ATOM     20  N   UNL     1      37.598 -25.903 -14.911  0.00  0.00    -0.331 N 
ATOM     21  C   UNL     1      35.458 -23.205 -13.694  0.00  0.00    +0.096 C 
ATOM     22  C   UNL     1      36.085 -23.099 -12.310  0.00  0.00    +0.108 C 
ATOM     23  C   UNL     1      33.934 -23.328 -13.555  0.00  0.00    +0.025 C 
ATOM     24  C   UNL     1      37.586 -23.216 -12.378  0.00  0.00    +0.233 C 
ATOM     25  C   UNL     1      37.146 -24.814 -14.202  0.00  0.00    +0.183 C 
ATOM     26  C   UNL     1      39.451 -24.493 -13.324  0.00  0.00    +0.123 C 
ATOM     27  H   UNL     1      36.998 -26.364 -15.542  0.00  0.00    +0.145 HD
ATOM     28  H   UNL     1      38.522 -26.221 -14.789  0.00  0.00    +0.145 HD
ENDBRANCH  16  21
ENDBRANCH   1  16
TORSDOF 5
ENDMDL
MODEL 2
REMARK VINA RESULT:     -11.4      6.628     11.328
REMARK  Name = 16040323
REMARK  5 active torsions:
REMARK  status: ('A' for Active; 'I' for Inactive)
REMARK    1  A    between atoms: C_1  and  C_2
REMARK    2  A    between atoms: C_1  and  C_16
REMARK    3  A    between atoms: C_5  and  C_8
REMARK    4  A    between atoms: C_11  and  O_14
REMARK    5  A    between atoms: C_16  and  C_21
REMARK                            x       y       z     vdW  Elec       q    Type
REMARK                         _______ _______ _______ _____ _____    ______ ____
ROOT
ATOM      1  C   UNL     1      34.889 -14.192 -20.600  0.00  0.00    +0.028 C 
ENDROOT
BRANCH   1   2
ATOM      2  C   UNL     1      35.095 -15.548 -21.223  0.00  0.00    -0.022 C 
ATOM      3  C   UNL     1      35.135 -16.673 -20.412  0.00  0.00    -0.004 C 
ATOM      4  C   UNL     1      35.243 -15.652 -22.599  0.00  0.00    -0.004 C 
ATOM      5  C   UNL     1      35.325 -17.929 -20.989  0.00  0.00    -0.000 C 
ATOM      6  C   UNL     1      35.433 -16.907 -23.176  0.00  0.00    -0.000 C 
ATOM      7  C   UNL     1      35.475 -18.046 -22.370  0.00  0.00    -0.000 C 
BRANCH   5   8
ATOM      8  C   UNL     1      35.368 -19.110 -20.155  0.00  0.00    +0.003 C 
ATOM      9  C   UNL     1      34.187 -19.774 -19.824  0.00  0.00    +0.037 C 
ATOM     10  C   UNL     1      36.591 -19.585 -19.681  0.00  0.00    +0.000 C 
ATOM     11  C   UNL     1      34.228 -20.913 -19.021  0.00  0.00    +0.139 C 
ATOM     12  C   UNL     1      36.632 -20.724 -18.877  0.00  0.00    +0.003 C 
ATOM     13  C   UNL     1      35.451 -21.388 -18.547  0.00  0.00    +0.037 C 
BRANCH  11  14
ATOM     14  O   UNL     1      33.076 -21.562 -18.698  0.00  0.00    -0.471 OA
ATOM     15  C   UNL     1      32.955 -22.044 -17.361  0.00  0.00    +0.252 C 
ENDBRANCH  11  14
ENDBRANCH   5   8
ENDBRANCH   1   2
BRANCH   1  16
ATOM     16  C   UNL     1      34.886 -13.095 -21.658  0.00  0.00    +0.028 C 
BRANCH  16  21
ATOM     17  O   UNL     1      33.823 -13.362 -25.426  0.00  0.00    -0.274 OA
ATOM     18  N   UNL     1      33.452 -11.153 -22.010  0.00  0.00    -0.247 NA
ATOM     19  N   UNL     1      33.899 -11.288 -24.336  0.00  0.00    -0.231 N 
ATOM     20  N   UNL     1      33.776  -9.192 -23.173  0.00  0.00    -0.331 N 
ATOM     21  C   UNL     1      33.455 -12.617 -21.945  0.00  0.00    +0.096 C 
ATOM     22  C   UNL     1      32.900 -13.210 -23.234  0.00  0.00    +0.108 C 
ATOM     23  C   UNL     1      32.550 -13.016 -20.772  0.00  0.00    +0.025 C 
ATOM     24  C   UNL     1      33.610 -12.656 -24.443  0.00  0.00    +0.233 C 
ATOM     25  C   UNL     1      33.702 -10.565 -23.140  0.00  0.00    +0.183 C 
ATOM     26  C   UNL     1      34.423 -10.610 -25.520  0.00  0.00    +0.123 C 
ATOM     27  H   UNL     1      33.641  -8.671 -22.348  0.00  0.00    +0.145 HD
ATOM     28  H   UNL     1      33.965  -8.729 -24.021  0.00  0.00    +0.145 HD
ENDBRANCH  16  21
ENDBRANCH   1  16
TORSDOF 5
ENDMDL
MODEL 3
REMARK VINA RESULT:     -11.2      6.542     10.512
REMARK  Name = 16040323
REMARK  5 active torsions:
REMARK  status: ('A' for Active; 'I' for Inactive)
REMARK    1  A    between atoms: C_1  and  C_2
REMARK    2  A    between atoms: C_1  and  C_16
REMARK    3  A    between atoms: C_5  and  C_8
REMARK    4  A    between atoms: C_11  and  O_14
REMARK    5  A    between atoms: C_16  and  C_21
REMARK                            x       y       z     vdW  Elec       q    Type
REMARK                         _______ _______ _______ _____ _____    ______ ____
ROOT
ATOM      1  C   UNL     1      34.296 -14.055 -24.445  0.00  0.00    +0.028 C 
ENDROOT
BRANCH   1   2
ATOM      2  C   UNL     1      34.261 -15.553 -24.281  0.00  0.00    -0.022 C 
ATOM      3  C   UNL     1      34.911 -16.137 -23.204  0.00  0.00    -0.004 C 
ATOM      4  C   UNL     1      33.578 -16.325 -25.210  0.00  0.00    -0.004 C 
ATOM      5  C   UNL     1      34.878 -17.524 -23.052  0.00  0.00    -0.000 C 
ATOM      6  C   UNL     1      33.545 -17.710 -25.059  0.00  0.00    -0.000 C 
ATOM      7  C   UNL     1      34.195 -18.310 -23.980  0.00  0.00    -0.000 C 
BRANCH   5   8
ATOM      8  C   UNL     1      35.552 -18.146 -21.933  0.00  0.00    +0.003 C 
ATOM      9  C   UNL     1      34.852 -19.008 -21.090  0.00  0.00    +0.037 C 
ATOM     10  C   UNL     1      36.901 -17.883 -21.699  0.00  0.00    +0.000 C 
ATOM     11  C   UNL     1      35.502 -19.609 -20.012  0.00  0.00    +0.139 C 
ATOM     12  C   UNL     1      37.550 -18.483 -20.620  0.00  0.00    +0.003 C 
ATOM     13  C   UNL     1      36.851 -19.346 -19.777  0.00  0.00    +0.037 C 
BRANCH  11  14
ATOM     14  O   UNL     1      34.819 -20.451 -19.188  0.00  0.00    -0.471 OA
ATOM     15  C   UNL     1      33.398 -20.470 -19.312  0.00  0.00    +0.252 C 
ENDBRANCH  11  14
ENDBRANCH   5   8
ENDBRANCH   1   2
BRANCH   1  16
ATOM     16  C   UNL     1      33.183 -13.388 -23.646  0.00  0.00    +0.028 C 
BRANCH  16  21
ATOM     17  O   UNL     1      34.665 -14.647 -20.238  0.00  0.00    -0.274 OA
ATOM     18  N   UNL     1      32.630 -11.613 -22.066  0.00  0.00    -0.247 NA
ATOM     19  N   UNL     1      32.842 -13.175 -20.293  0.00  0.00    -0.231 N 
ATOM     20  N   UNL     1      31.112 -11.511 -20.336  0.00  0.00    -0.331 N 
ATOM     21  C   UNL     1      33.744 -12.272 -22.752  0.00  0.00    +0.096 C 
ATOM     22  C   UNL     1      34.756 -12.801 -21.743  0.00  0.00    +0.108 C 
ATOM     23  C   UNL     1      34.415 -11.213 -23.637  0.00  0.00    +0.025 C 
ATOM     24  C   UNL     1      34.091 -13.664 -20.701  0.00  0.00    +0.233 C 
ATOM     25  C   UNL     1      32.209 -12.088 -20.933  0.00  0.00    +0.183 C 
ATOM     26  C   UNL     1      32.193 -13.832 -19.160  0.00  0.00    +0.123 C 
ATOM     27  H   UNL     1      30.658 -10.752 -20.769  0.00  0.00    +0.145 HD
ATOM     28  H   UNL     1      30.780 -11.858 -19.477  0.00  0.00    +0.145 HD
ENDBRANCH  16  21
ENDBRANCH   1  16
TORSDOF 5
ENDMDL
MODEL 4
REMARK VINA RESULT:     -11.1      1.856      3.491
REMARK  Name = 16040323
REMARK  5 active torsions:
REMARK  status: ('A' for Active; 'I' for Inactive)
REMARK    1  A    between atoms: C_1  and  C_2
REMARK    2  A    between atoms: C_1  and  C_16
REMARK    3  A    between atoms: C_5  and  C_8
REMARK    4  A    between atoms: C_11  and  O_14
REMARK    5  A    between atoms: C_16  and  C_21
REMARK                            x       y       z     vdW  Elec       q    Type
REMARK                         _______ _______ _______ _____ _____    ______ ____
ROOT
ATOM      1  C   UNL     1      37.800 -22.614 -14.746  0.00  0.00    +0.028 C 
ENDROOT
BRANCH   1   2
ATOM      2  C   UNL     1      36.431 -22.566 -15.373  0.00  0.00    -0.022 C 
ATOM      3  C   UNL     1      36.229 -21.804 -16.514  0.00  0.00    -0.004 C 
ATOM      4  C   UNL     1      35.392 -23.286 -14.799  0.00  0.00    -0.004 C 
ATOM      5  C   UNL     1      34.960 -21.760 -17.095  0.00  0.00    -0.000 C 
ATOM      6  C   UNL     1      34.125 -23.242 -15.379  0.00  0.00    -0.000 C 
ATOM      7  C   UNL     1      33.909 -22.479 -16.527  0.00  0.00    -0.000 C 
BRANCH   5   8
ATOM      8  C   UNL     1      34.736 -20.969 -18.285  0.00  0.00    +0.003 C 
ATOM      9  C   UNL     1      35.813 -20.369 -18.937  0.00  0.00    +0.037 C 
ATOM     10  C   UNL     1      33.442 -20.809 -18.781  0.00  0.00    +0.000 C 
ATOM     11  C   UNL     1      35.596 -19.607 -20.085  0.00  0.00    +0.139 C 
ATOM     12  C   UNL     1      33.226 -20.046 -19.929  0.00  0.00    +0.003 C 
ATOM     13  C   UNL     1      34.303 -19.446 -20.581  0.00  0.00    +0.037 C 
BRANCH  11  14
ATOM     14  O   UNL     1      36.647 -19.020 -20.721  0.00  0.00    -0.471 OA
ATOM     15  C   UNL     1      36.409 -17.755 -21.336  0.00  0.00    +0.252 C 
ENDBRANCH  11  14
ENDBRANCH   5   8
ENDBRANCH   1   2
BRANCH   1  16
ATOM     16  C   UNL     1      38.343 -24.038 -14.718  0.00  0.00    +0.028 C 
BRANCH  16  21
ATOM     17  O   UNL     1      36.854 -26.667 -12.215  0.00  0.00    -0.274 OA
ATOM     18  N   UNL     1      38.959 -23.179 -12.519  0.00  0.00    -0.247 NA
ATOM     19  N   UNL     1      37.186 -24.438 -11.570  0.00  0.00    -0.231 N 
ATOM     20  N   UNL     1      37.713 -22.213 -10.840  0.00  0.00    -0.331 N 
ATOM     21  C   UNL     1      39.200 -24.271 -13.465  0.00  0.00    +0.096 C 
ATOM     22  C   UNL     1      38.908 -25.617 -12.814  0.00  0.00    +0.108 C 
ATOM     23  C   UNL     1      40.683 -24.207 -13.856  0.00  0.00    +0.025 C 
ATOM     24  C   UNL     1      37.532 -25.642 -12.200  0.00  0.00    +0.233 C 
ATOM     25  C   UNL     1      37.981 -23.276 -11.670  0.00  0.00    +0.183 C 
ATOM     26  C   UNL     1      35.951 -24.411 -10.788  0.00  0.00    +0.123 C 
ATOM     27  H   UNL     1      38.258 -21.394 -10.897  0.00  0.00    +0.145 HD
ATOM     28  H   UNL     1      36.975 -22.269 -10.191  0.00  0.00    +0.145 HD
ENDBRANCH  16  21
ENDBRANCH   1  16
TORSDOF 5
ENDMDL
MODEL 5
REMARK VINA RESULT:     -11.0      3.524      5.759
REMARK  Name = 16040323
REMARK  5 active torsions:
REMARK  status: ('A' for Active; 'I' for Inactive)
REMARK    1  A    between atoms: C_1  and  C_2
REMARK    2  A    between atoms: C_1  and  C_16
REMARK    3  A    between atoms: C_5  and  C_8
REMARK    4  A    between atoms: C_11  and  O_14
REMARK    5  A    between atoms: C_16  and  C_21
REMARK                            x       y       z     vdW  Elec       q    Type
REMARK                         _______ _______ _______ _____ _____    ______ ____
ROOT
ATOM      1  C   UNL     1      36.100 -23.126 -15.091  0.00  0.00    +0.028 C 
ENDROOT
BRANCH   1   2
ATOM      2  C   UNL     1      34.931 -22.661 -15.921  0.00  0.00    -0.022 C 
ATOM      3  C   UNL     1      33.640 -22.909 -15.480  0.00  0.00    -0.004 C 
ATOM      4  C   UNL     1      35.165 -21.991 -17.113  0.00  0.00    -0.004 C 
ATOM      5  C   UNL     1      32.558 -22.478 -16.248  0.00  0.00    -0.000 C 
ATOM      6  C   UNL     1      34.084 -21.560 -17.881  0.00  0.00    -0.000 C 
ATOM      7  C   UNL     1      32.779 -21.804 -17.448  0.00  0.00    -0.000 C 
BRANCH   5   8
ATOM      8  C   UNL     1      31.205 -22.731 -15.800  0.00  0.00    +0.003 C 
ATOM      9  C   UNL     1      30.180 -21.852 -16.146  0.00  0.00    +0.037 C 
ATOM     10  C   UNL     1      30.928 -23.854 -15.021  0.00  0.00    +0.000 C 
ATOM     11  C   UNL     1      28.876 -22.095 -15.715  0.00  0.00    +0.139 C 
ATOM     12  C   UNL     1      29.624 -24.097 -14.589  0.00  0.00    +0.003 C 
ATOM     13  C   UNL     1      28.598 -23.219 -14.937  0.00  0.00    +0.037 C 
BRANCH  11  14
ATOM     14  O   UNL     1      27.875 -21.237 -16.053  0.00  0.00    -0.471 OA
ATOM     15  C   UNL     1      26.553 -21.591 -15.649  0.00  0.00    +0.252 C 
ENDBRANCH  11  14
ENDBRANCH   5   8
ENDBRANCH   1   2
BRANCH   1  16
ATOM     16  C   UNL     1      36.062 -22.514 -13.696  0.00  0.00    +0.028 C 
BRANCH  16  21
ATOM     17  O   UNL     1      39.192 -22.537 -11.329  0.00  0.00    -0.274 OA
ATOM     18  N   UNL     1      36.436 -24.879 -13.227  0.00  0.00    -0.247 NA
ATOM     19  N   UNL     1      38.691 -24.380 -12.688  0.00  0.00    -0.231 N 
ATOM     20  N   UNL     1      38.072 -26.345 -13.920  0.00  0.00    -0.331 N 
ATOM     21  C   UNL     1      36.031 -23.610 -12.619  0.00  0.00    +0.096 C 
ATOM     22  C   UNL     1      36.928 -23.274 -11.434  0.00  0.00    +0.108 C 
ATOM     23  C   UNL     1      34.587 -23.787 -12.130  0.00  0.00    +0.025 C 
ATOM     24  C   UNL     1      38.385 -23.324 -11.818  0.00  0.00    +0.233 C 
ATOM     25  C   UNL     1      37.696 -25.190 -13.276  0.00  0.00    +0.183 C 
ATOM     26  C   UNL     1      40.101 -24.631 -12.981  0.00  0.00    +0.123 C 
ATOM     27  H   UNL     1      37.391 -26.922 -14.336  0.00  0.00    +0.145 HD
ATOM     28  H   UNL     1      39.024 -26.596 -13.966  0.00  0.00    +0.145 HD
ENDBRANCH  16  21
ENDBRANCH   1  16
TORSDOF 5
ENDMDL
MODEL 6
REMARK VINA RESULT:     -11.0      8.595     13.471
REMARK  Name = 16040323
REMARK  5 active torsions:
REMARK  status: ('A' for Active; 'I' for Inactive)
REMARK    1  A    between atoms: C_1  and  C_2
REMARK    2  A    between atoms: C_1  and  C_16
REMARK    3  A    between atoms: C_5  and  C_8
REMARK    4  A    between atoms: C_11  and  O_14
REMARK    5  A    between atoms: C_16  and  C_21
REMARK                            x       y       z     vdW  Elec       q    Type
REMARK                         _______ _______ _______ _____ _____    ______ ____
ROOT
ATOM      1  C   UNL     1      34.053  -8.772 -23.984  0.00  0.00    +0.028 C 
ENDROOT
BRANCH   1   2
ATOM      2  C   UNL     1      34.007 -10.250 -24.279  0.00  0.00    -0.022 C 
ATOM      3  C   UNL     1      34.260 -11.157 -23.260  0.00  0.00    -0.004 C 
ATOM      4  C   UNL     1      33.712 -10.680 -25.565  0.00  0.00    -0.004 C 
ATOM      5  C   UNL     1      34.217 -12.524 -23.534  0.00  0.00    -0.000 C 
ATOM      6  C   UNL     1      33.670 -12.046 -25.838  0.00  0.00    -0.000 C 
ATOM      7  C   UNL     1      33.922 -12.969 -24.822  0.00  0.00    -0.000 C 
BRANCH   5   8
ATOM      8  C   UNL     1      34.479 -13.481 -22.481  0.00  0.00    +0.003 C 
ATOM      9  C   UNL     1      35.086 -14.700 -22.781  0.00  0.00    +0.037 C 
ATOM     10  C   UNL     1      34.124 -13.184 -21.165  0.00  0.00    +0.000 C 
ATOM     11  C   UNL     1      35.340 -15.622 -21.765  0.00  0.00    +0.139 C 
ATOM     12  C   UNL     1      34.376 -14.107 -20.150  0.00  0.00    +0.003 C 
ATOM     13  C   UNL     1      34.984 -15.325 -20.450  0.00  0.00    +0.037 C 
BRANCH  11  14
ATOM     14  O   UNL     1      35.933 -16.812 -22.058  0.00  0.00    -0.471 OA
ATOM     15  C   UNL     1      36.048 -17.758 -20.996  0.00  0.00    +0.252 C 
ENDBRANCH  11  14
ENDBRANCH   5   8
ENDBRANCH   1   2
BRANCH   1  16
ATOM     16  C   UNL     1      33.829  -8.500 -22.501  0.00  0.00    +0.028 C 
BRANCH  16  21
ATOM     17  O   UNL     1      33.198  -7.201 -18.853  0.00  0.00    -0.274 OA
ATOM     18  N   UNL     1      31.536  -9.176 -22.019  0.00  0.00    -0.247 NA
ATOM     19  N   UNL     1      32.021  -9.044 -19.701  0.00  0.00    -0.231 N 
ATOM     20  N   UNL     1      30.669 -10.796 -20.628  0.00  0.00    -0.331 N 
ATOM     21  C   UNL     1      32.395  -8.012 -22.245  0.00  0.00    +0.096 C 
ATOM     22  C   UNL     1      32.319  -7.054 -21.063  0.00  0.00    +0.108 C 
ATOM     23  C   UNL     1      31.875  -7.308 -23.505  0.00  0.00    +0.025 C 
ATOM     24  C   UNL     1      32.592  -7.764 -19.762  0.00  0.00    +0.233 C 
ATOM     25  C   UNL     1      31.414  -9.656 -20.818  0.00  0.00    +0.183 C 
ATOM     26  C   UNL     1      32.070  -9.747 -18.420  0.00  0.00    +0.123 C 
ATOM     27  H   UNL     1      30.238 -11.237 -21.397  0.00  0.00    +0.145 HD
ATOM     28  H   UNL     1      30.567 -11.173 -19.725  0.00  0.00    +0.145 HD
ENDBRANCH  16  21
ENDBRANCH   1  16
TORSDOF 5
ENDMDL
MODEL 7
REMARK VINA RESULT:     -10.9      1.658      2.551
REMARK  Name = 16040323
REMARK  5 active torsions:
REMARK  status: ('A' for Active; 'I' for Inactive)
REMARK    1  A    between atoms: C_1  and  C_2
REMARK    2  A    between atoms: C_1  and  C_16
REMARK    3  A    between atoms: C_5  and  C_8
REMARK    4  A    between atoms: C_11  and  O_14
REMARK    5  A    between atoms: C_16  and  C_21
REMARK                            x       y       z     vdW  Elec       q    Type
REMARK                         _______ _______ _______ _____ _____    ______ ____
ROOT
ATOM      1  C   UNL     1      37.497 -21.454 -16.569  0.00  0.00    +0.028 C 
ENDROOT
BRANCH   1   2
ATOM      2  C   UNL     1      36.341 -21.213 -17.504  0.00  0.00    -0.022 C 
ATOM      3  C   UNL     1      36.496 -20.338 -18.570  0.00  0.00    -0.004 C 
ATOM      4  C   UNL     1      35.138 -21.869 -17.285  0.00  0.00    -0.004 C 
ATOM      5  C   UNL     1      35.425 -20.114 -19.436  0.00  0.00    -0.000 C 
ATOM      6  C   UNL     1      34.067 -21.645 -18.151  0.00  0.00    -0.000 C 
ATOM      7  C   UNL     1      34.211 -20.768 -19.226  0.00  0.00    -0.000 C 
BRANCH   5   8
ATOM      8  C   UNL     1      35.574 -19.205 -20.551  0.00  0.00    +0.003 C 
ATOM      9  C   UNL     1      34.553 -19.085 -21.494  0.00  0.00    +0.037 C 
ATOM     10  C   UNL     1      36.738 -18.448 -20.683  0.00  0.00    +0.000 C 
ATOM     11  C   UNL     1      34.696 -18.207 -22.569  0.00  0.00    +0.139 C 
ATOM     12  C   UNL     1      36.881 -17.571 -21.758  0.00  0.00    +0.003 C 
ATOM     13  C   UNL     1      35.860 -17.450 -22.700  0.00  0.00    +0.037 C 
BRANCH  11  14
ATOM     14  O   UNL     1      33.700 -18.089 -23.489  0.00  0.00    -0.471 OA
ATOM     15  C   UNL     1      34.044 -18.332 -24.852  0.00  0.00    +0.252 C 
ENDBRANCH  11  14
ENDBRANCH   5   8
ENDBRANCH   1   2
BRANCH   1  16
ATOM     16  C   UNL     1      37.013 -21.677 -15.141  0.00  0.00    +0.028 C 
BRANCH  16  21
ATOM     17  O   UNL     1      34.518 -24.474 -13.980  0.00  0.00    -0.274 OA
ATOM     18  N   UNL     1      38.047 -22.598 -13.133  0.00  0.00    -0.247 NA
ATOM     19  N   UNL     1      35.920 -23.391 -12.444  0.00  0.00    -0.231 N 
ATOM     20  N   UNL     1      37.492 -22.435 -10.903  0.00  0.00    -0.331 N 
ATOM     21  C   UNL     1      37.690 -22.908 -14.520  0.00  0.00    +0.096 C 
ATOM     22  C   UNL     1      36.800 -24.143 -14.580  0.00  0.00    +0.108 C 
ATOM     23  C   UNL     1      39.000 -23.187 -15.268  0.00  0.00    +0.025 C 
ATOM     24  C   UNL     1      35.611 -24.007 -13.665  0.00  0.00    +0.233 C 
ATOM     25  C   UNL     1      37.177 -22.803 -12.191  0.00  0.00    +0.183 C 
ATOM     26  C   UNL     1      34.884 -23.371 -11.413  0.00  0.00    +0.123 C 
ATOM     27  H   UNL     1      38.365 -22.022 -10.708  0.00  0.00    +0.145 HD
ATOM     28  H   UNL     1      36.844 -22.582 -10.176  0.00  0.00    +0.145 HD
ENDBRANCH  16  21
ENDBRANCH   1  16
TORSDOF 5
ENDMDL
MODEL 8
REMARK VINA RESULT:     -10.7      1.718      2.914
REMARK  Name = 16040323
REMARK  5 active torsions:
REMARK  status: ('A' for Active; 'I' for Inactive)
REMARK    1  A    between atoms: C_1  and  C_2
REMARK    2  A    between atoms: C_1  and  C_16
REMARK    3  A    between atoms: C_5  and  C_8
REMARK    4  A    between atoms: C_11  and  O_14
REMARK    5  A    between atoms: C_16  and  C_21
REMARK                            x       y       z     vdW  Elec       q    Type
REMARK                         _______ _______ _______ _____ _____    ______ ____
ROOT
ATOM      1  C   UNL     1      33.910 -21.646 -18.111  0.00  0.00    +0.028 C 
ENDROOT
BRANCH   1   2
ATOM      2  C   UNL     1      34.983 -20.813 -18.762  0.00  0.00    -0.022 C 
ATOM      3  C   UNL     1      34.654 -19.985 -19.825  0.00  0.00    -0.004 C 
ATOM      4  C   UNL     1      36.285 -20.887 -18.288  0.00  0.00    -0.004 C 
ATOM      5  C   UNL     1      35.648 -19.214 -20.428  0.00  0.00    -0.000 C 
ATOM      6  C   UNL     1      37.279 -20.117 -18.891  0.00  0.00    -0.000 C 
ATOM      7  C   UNL     1      36.960 -19.280 -19.961  0.00  0.00    -0.000 C 
BRANCH   5   8
ATOM      8  C   UNL     1      35.318 -18.346 -21.537  0.00  0.00    +0.003 C 
ATOM      9  C   UNL     1      35.636 -16.990 -21.480  0.00  0.00    +0.037 C 
ATOM     10  C   UNL     1      34.682 -18.867 -22.664  0.00  0.00    +0.000 C 
ATOM     11  C   UNL     1      35.319 -16.153 -22.550  0.00  0.00    +0.139 C 
ATOM     12  C   UNL     1      34.364 -18.029 -23.734  0.00  0.00    +0.003 C 
ATOM     13  C   UNL     1      34.683 -16.673 -23.677  0.00  0.00    +0.037 C 
BRANCH  11  14
ATOM     14  O   UNL     1      35.629 -14.828 -22.495  0.00  0.00    -0.471 OA
ATOM     15  C   UNL     1      34.553 -13.903 -22.639  0.00  0.00    +0.252 C 
ENDBRANCH  11  14
ENDBRANCH   5   8
ENDBRANCH   1   2
BRANCH   1  16
ATOM     16  C   UNL     1      34.508 -22.848 -17.389  0.00  0.00    +0.028 C 
BRANCH  16  21
ATOM     17  O   UNL     1      37.270 -21.299 -15.072  0.00  0.00    -0.274 OA
ATOM     18  N   UNL     1      34.369 -24.162 -15.338  0.00  0.00    -0.247 NA
ATOM     19  N   UNL     1      36.597 -23.531 -14.825  0.00  0.00    -0.231 N 
ATOM     20  N   UNL     1      35.770 -25.749 -14.430  0.00  0.00    -0.331 N 
ATOM     21  C   UNL     1      34.141 -22.828 -15.897  0.00  0.00    +0.096 C 
ATOM     22  C   UNL     1      34.937 -21.782 -15.126  0.00  0.00    +0.108 C 
ATOM     23  C   UNL     1      32.642 -22.532 -15.755  0.00  0.00    +0.025 C 
ATOM     24  C   UNL     1      36.393 -22.159 -15.034  0.00  0.00    +0.233 C 
ATOM     25  C   UNL     1      35.545 -24.469 -14.879  0.00  0.00    +0.183 C 
ATOM     26  C   UNL     1      37.959 -23.979 -14.541  0.00  0.00    +0.123 C 
ATOM     27  H   UNL     1      35.047 -26.417 -14.462  0.00  0.00    +0.145 HD
ATOM     28  H   UNL     1      36.656 -25.999 -14.079  0.00  0.00    +0.145 HD
ENDBRANCH  16  21
ENDBRANCH   1  16
TORSDOF 5
ENDMDL
MODEL 9
REMARK VINA RESULT:     -10.5      1.958      3.260
REMARK  Name = 16040323
REMARK  5 active torsions:
REMARK  status: ('A' for Active; 'I' for Inactive)
REMARK    1  A    between atoms: C_1  and  C_2
REMARK    2  A    between atoms: C_1  and  C_16
REMARK    3  A    between atoms: C_5  and  C_8
REMARK    4  A    between atoms: C_11  and  O_14
REMARK    5  A    between atoms: C_16  and  C_21
REMARK                            x       y       z     vdW  Elec       q    Type
REMARK                         _______ _______ _______ _____ _____    ______ ____
ROOT
ATOM      1  C   UNL     1      34.892 -23.767 -14.376  0.00  0.00    +0.028 C 
ENDROOT
BRANCH   1   2
ATOM      2  C   UNL     1      33.844 -23.132 -15.252  0.00  0.00    -0.022 C 
ATOM      3  C   UNL     1      34.236 -22.398 -16.362  0.00  0.00    -0.004 C 
ATOM      4  C   UNL     1      32.502 -23.291 -14.935  0.00  0.00    -0.004 C 
ATOM      5  C   UNL     1      33.265 -21.810 -17.174  0.00  0.00    -0.000 C 
ATOM      6  C   UNL     1      31.532 -22.703 -15.746  0.00  0.00    -0.000 C 
ATOM      7  C   UNL     1      31.913 -21.963 -16.866  0.00  0.00    -0.000 C 
BRANCH   5   8
ATOM      8  C   UNL     1      33.660 -21.043 -18.335  0.00  0.00    +0.003 C 
ATOM      9  C   UNL     1      35.011 -20.885 -18.640  0.00  0.00    +0.037 C 
ATOM     10  C   UNL     1      32.688 -20.462 -19.150  0.00  0.00    +0.000 C 
ATOM     11  C   UNL     1      35.392 -20.146 -19.760  0.00  0.00    +0.139 C 
ATOM     12  C   UNL     1      33.069 -19.722 -20.269  0.00  0.00    +0.003 C 
ATOM     13  C   UNL     1      34.420 -19.565 -20.575  0.00  0.00    +0.037 C 
BRANCH  11  14
ATOM     14  O   UNL     1      36.711 -19.991 -20.059  0.00  0.00    -0.471 OA
ATOM     15  C   UNL     1      37.176 -18.660 -20.271  0.00  0.00    +0.252 C 
ENDBRANCH  11  14
ENDBRANCH   5   8
ENDBRANCH   1   2
BRANCH   1  16
ATOM     16  C   UNL     1      36.204 -23.950 -15.131  0.00  0.00    +0.028 C 
BRANCH  16  21
ATOM     17  O   UNL     1      39.018 -26.277 -13.695  0.00  0.00    -0.274 OA
ATOM     18  N   UNL     1      36.912 -22.830 -13.083  0.00  0.00    -0.247 NA
ATOM     19  N   UNL     1      37.751 -24.900 -12.283  0.00  0.00    -0.231 N 
ATOM     20  N   UNL     1      36.600 -23.347 -10.860  0.00  0.00    -0.331 N 
ATOM     21  C   UNL     1      37.347 -23.199 -14.432  0.00  0.00    +0.096 C 
ATOM     22  C   UNL     1      38.625 -24.027 -14.375  0.00  0.00    +0.108 C 
ATOM     23  C   UNL     1      37.621 -21.892 -15.188  0.00  0.00    +0.025 C 
ATOM     24  C   UNL     1      38.475 -25.203 -13.444  0.00  0.00    +0.233 C 
ATOM     25  C   UNL     1      37.084 -23.669 -12.107  0.00  0.00    +0.183 C 
ATOM     26  C   UNL     1      37.700 -25.914 -11.231  0.00  0.00    +0.123 C 
ATOM     27  H   UNL     1      36.132 -22.492 -10.719  0.00  0.00    +0.145 HD
ATOM     28  H   UNL     1      36.722 -23.971 -10.108  0.00  0.00    +0.145 HD
ENDBRANCH  16  21
ENDBRANCH   1  16
TORSDOF 5
ENDMDL
