MODEL 1
REMARK VINA RESULT:     -13.2      0.000      0.000
REMARK  Name = 24779676
REMARK  4 active torsions:
REMARK  status: ('A' for Active; 'I' for Inactive)
REMARK    1  A    between atoms: N_2  and  C_22
REMARK    2  A    between atoms: N_3  and  C_14
REMARK    3  A    between atoms: C_10  and  C_21
REMARK    4  A    between atoms: C_22  and  C_24
REMARK                            x       y       z     vdW  Elec       q    Type
REMARK                         _______ _______ _______ _____ _____    ______ ____
ROOT
ATOM      1  N   UNL     1      32.596 -23.788 -13.665  0.00  0.00    -0.123 N 
ATOM      2  N   UNL     1      34.387 -22.227 -16.887  0.00  0.00    -0.254 N 
ATOM      3  N   UNL     1      34.640 -23.977 -12.499  0.00  0.00    -0.274 N 
ATOM      4  N   UNL     1      34.520 -23.100 -14.697  0.00  0.00    -0.295 NA
ATOM      5  N   UNL     1      32.433 -22.924 -15.847  0.00  0.00    -0.314 NA
ATOM      6  N   UNL     1      31.891 -24.302 -12.642  0.00  0.00    -0.170 NA
ATOM      7  C   UNL     1      33.970 -23.608 -13.633  0.00  0.00    +0.279 C 
ATOM      8  C   UNL     1      31.842 -23.452 -14.752  0.00  0.00    +0.219 C 
ATOM      9  C   UNL     1      33.737 -22.762 -15.800  0.00  0.00    +0.203 C 
ATOM     10  C   UNL     1      30.547 -23.771 -14.414  0.00  0.00    +0.203 C 
ATOM     11  C   UNL     1      30.638 -24.289 -13.106  0.00  0.00    +0.116 C 
ATOM     12  H   UNL     1      35.363 -22.107 -16.848  0.00  0.00    +0.161 HD
ATOM     13  H   UNL     1      34.097 -24.350 -11.768  0.00  0.00    +0.156 HD
ENDROOT
BRANCH   3  14
ATOM     14  C   UNL     1      36.014 -23.882 -12.268  0.00  0.00    +0.051 C 
ATOM     15  C   UNL     1      36.534 -22.769 -11.607  0.00  0.00    +0.015 C 
ATOM     16  C   UNL     1      36.865 -24.899 -12.699  0.00  0.00    +0.015 C 
ATOM     17  C   UNL     1      37.907 -22.675 -11.376  0.00  0.00    +0.001 C 
ATOM     18  C   UNL     1      38.238 -24.805 -12.467  0.00  0.00    +0.001 C 
ATOM     19  C   UNL     1      38.758 -23.693 -11.806  0.00  0.00    +0.000 C 
ENDBRANCH   3  14
BRANCH  10  21
ATOM     20  N   UNL     1      28.446 -23.469 -15.883  0.00  0.00    -0.195 NA
ATOM     21  C   UNL     1      29.391 -23.605 -15.222  0.00  0.00    +0.087 C 
ENDBRANCH  10  21
BRANCH   2  22
ATOM     22  C   UNL     1      33.690 -21.841 -18.074  0.00  0.00    +0.125 C 
BRANCH  22  24
ATOM     23 CL   UNL     1      36.979 -17.954 -21.275  0.00  0.00    -0.082 Cl
ATOM     24  C   UNL     1      34.512 -20.870 -18.874  0.00  0.00    -0.002 C 
ATOM     25  C   UNL     1      33.884 -19.955 -19.720  0.00  0.00    -0.002 C 
ATOM     26  C   UNL     1      35.904 -20.882 -18.771  0.00  0.00    -0.002 C 
ATOM     27  C   UNL     1      34.647 -19.054 -20.462  0.00  0.00    +0.011 C 
ATOM     28  C   UNL     1      36.666 -19.980 -19.513  0.00  0.00    +0.011 C 
ATOM     29  C   UNL     1      36.037 -19.066 -20.358  0.00  0.00    +0.058 C 
ENDBRANCH  22  24
ENDBRANCH   2  22
TORSDOF 4
ENDMDL
MODEL 2
REMARK VINA RESULT:     -11.6      1.485      5.434
REMARK  Name = 24779676
REMARK  4 active torsions:
REMARK  status: ('A' for Active; 'I' for Inactive)
REMARK    1  A    between atoms: N_2  and  C_22
REMARK    2  A    between atoms: N_3  and  C_14
REMARK    3  A    between atoms: C_10  and  C_21
REMARK    4  A    between atoms: C_22  and  C_24
REMARK                            x       y       z     vdW  Elec       q    Type
REMARK                         _______ _______ _______ _____ _____    ______ ____
ROOT
ATOM      1  N   UNL     1      33.997 -23.277 -13.869  0.00  0.00    -0.123 N 
ATOM      2  N   UNL     1      34.503 -21.847 -17.573  0.00  0.00    -0.254 N 
ATOM      3  N   UNL     1      31.646 -23.278 -14.086  0.00  0.00    -0.274 N 
ATOM      4  N   UNL     1      33.072 -22.560 -15.836  0.00  0.00    -0.295 NA
ATOM      5  N   UNL     1      35.447 -22.571 -15.581  0.00  0.00    -0.314 NA
ATOM      6  N   UNL     1      33.946 -23.758 -12.614  0.00  0.00    -0.170 NA
ATOM      7  C   UNL     1      32.871 -23.025 -14.637  0.00  0.00    +0.279 C 
ATOM      8  C   UNL     1      35.261 -23.054 -14.333  0.00  0.00    +0.219 C 
ATOM      9  C   UNL     1      34.369 -22.337 -16.296  0.00  0.00    +0.203 C 
ATOM     10  C   UNL     1      36.099 -23.415 -13.302  0.00  0.00    +0.203 C 
ATOM     11  C   UNL     1      35.235 -23.840 -12.273  0.00  0.00    +0.116 C 
ATOM     12  H   UNL     1      33.693 -21.673 -18.106  0.00  0.00    +0.161 HD
ATOM     13  H   UNL     1      31.641 -23.630 -13.166  0.00  0.00    +0.156 HD
ENDROOT
BRANCH   3  14
ATOM     14  C   UNL     1      30.400 -23.091 -14.687  0.00  0.00    +0.051 C 
ATOM     15  C   UNL     1      29.714 -21.890 -14.511  0.00  0.00    +0.015 C 
ATOM     16  C   UNL     1      29.841 -24.107 -15.463  0.00  0.00    +0.015 C 
ATOM     17  C   UNL     1      28.469 -21.704 -15.112  0.00  0.00    +0.001 C 
ATOM     18  C   UNL     1      28.597 -23.920 -16.066  0.00  0.00    +0.001 C 
ATOM     19  C   UNL     1      27.910 -22.718 -15.889  0.00  0.00    +0.000 C 
ENDBRANCH   3  14
BRANCH  10  21
ATOM     20  N   UNL     1      38.679 -23.320 -13.303  0.00  0.00    -0.195 NA
ATOM     21  C   UNL     1      37.519 -23.363 -13.302  0.00  0.00    +0.087 C 
ENDBRANCH  10  21
BRANCH   2  22
ATOM     22  C   UNL     1      35.782 -21.580 -18.153  0.00  0.00    +0.125 C 
BRANCH  22  24
ATOM     23 CL   UNL     1      35.407 -17.042 -22.082  0.00  0.00    -0.082 Cl
ATOM     24  C   UNL     1      35.688 -20.446 -19.136  0.00  0.00    -0.002 C 
ATOM     25  C   UNL     1      34.456 -20.108 -19.696  0.00  0.00    -0.002 C 
ATOM     26  C   UNL     1      36.833 -19.731 -19.487  0.00  0.00    -0.002 C 
ATOM     27  C   UNL     1      34.369 -19.055 -20.607  0.00  0.00    +0.011 C 
ATOM     28  C   UNL     1      36.746 -18.678 -20.398  0.00  0.00    +0.011 C 
ATOM     29  C   UNL     1      35.514 -18.341 -20.958  0.00  0.00    +0.058 C 
ENDBRANCH  22  24
ENDBRANCH   2  22
TORSDOF 4
ENDMDL
MODEL 3
REMARK VINA RESULT:     -11.3      1.872      5.434
REMARK  Name = 24779676
REMARK  4 active torsions:
REMARK  status: ('A' for Active; 'I' for Inactive)
REMARK    1  A    between atoms: N_2  and  C_22
REMARK    2  A    between atoms: N_3  and  C_14
REMARK    3  A    between atoms: C_10  and  C_21
REMARK    4  A    between atoms: C_22  and  C_24
REMARK                            x       y       z     vdW  Elec       q    Type
REMARK                         _______ _______ _______ _____ _____    ______ ____
ROOT
ATOM      1  N   UNL     1      35.998 -23.976 -13.718  0.00  0.00    -0.123 N 
ATOM      2  N   UNL     1      35.711 -21.596 -16.924  0.00  0.00    -0.254 N 
ATOM      3  N   UNL     1      33.657 -24.010 -13.412  0.00  0.00    -0.274 N 
ATOM      4  N   UNL     1      34.680 -22.799 -15.173  0.00  0.00    -0.295 NA
ATOM      5  N   UNL     1      37.053 -22.786 -15.451  0.00  0.00    -0.314 NA
ATOM      6  N   UNL     1      36.212 -24.774 -12.658  0.00  0.00    -0.170 NA
ATOM      7  C   UNL     1      34.737 -23.573 -14.128  0.00  0.00    +0.279 C 
ATOM      8  C   UNL     1      37.134 -23.590 -14.368  0.00  0.00    +0.219 C 
ATOM      9  C   UNL     1      35.849 -22.412 -15.826  0.00  0.00    +0.203 C 
ATOM     10  C   UNL     1      38.170 -24.179 -13.679  0.00  0.00    +0.203 C 
ATOM     11  C   UNL     1      37.543 -24.895 -12.639  0.00  0.00    +0.116 C 
ATOM     12  H   UNL     1      34.808 -21.318 -17.201  0.00  0.00    +0.161 HD
ATOM     13  H   UNL     1      33.846 -24.593 -12.642  0.00  0.00    +0.156 HD
ENDROOT
BRANCH   3  14
ATOM     14  C   UNL     1      32.314 -23.718 -13.657  0.00  0.00    +0.051 C 
ATOM     15  C   UNL     1      31.385 -24.753 -13.771  0.00  0.00    +0.015 C 
ATOM     16  C   UNL     1      31.901 -22.392 -13.788  0.00  0.00    +0.015 C 
ATOM     17  C   UNL     1      30.042 -24.460 -14.015  0.00  0.00    +0.001 C 
ATOM     18  C   UNL     1      30.559 -22.100 -14.030  0.00  0.00    +0.001 C 
ATOM     19  C   UNL     1      29.630 -23.134 -14.145  0.00  0.00    +0.000 C 
ENDBRANCH   3  14
BRANCH  10  21
ATOM     20  N   UNL     1      40.688 -23.989 -14.213  0.00  0.00    -0.195 NA
ATOM     21  C   UNL     1      39.555 -24.074 -13.973  0.00  0.00    +0.087 C 
ENDBRANCH  10  21
BRANCH   2  22
ATOM     22  C   UNL     1      36.836 -21.135 -17.674  0.00  0.00    +0.125 C 
BRANCH  22  24
ATOM     23 CL   UNL     1      35.036 -17.795 -22.340  0.00  0.00    -0.082 Cl
ATOM     24  C   UNL     1      36.386 -20.302 -18.841  0.00  0.00    -0.002 C 
ATOM     25  C   UNL     1      35.066 -20.379 -19.287  0.00  0.00    -0.002 C 
ATOM     26  C   UNL     1      37.288 -19.447 -19.477  0.00  0.00    -0.002 C 
ATOM     27  C   UNL     1      34.650 -19.604 -20.369  0.00  0.00    +0.011 C 
ATOM     28  C   UNL     1      36.870 -18.673 -20.559  0.00  0.00    +0.011 C 
ATOM     29  C   UNL     1      35.551 -18.751 -21.005  0.00  0.00    +0.058 C 
ENDBRANCH  22  24
ENDBRANCH   2  22
TORSDOF 4
ENDMDL
MODEL 4
REMARK VINA RESULT:     -10.4      3.100      7.639
REMARK  Name = 24779676
REMARK  4 active torsions:
REMARK  status: ('A' for Active; 'I' for Inactive)
REMARK    1  A    between atoms: N_2  and  C_22
REMARK    2  A    between atoms: N_3  and  C_14
REMARK    3  A    between atoms: C_10  and  C_21
REMARK    4  A    between atoms: C_22  and  C_24
REMARK                            x       y       z     vdW  Elec       q    Type
REMARK                         _______ _______ _______ _____ _____    ______ ____
ROOT
ATOM      1  N   UNL     1      36.461 -22.034 -16.073  0.00  0.00    -0.123 N 
ATOM      2  N   UNL     1      32.512 -22.604 -16.385  0.00  0.00    -0.254 N 
ATOM      3  N   UNL     1      36.524 -20.711 -18.028  0.00  0.00    -0.274 N 
ATOM      4  N   UNL     1      34.511 -21.657 -17.210  0.00  0.00    -0.295 NA
ATOM      5  N   UNL     1      34.486 -22.992 -15.229  0.00  0.00    -0.314 NA
ATOM      6  N   UNL     1      37.785 -21.909 -15.869  0.00  0.00    -0.170 NA
ATOM      7  C   UNL     1      35.794 -21.451 -17.138  0.00  0.00    +0.279 C 
ATOM      8  C   UNL     1      35.819 -22.790 -15.136  0.00  0.00    +0.219 C 
ATOM      9  C   UNL     1      33.869 -22.431 -16.246  0.00  0.00    +0.203 C 
ATOM     10  C   UNL     1      36.797 -23.191 -14.254  0.00  0.00    +0.203 C 
ATOM     11  C   UNL     1      37.984 -22.619 -14.755  0.00  0.00    +0.116 C 
ATOM     12  H   UNL     1      32.053 -22.183 -17.148  0.00  0.00    +0.161 HD
ATOM     13  H   UNL     1      37.490 -20.638 -17.852  0.00  0.00    +0.156 HD
ENDROOT
BRANCH   3  14
ATOM     14  C   UNL     1      36.046 -20.049 -19.160  0.00  0.00    +0.051 C 
ATOM     15  C   UNL     1      34.719 -20.215 -19.557  0.00  0.00    +0.015 C 
ATOM     16  C   UNL     1      36.896 -19.221 -19.894  0.00  0.00    +0.015 C 
ATOM     17  C   UNL     1      34.242 -19.552 -20.688  0.00  0.00    +0.001 C 
ATOM     18  C   UNL     1      36.418 -18.558 -21.025  0.00  0.00    +0.001 C 
ATOM     19  C   UNL     1      35.091 -18.724 -21.422  0.00  0.00    +0.000 C 
ENDBRANCH   3  14
BRANCH  10  21
ATOM     20  N   UNL     1      36.478 -24.662 -12.157  0.00  0.00    -0.195 NA
ATOM     21  C   UNL     1      36.622 -24.001 -13.100  0.00  0.00    +0.087 C 
ENDBRANCH  10  21
BRANCH   2  22
ATOM     22  C   UNL     1      31.745 -23.377 -15.459  0.00  0.00    +0.125 C 
BRANCH  22  24
ATOM     23 CL   UNL     1      26.072 -21.392 -15.250  0.00  0.00    -0.082 Cl
ATOM     24  C   UNL     1      30.327 -22.881 -15.406  0.00  0.00    -0.002 C 
ATOM     25  C   UNL     1      29.915 -22.054 -14.360  0.00  0.00    -0.002 C 
ATOM     26  C   UNL     1      29.423 -23.246 -16.404  0.00  0.00    -0.002 C 
ATOM     27  C   UNL     1      28.599 -21.594 -14.313  0.00  0.00    +0.011 C 
ATOM     28  C   UNL     1      28.107 -22.785 -16.356  0.00  0.00    +0.011 C 
ATOM     29  C   UNL     1      27.696 -21.960 -15.310  0.00  0.00    +0.058 C 
ENDBRANCH  22  24
ENDBRANCH   2  22
TORSDOF 4
ENDMDL
