MODEL 1
REMARK VINA RESULT:     -12.9      0.000      0.000
REMARK  Name = 5287739
REMARK  3 active torsions:
REMARK  status: ('A' for Active; 'I' for Inactive)
REMARK    1  A    between atoms: C_2  and  O_21
REMARK    2  A    between atoms: C_3  and  O_23
REMARK    3  A    between atoms: C_4  and  O_25
REMARK                            x       y       z     vdW  Elec       q    Type
REMARK                         _______ _______ _______ _____ _____    ______ ____
ROOT
ATOM      1  C   UNL     1      35.813 -23.163 -13.121  0.00  0.00    -0.021 C 
ATOM      2  C   UNL     1      37.433 -24.221 -10.933  0.00  0.00    +0.168 C 
ATOM      3  C   UNL     1      38.081 -23.248 -11.919  0.00  0.00    +0.162 C 
ATOM      4  C   UNL     1      35.997 -23.790 -10.644  0.00  0.00    +0.144 C 
ATOM      5  C   UNL     1      35.149 -23.802 -11.915  0.00  0.00    +0.058 C 
ATOM      6  C   UNL     1      37.203 -22.917 -13.109  0.00  0.00    +0.003 C 
ATOM      7  C   UNL     1      35.047 -22.852 -14.285  0.00  0.00    -0.004 C 
ATOM      8  C   UNL     1      35.688 -22.257 -15.402  0.00  0.00    -0.000 C 
ATOM      9  C   UNL     1      37.074 -21.989 -15.365  0.00  0.00    -0.000 C 
ATOM     10  C   UNL     1      37.811 -22.324 -14.226  0.00  0.00    -0.002 C 
ATOM     11  C   UNL     1      34.952 -21.925 -16.574  0.00  0.00    -0.000 C 
ATOM     12  C   UNL     1      33.663 -23.110 -14.397  0.00  0.00    -0.000 C 
ATOM     13  C   UNL     1      33.567 -22.193 -16.642  0.00  0.00    -0.000 C 
ATOM     14  C   UNL     1      35.600 -21.327 -17.681  0.00  0.00    -0.000 C 
ATOM     15  C   UNL     1      37.700 -21.398 -16.470  0.00  0.00    -0.000 C 
ATOM     16  C   UNL     1      32.938 -22.787 -15.547  0.00  0.00    -0.000 C 
ATOM     17  C   UNL     1      36.973 -21.069 -17.613  0.00  0.00    -0.000 C 
ATOM     18  C   UNL     1      32.851 -21.861 -17.800  0.00  0.00    -0.000 C 
ATOM     19  C   UNL     1      34.859 -21.006 -18.828  0.00  0.00    -0.000 C 
ATOM     20  C   UNL     1      33.493 -21.271 -18.886  0.00  0.00    +0.000 C 
ENDROOT
BRANCH   2  21
ATOM     21  O   UNL     1      37.438 -25.538 -11.482  0.00  0.00    -0.379 OA
ATOM     22  H   UNL     1      37.060 -26.157 -10.839  0.00  0.00    +0.211 HD
ENDBRANCH   2  21
BRANCH   3  23
ATOM     23  O   UNL     1      38.378 -22.022 -11.253  0.00  0.00    -0.377 OA
ATOM     24  H   UNL     1      37.678 -21.377 -11.437  0.00  0.00    +0.211 HD
ENDBRANCH   3  23
BRANCH   4  25
ATOM     25  O   UNL     1      35.404 -24.668  -9.693  0.00  0.00    -0.382 OA
ATOM     26  H   UNL     1      34.438 -24.615  -9.761  0.00  0.00    +0.210 HD
ENDBRANCH   4  25
TORSDOF 3
ENDMDL
MODEL 2
REMARK VINA RESULT:     -11.8      0.890      3.138
REMARK  Name = 5287739
REMARK  3 active torsions:
REMARK  status: ('A' for Active; 'I' for Inactive)
REMARK    1  A    between atoms: C_2  and  O_21
REMARK    2  A    between atoms: C_3  and  O_23
REMARK    3  A    between atoms: C_4  and  O_25
REMARK                            x       y       z     vdW  Elec       q    Type
REMARK                         _______ _______ _______ _____ _____    ______ ____
ROOT
ATOM      1  C   UNL     1      36.775 -22.633 -13.547  0.00  0.00    -0.021 C 
ATOM      2  C   UNL     1      37.276 -23.114 -10.710  0.00  0.00    +0.168 C 
ATOM      3  C   UNL     1      35.977 -23.640 -11.323  0.00  0.00    +0.162 C 
ATOM      4  C   UNL     1      38.425 -23.285 -11.700  0.00  0.00    +0.144 C 
ATOM      5  C   UNL     1      38.176 -22.491 -12.981  0.00  0.00    +0.058 C 
ATOM      6  C   UNL     1      35.745 -23.169 -12.745  0.00  0.00    +0.003 C 
ATOM      7  C   UNL     1      36.484 -22.183 -14.870  0.00  0.00    -0.004 C 
ATOM      8  C   UNL     1      35.166 -22.324 -15.379  0.00  0.00    -0.000 C 
ATOM      9  C   UNL     1      34.153 -22.890 -14.576  0.00  0.00    -0.000 C 
ATOM     10  C   UNL     1      34.452 -23.301 -13.274  0.00  0.00    -0.002 C 
ATOM     11  C   UNL     1      34.844 -21.896 -16.697  0.00  0.00    -0.000 C 
ATOM     12  C   UNL     1      37.444 -21.592 -15.720  0.00  0.00    -0.000 C 
ATOM     13  C   UNL     1      35.837 -21.316 -17.517  0.00  0.00    -0.000 C 
ATOM     14  C   UNL     1      33.528 -22.044 -17.198  0.00  0.00    -0.000 C 
ATOM     15  C   UNL     1      32.855 -23.029 -15.086  0.00  0.00    -0.000 C 
ATOM     16  C   UNL     1      37.130 -21.169 -17.014  0.00  0.00    -0.000 C 
ATOM     17  C   UNL     1      32.546 -22.614 -16.381  0.00  0.00    -0.000 C 
ATOM     18  C   UNL     1      35.510 -20.898 -18.815  0.00  0.00    -0.000 C 
ATOM     19  C   UNL     1      33.228 -21.618 -18.500  0.00  0.00    -0.000 C 
ATOM     20  C   UNL     1      34.214 -21.049 -19.303  0.00  0.00    +0.000 C 
ENDROOT
BRANCH   2  21
ATOM     21  O   UNL     1      37.128 -21.733 -10.379  0.00  0.00    -0.379 OA
ATOM     22  H   UNL     1      36.717 -21.653  -9.505  0.00  0.00    +0.211 HD
ENDBRANCH   2  21
BRANCH   3  23
ATOM     23  O   UNL     1      36.003 -25.066 -11.343  0.00  0.00    -0.377 OA
ATOM     24  H   UNL     1      35.102 -25.404 -11.464  0.00  0.00    +0.211 HD
ENDBRANCH   3  23
BRANCH   4  25
ATOM     25  O   UNL     1      39.645 -22.836 -11.117  0.00  0.00    -0.382 OA
ATOM     26  H   UNL     1      39.998 -23.526 -10.533  0.00  0.00    +0.210 HD
ENDBRANCH   4  25
TORSDOF 3
ENDMDL
MODEL 3
REMARK VINA RESULT:     -11.1      1.295      3.355
REMARK  Name = 5287739
REMARK  3 active torsions:
REMARK  status: ('A' for Active; 'I' for Inactive)
REMARK    1  A    between atoms: C_2  and  O_21
REMARK    2  A    between atoms: C_3  and  O_23
REMARK    3  A    between atoms: C_4  and  O_25
REMARK                            x       y       z     vdW  Elec       q    Type
REMARK                         _______ _______ _______ _____ _____    ______ ____
ROOT
ATOM      1  C   UNL     1      37.118 -23.152 -14.647  0.00  0.00    -0.021 C 
ATOM      2  C   UNL     1      38.105 -24.205 -12.109  0.00  0.00    +0.168 C 
ATOM      3  C   UNL     1      36.680 -24.556 -12.542  0.00  0.00    +0.162 C 
ATOM      4  C   UNL     1      39.034 -24.213 -13.320  0.00  0.00    +0.144 C 
ATOM      5  C   UNL     1      38.607 -23.171 -14.352  0.00  0.00    +0.058 C 
ATOM      6  C   UNL     1      36.221 -23.804 -13.774  0.00  0.00    +0.003 C 
ATOM      7  C   UNL     1      36.617 -22.437 -15.777  0.00  0.00    -0.004 C 
ATOM      8  C   UNL     1      35.221 -22.431 -16.033  0.00  0.00    -0.000 C 
ATOM      9  C   UNL     1      34.338 -23.113 -15.168  0.00  0.00    -0.000 C 
ATOM     10  C   UNL     1      34.846 -23.785 -14.054  0.00  0.00    -0.002 C 
ATOM     11  C   UNL     1      34.689 -21.738 -17.156  0.00  0.00    -0.000 C 
ATOM     12  C   UNL     1      37.440 -21.720 -16.672  0.00  0.00    -0.000 C 
ATOM     13  C   UNL     1      35.549 -21.038 -18.031  0.00  0.00    -0.000 C 
ATOM     14  C   UNL     1      33.296 -21.740 -17.406  0.00  0.00    -0.000 C 
ATOM     15  C   UNL     1      32.961 -23.105 -15.429  0.00  0.00    -0.000 C 
ATOM     16  C   UNL     1      36.920 -21.036 -17.774  0.00  0.00    -0.000 C 
ATOM     17  C   UNL     1      32.446 -22.430 -16.535  0.00  0.00    -0.000 C 
ATOM     18  C   UNL     1      35.015 -20.359 -19.136  0.00  0.00    -0.000 C 
ATOM     19  C   UNL     1      32.788 -21.053 -18.519  0.00  0.00    -0.000 C 
ATOM     20  C   UNL     1      33.644 -20.368 -19.377  0.00  0.00    +0.000 C 
ENDROOT
BRANCH   2  21
ATOM     21  O   UNL     1      38.120 -22.915 -11.499  0.00  0.00    -0.379 OA
ATOM     22  H   UNL     1      38.665 -22.942 -10.699  0.00  0.00    +0.211 HD
ENDBRANCH   2  21
BRANCH   3  23
ATOM     23  O   UNL     1      36.602 -25.950 -12.837  0.00  0.00    -0.377 OA
ATOM     24  H   UNL     1      35.807 -26.124 -13.364  0.00  0.00    +0.211 HD
ENDBRANCH   3  23
BRANCH   4  25
ATOM     25  O   UNL     1      40.370 -23.929 -12.914  0.00  0.00    -0.382 OA
ATOM     26  H   UNL     1      40.988 -24.460 -13.441  0.00  0.00    +0.210 HD
ENDBRANCH   4  25
TORSDOF 3
ENDMDL
MODEL 4
REMARK VINA RESULT:     -11.0      1.056      1.406
REMARK  Name = 5287739
REMARK  3 active torsions:
REMARK  status: ('A' for Active; 'I' for Inactive)
REMARK    1  A    between atoms: C_2  and  O_21
REMARK    2  A    between atoms: C_3  and  O_23
REMARK    3  A    between atoms: C_4  and  O_25
REMARK                            x       y       z     vdW  Elec       q    Type
REMARK                         _______ _______ _______ _____ _____    ______ ____
ROOT
ATOM      1  C   UNL     1      35.383 -22.933 -14.419  0.00  0.00    -0.021 C 
ATOM      2  C   UNL     1      36.887 -24.350 -12.356  0.00  0.00    +0.168 C 
ATOM      3  C   UNL     1      37.635 -23.374 -13.267  0.00  0.00    +0.162 C 
ATOM      4  C   UNL     1      35.512 -23.787 -12.008  0.00  0.00    +0.144 C 
ATOM      5  C   UNL     1      34.659 -23.596 -13.260  0.00  0.00    +0.058 C 
ATOM      6  C   UNL     1      36.791 -22.847 -14.410  0.00  0.00    +0.003 C 
ATOM      7  C   UNL     1      34.648 -22.440 -15.539  0.00  0.00    -0.004 C 
ATOM      8  C   UNL     1      35.345 -21.827 -16.612  0.00  0.00    -0.000 C 
ATOM      9  C   UNL     1      36.752 -21.720 -16.576  0.00  0.00    -0.000 C 
ATOM     10  C   UNL     1      37.454 -22.231 -15.482  0.00  0.00    -0.002 C 
ATOM     11  C   UNL     1      34.643 -21.315 -17.740  0.00  0.00    -0.000 C 
ATOM     12  C   UNL     1      33.243 -22.530 -15.649  0.00  0.00    -0.000 C 
ATOM     13  C   UNL     1      33.236 -21.419 -17.807  0.00  0.00    -0.000 C 
ATOM     14  C   UNL     1      35.346 -20.700 -18.804  0.00  0.00    -0.000 C 
ATOM     15  C   UNL     1      37.433 -21.109 -17.638  0.00  0.00    -0.000 C 
ATOM     16  C   UNL     1      32.552 -22.031 -16.756  0.00  0.00    -0.000 C 
ATOM     17  C   UNL     1      36.739 -20.604 -18.737  0.00  0.00    -0.000 C 
ATOM     18  C   UNL     1      32.553 -20.911 -18.921  0.00  0.00    -0.000 C 
ATOM     19  C   UNL     1      34.638 -20.201 -19.907  0.00  0.00    -0.000 C 
ATOM     20  C   UNL     1      33.250 -20.305 -19.963  0.00  0.00    +0.000 C 
ENDROOT
BRANCH   2  21
ATOM     21  O   UNL     1      36.740 -25.608 -13.014  0.00  0.00    -0.379 OA
ATOM     22  H   UNL     1      36.676 -26.313 -12.352  0.00  0.00    +0.211 HD
ENDBRANCH   2  21
BRANCH   3  23
ATOM     23  O   UNL     1      38.073 -22.251 -12.504  0.00  0.00    -0.377 OA
ATOM     24  H   UNL     1      38.090 -22.488 -11.563  0.00  0.00    +0.211 HD
ENDBRANCH   3  23
BRANCH   4  25
ATOM     25  O   UNL     1      34.830 -24.673 -11.124  0.00  0.00    -0.382 OA
ATOM     26  H   UNL     1      34.109 -24.198 -10.683  0.00  0.00    +0.210 HD
ENDBRANCH   4  25
TORSDOF 3
ENDMDL
MODEL 5
REMARK VINA RESULT:     -10.8      1.520      3.763
REMARK  Name = 5287739
REMARK  3 active torsions:
REMARK  status: ('A' for Active; 'I' for Inactive)
REMARK    1  A    between atoms: C_2  and  O_21
REMARK    2  A    between atoms: C_3  and  O_23
REMARK    3  A    between atoms: C_4  and  O_25
REMARK                            x       y       z     vdW  Elec       q    Type
REMARK                         _______ _______ _______ _____ _____    ______ ____
ROOT
ATOM      1  C   UNL     1      36.590 -22.595 -15.510  0.00  0.00    -0.021 C 
ATOM      2  C   UNL     1      37.067 -23.794 -12.891  0.00  0.00    +0.168 C 
ATOM      3  C   UNL     1      35.705 -24.004 -13.555  0.00  0.00    +0.162 C 
ATOM      4  C   UNL     1      38.173 -23.856 -13.941  0.00  0.00    +0.144 C 
ATOM      5  C   UNL     1      38.006 -22.755 -14.987  0.00  0.00    +0.058 C 
ATOM      6  C   UNL     1      35.513 -23.184 -14.815  0.00  0.00    +0.003 C 
ATOM      7  C   UNL     1      36.339 -21.811 -16.677  0.00  0.00    -0.004 C 
ATOM      8  C   UNL     1      35.007 -21.672 -17.148  0.00  0.00    -0.000 C 
ATOM      9  C   UNL     1      33.942 -22.293 -16.459  0.00  0.00    -0.000 C 
ATOM     10  C   UNL     1      34.207 -23.034 -15.305  0.00  0.00    -0.002 C 
ATOM     11  C   UNL     1      34.722 -20.907 -18.313  0.00  0.00    -0.000 C 
ATOM     12  C   UNL     1      37.352 -21.149 -17.404  0.00  0.00    -0.000 C 
ATOM     13  C   UNL     1      35.766 -20.267 -19.015  0.00  0.00    -0.000 C 
ATOM     14  C   UNL     1      33.391 -20.778 -18.779  0.00  0.00    -0.000 C 
ATOM     15  C   UNL     1      32.630 -22.155 -16.932  0.00  0.00    -0.000 C 
ATOM     16  C   UNL     1      37.075 -20.395 -18.547  0.00  0.00    -0.000 C 
ATOM     17  C   UNL     1      32.358 -21.409 -18.078  0.00  0.00    -0.000 C 
ATOM     18  C   UNL     1      35.476 -19.516 -20.163  0.00  0.00    -0.000 C 
ATOM     19  C   UNL     1      33.128 -20.021 -19.930  0.00  0.00    -0.000 C 
ATOM     20  C   UNL     1      34.165 -19.395 -20.617  0.00  0.00    +0.000 C 
ENDROOT
BRANCH   2  21
ATOM     21  O   UNL     1      37.094 -22.525 -12.238  0.00  0.00    -0.379 OA
ATOM     22  H   UNL     1      37.811 -21.987 -12.607  0.00  0.00    +0.211 HD
ENDBRANCH   2  21
BRANCH   3  23
ATOM     23  O   UNL     1      35.556 -25.378 -13.912  0.00  0.00    -0.377 OA
ATOM     24  H   UNL     1      35.101 -25.849 -13.196  0.00  0.00    +0.211 HD
ENDBRANCH   3  23
BRANCH   4  25
ATOM     25  O   UNL     1      39.447 -23.704 -13.321  0.00  0.00    -0.382 OA
ATOM     26  H   UNL     1      39.668 -24.513 -12.834  0.00  0.00    +0.210 HD
ENDBRANCH   4  25
TORSDOF 3
ENDMDL
MODEL 6
REMARK VINA RESULT:     -10.8      2.918      4.787
REMARK  Name = 5287739
REMARK  3 active torsions:
REMARK  status: ('A' for Active; 'I' for Inactive)
REMARK    1  A    between atoms: C_2  and  O_21
REMARK    2  A    between atoms: C_3  and  O_23
REMARK    3  A    between atoms: C_4  and  O_25
REMARK                            x       y       z     vdW  Elec       q    Type
REMARK                         _______ _______ _______ _____ _____    ______ ____
ROOT
ATOM      1  C   UNL     1      32.010 -22.655 -15.631  0.00  0.00    -0.021 C 
ATOM      2  C   UNL     1      30.419 -24.252 -13.776  0.00  0.00    +0.168 C 
ATOM      3  C   UNL     1      31.841 -23.860 -13.370  0.00  0.00    +0.162 C 
ATOM      4  C   UNL     1      29.749 -23.095 -14.511  0.00  0.00    +0.144 C 
ATOM      5  C   UNL     1      30.504 -22.742 -15.793  0.00  0.00    +0.058 C 
ATOM      6  C   UNL     1      32.626 -23.198 -14.483  0.00  0.00    +0.003 C 
ATOM      7  C   UNL     1      32.811 -22.068 -16.657  0.00  0.00    -0.004 C 
ATOM      8  C   UNL     1      34.218 -21.998 -16.486  0.00  0.00    -0.000 C 
ATOM      9  C   UNL     1      34.819 -22.518 -15.320  0.00  0.00    -0.000 C 
ATOM     10  C   UNL     1      34.019 -23.111 -14.339  0.00  0.00    -0.002 C 
ATOM     11  C   UNL     1      35.045 -21.411 -17.484  0.00  0.00    -0.000 C 
ATOM     12  C   UNL     1      32.280 -21.545 -17.856  0.00  0.00    -0.000 C 
ATOM     13  C   UNL     1      34.472 -20.893 -18.667  0.00  0.00    -0.000 C 
ATOM     14  C   UNL     1      36.448 -21.341 -17.304  0.00  0.00    -0.000 C 
ATOM     15  C   UNL     1      36.208 -22.442 -15.156  0.00  0.00    -0.000 C 
ATOM     16  C   UNL     1      33.089 -20.970 -18.838  0.00  0.00    -0.000 C 
ATOM     17  C   UNL     1      37.013 -21.860 -16.134  0.00  0.00    -0.000 C 
ATOM     18  C   UNL     1      35.295 -20.314 -19.644  0.00  0.00    -0.000 C 
ATOM     19  C   UNL     1      37.248 -20.757 -18.297  0.00  0.00    -0.000 C 
ATOM     20  C   UNL     1      36.674 -20.247 -19.459  0.00  0.00    +0.000 C 
ENDROOT
BRANCH   2  21
ATOM     21  O   UNL     1      30.459 -25.401 -14.622  0.00  0.00    -0.379 OA
ATOM     22  H   UNL     1      29.756 -26.017 -14.363  0.00  0.00    +0.211 HD
ENDBRANCH   2  21
BRANCH   3  23
ATOM     23  O   UNL     1      31.788 -22.942 -12.278  0.00  0.00    -0.377 OA
ATOM     24  H   UNL     1      30.875 -22.876 -11.956  0.00  0.00    +0.211 HD
ENDBRANCH   3  23
BRANCH   4  25
ATOM     25  O   UNL     1      28.410 -23.440 -14.853  0.00  0.00    -0.382 OA
ATOM     26  H   UNL     1      27.795 -22.959 -14.278  0.00  0.00    +0.210 HD
ENDBRANCH   4  25
TORSDOF 3
ENDMDL
MODEL 7
REMARK VINA RESULT:     -10.6      1.338      3.654
REMARK  Name = 5287739
REMARK  3 active torsions:
REMARK  status: ('A' for Active; 'I' for Inactive)
REMARK    1  A    between atoms: C_2  and  O_21
REMARK    2  A    between atoms: C_3  and  O_23
REMARK    3  A    between atoms: C_4  and  O_25
REMARK                            x       y       z     vdW  Elec       q    Type
REMARK                         _______ _______ _______ _____ _____    ______ ____
ROOT
ATOM      1  C   UNL     1      36.670 -23.501 -13.527  0.00  0.00    -0.021 C 
ATOM      2  C   UNL     1      38.614 -23.927 -11.390  0.00  0.00    +0.168 C 
ATOM      3  C   UNL     1      37.156 -24.316 -11.141  0.00  0.00    +0.162 C 
ATOM      4  C   UNL     1      39.008 -24.275 -12.823  0.00  0.00    +0.144 C 
ATOM      5  C   UNL     1      38.157 -23.507 -13.833  0.00  0.00    +0.058 C 
ATOM      6  C   UNL     1      36.216 -23.877 -12.245  0.00  0.00    +0.003 C 
ATOM      7  C   UNL     1      35.734 -23.071 -14.516  0.00  0.00    -0.004 C 
ATOM      8  C   UNL     1      34.348 -23.071 -14.208  0.00  0.00    -0.000 C 
ATOM      9  C   UNL     1      33.905 -23.478 -12.931  0.00  0.00    -0.000 C 
ATOM     10  C   UNL     1      34.840 -23.871 -11.969  0.00  0.00    -0.002 C 
ATOM     11  C   UNL     1      33.387 -22.659 -15.172  0.00  0.00    -0.000 C 
ATOM     12  C   UNL     1      36.108 -22.634 -15.805  0.00  0.00    -0.000 C 
ATOM     13  C   UNL     1      33.804 -22.236 -16.454  0.00  0.00    -0.000 C 
ATOM     14  C   UNL     1      32.007 -22.667 -14.858  0.00  0.00    -0.000 C 
ATOM     15  C   UNL     1      32.536 -23.480 -12.635  0.00  0.00    -0.000 C 
ATOM     16  C   UNL     1      35.167 -22.227 -16.753  0.00  0.00    -0.000 C 
ATOM     17  C   UNL     1      31.598 -23.081 -13.586  0.00  0.00    -0.000 C 
ATOM     18  C   UNL     1      32.849 -21.833 -17.398  0.00  0.00    -0.000 C 
ATOM     19  C   UNL     1      31.073 -22.258 -15.822  0.00  0.00    -0.000 C 
ATOM     20  C   UNL     1      31.493 -21.845 -17.083  0.00  0.00    +0.000 C 
ENDROOT
BRANCH   2  21
ATOM     21  O   UNL     1      38.784 -22.527 -11.171  0.00  0.00    -0.379 OA
ATOM     22  H   UNL     1      38.527 -22.309 -10.262  0.00  0.00    +0.211 HD
ENDBRANCH   2  21
BRANCH   3  23
ATOM     23  O   UNL     1      37.054 -25.734 -11.030  0.00  0.00    -0.377 OA
ATOM     24  H   UNL     1      36.256 -25.962 -10.528  0.00  0.00    +0.211 HD
ENDBRANCH   3  23
BRANCH   4  25
ATOM     25  O   UNL     1      40.378 -23.954 -13.047  0.00  0.00    -0.382 OA
ATOM     26  H   UNL     1      40.516 -23.005 -12.905  0.00  0.00    +0.210 HD
ENDBRANCH   4  25
TORSDOF 3
ENDMDL
MODEL 8
REMARK VINA RESULT:     -10.4      1.942      3.362
REMARK  Name = 5287739
REMARK  3 active torsions:
REMARK  status: ('A' for Active; 'I' for Inactive)
REMARK    1  A    between atoms: C_2  and  O_21
REMARK    2  A    between atoms: C_3  and  O_23
REMARK    3  A    between atoms: C_4  and  O_25
REMARK                            x       y       z     vdW  Elec       q    Type
REMARK                         _______ _______ _______ _____ _____    ______ ____
ROOT
ATOM      1  C   UNL     1      35.257 -23.717 -13.507  0.00  0.00    -0.021 C 
ATOM      2  C   UNL     1      38.087 -24.424 -13.374  0.00  0.00    +0.168 C 
ATOM      3  C   UNL     1      37.622 -23.474 -14.479  0.00  0.00    +0.162 C 
ATOM      4  C   UNL     1      37.343 -24.119 -12.077  0.00  0.00    +0.144 C 
ATOM      5  C   UNL     1      35.838 -24.320 -12.241  0.00  0.00    +0.058 C 
ATOM      6  C   UNL     1      36.115 -23.332 -14.559  0.00  0.00    +0.003 C 
ATOM      7  C   UNL     1      33.844 -23.582 -13.657  0.00  0.00    -0.004 C 
ATOM      8  C   UNL     1      33.322 -23.017 -14.850  0.00  0.00    -0.000 C 
ATOM      9  C   UNL     1      34.193 -22.608 -15.882  0.00  0.00    -0.000 C 
ATOM     10  C   UNL     1      35.572 -22.773 -15.726  0.00  0.00    -0.002 C 
ATOM     11  C   UNL     1      31.919 -22.858 -15.029  0.00  0.00    -0.000 C 
ATOM     12  C   UNL     1      32.914 -23.986 -12.675  0.00  0.00    -0.000 C 
ATOM     13  C   UNL     1      31.024 -23.269 -14.017  0.00  0.00    -0.000 C 
ATOM     14  C   UNL     1      31.408 -22.290 -16.220  0.00  0.00    -0.000 C 
ATOM     15  C   UNL     1      33.672 -22.048 -17.056  0.00  0.00    -0.000 C 
ATOM     16  C   UNL     1      31.537 -23.833 -12.848  0.00  0.00    -0.000 C 
ATOM     17  C   UNL     1      32.296 -21.889 -17.223  0.00  0.00    -0.000 C 
ATOM     18  C   UNL     1      29.643 -23.107 -14.201  0.00  0.00    -0.000 C 
ATOM     19  C   UNL     1      30.022 -22.140 -16.379  0.00  0.00    -0.000 C 
ATOM     20  C   UNL     1      29.147 -22.546 -15.375  0.00  0.00    +0.000 C 
ENDROOT
BRANCH   2  21
ATOM     21  O   UNL     1      37.840 -25.775 -13.764  0.00  0.00    -0.379 OA
ATOM     22  H   UNL     1      36.900 -25.978 -13.643  0.00  0.00    +0.211 HD
ENDBRANCH   2  21
BRANCH   3  23
ATOM     23  O   UNL     1      38.162 -22.174 -14.248  0.00  0.00    -0.377 OA
ATOM     24  H   UNL     1      37.440 -21.552 -14.065  0.00  0.00    +0.211 HD
ENDBRANCH   3  23
BRANCH   4  25
ATOM     25  O   UNL     1      37.805 -24.972 -11.034  0.00  0.00    -0.382 OA
ATOM     26  H   UNL     1      38.669 -24.663 -10.720  0.00  0.00    +0.210 HD
ENDBRANCH   4  25
TORSDOF 3
ENDMDL
MODEL 9
REMARK VINA RESULT:     -10.0      2.021      4.298
REMARK  Name = 5287739
REMARK  3 active torsions:
REMARK  status: ('A' for Active; 'I' for Inactive)
REMARK    1  A    between atoms: C_2  and  O_21
REMARK    2  A    between atoms: C_3  and  O_23
REMARK    3  A    between atoms: C_4  and  O_25
REMARK                            x       y       z     vdW  Elec       q    Type
REMARK                         _______ _______ _______ _____ _____    ______ ____
ROOT
ATOM      1  C   UNL     1      34.287 -22.736 -14.999  0.00  0.00    -0.021 C 
ATOM      2  C   UNL     1      32.626 -23.634 -12.772  0.00  0.00    +0.168 C 
ATOM      3  C   UNL     1      31.983 -23.491 -14.153  0.00  0.00    +0.162 C 
ATOM      4  C   UNL     1      34.037 -24.197 -12.910  0.00  0.00    +0.144 C 
ATOM      5  C   UNL     1      34.928 -23.263 -13.728  0.00  0.00    +0.058 C 
ATOM      6  C   UNL     1      32.891 -22.843 -15.178  0.00  0.00    +0.003 C 
ATOM      7  C   UNL     1      35.084 -22.089 -15.993  0.00  0.00    -0.004 C 
ATOM      8  C   UNL     1      34.463 -21.601 -17.172  0.00  0.00    -0.000 C 
ATOM      9  C   UNL     1      33.070 -21.742 -17.352  0.00  0.00    -0.000 C 
ATOM     10  C   UNL     1      32.305 -22.355 -16.356  0.00  0.00    -0.002 C 
ATOM     11  C   UNL     1      35.228 -20.962 -18.187  0.00  0.00    -0.000 C 
ATOM     12  C   UNL     1      36.477 -21.899 -15.870  0.00  0.00    -0.000 C 
ATOM     13  C   UNL     1      36.622 -20.798 -18.028  0.00  0.00    -0.000 C 
ATOM     14  C   UNL     1      34.602 -20.482 -19.362  0.00  0.00    -0.000 C 
ATOM     15  C   UNL     1      32.465 -21.262 -18.520  0.00  0.00    -0.000 C 
ATOM     16  C   UNL     1      37.230 -21.269 -16.864  0.00  0.00    -0.000 C 
ATOM     17  C   UNL     1      33.221 -20.641 -19.515  0.00  0.00    -0.000 C 
ATOM     18  C   UNL     1      37.368 -20.167 -19.034  0.00  0.00    -0.000 C 
ATOM     19  C   UNL     1      35.372 -19.855 -20.353  0.00  0.00    -0.000 C 
ATOM     20  C   UNL     1      36.746 -19.700 -20.189  0.00  0.00    +0.000 C 
ENDROOT
BRANCH   2  21
ATOM     21  O   UNL     1      32.677 -22.360 -12.130  0.00  0.00    -0.379 OA
ATOM     22  H   UNL     1      33.104 -22.452 -11.264  0.00  0.00    +0.211 HD
ENDBRANCH   2  21
BRANCH   3  23
ATOM     23  O   UNL     1      31.629 -24.780 -14.649  0.00  0.00    -0.377 OA
ATOM     24  H   UNL     1      31.142 -25.266 -13.965  0.00  0.00    +0.211 HD
ENDBRANCH   3  23
BRANCH   4  25
ATOM     25  O   UNL     1      34.623 -24.373 -11.624  0.00  0.00    -0.382 OA
ATOM     26  H   UNL     1      33.970 -24.163 -10.939  0.00  0.00    +0.210 HD
ENDBRANCH   4  25
TORSDOF 3
ENDMDL
