MODEL 1
REMARK VINA RESULT:     -12.5      0.000      0.000
REMARK  Name = 10224181
REMARK  7 active torsions:
REMARK  status: ('A' for Active; 'I' for Inactive)
REMARK    1  A    between atoms: N_3  and  C_23
REMARK    2  A    between atoms: C_12  and  C_14
REMARK    3  A    between atoms: C_15  and  C_16
REMARK    4  A    between atoms: C_16  and  C_17
REMARK    5  A    between atoms: C_23  and  C_24
REMARK    6  A    between atoms: C_29  and  C_31
REMARK    7  A    between atoms: C_31  and  O_32
REMARK                            x       y       z     vdW  Elec       q    Type
REMARK                         _______ _______ _______ _____ _____    ______ ____
ROOT
ATOM      1  O   UNL     1      35.576 -15.795 -19.398  0.00  0.00    -0.267 OA
ATOM      2  O   UNL     1      36.071 -17.996 -23.461  0.00  0.00    -0.246 OA
ATOM      3  N   UNL     1      35.841 -16.922 -21.424  0.00  0.00    -0.244 N 
ATOM      4  N   UNL     1      34.832 -16.040 -23.400  0.00  0.00    -0.279 N 
ATOM      5  C   UNL     1      34.304 -14.949 -22.648  0.00  0.00    +0.069 A 
ATOM      6  C   UNL     1      34.556 -14.861 -21.277  0.00  0.00    +0.073 A 
ATOM      7  C   UNL     1      35.366 -15.890 -20.605  0.00  0.00    +0.266 A 
ATOM      8  C   UNL     1      35.611 -17.050 -22.813  0.00  0.00    +0.334 A 
ATOM      9  C   UNL     1      34.045 -13.794 -20.520  0.00  0.00    +0.014 C 
ATOM     10  C   UNL     1      33.525 -13.941 -23.244  0.00  0.00    +0.018 C 
ATOM     11  C   UNL     1      34.552 -16.108 -24.834  0.00  0.00    +0.135 C 
ATOM     12  C   UNL     1      33.276 -12.807 -21.128  0.00  0.00    +0.042 C 
ATOM     13  C   UNL     1      33.017 -12.880 -22.491  0.00  0.00    +0.010 C 
ENDROOT
BRANCH  12  14
ATOM     14  C   UNL     1      32.758 -11.723 -20.355  0.00  0.00    -0.064 C 
ATOM     15  C   UNL     1      32.319 -10.807 -19.707  0.00  0.00    -0.082 C 
BRANCH  15  16
ATOM     16  C   UNL     1      31.784  -9.690 -18.920  0.00  0.00    +0.103 C 
BRANCH  16  17
ATOM     17  C   UNL     1      32.082  -8.357 -19.557  0.00  0.00    -0.009 C 
ATOM     18  C   UNL     1      32.312  -7.252 -18.752  0.00  0.00    -0.003 C 
ATOM     19  C   UNL     1      32.123  -8.257 -20.940  0.00  0.00    -0.003 C 
ATOM     20  C   UNL     1      32.589  -6.019 -19.342  0.00  0.00    -0.000 C 
ATOM     21  C   UNL     1      32.400  -7.024 -21.531  0.00  0.00    -0.000 C 
ATOM     22  C   UNL     1      32.633  -5.905 -20.732  0.00  0.00    -0.000 C 
ENDBRANCH  16  17
ENDBRANCH  15  16
ENDBRANCH  12  14
BRANCH   3  23
ATOM     23  C   UNL     1      36.649 -17.958 -20.786  0.00  0.00    +0.140 C 
BRANCH  23  24
ATOM     24  C   UNL     1      35.796 -19.006 -20.123  0.00  0.00    +0.001 C 
ATOM     25  C   UNL     1      36.386 -19.928 -19.270  0.00  0.00    -0.002 C 
ATOM     26  C   UNL     1      34.431 -19.035 -20.373  0.00  0.00    -0.002 C 
ATOM     27  C   UNL     1      35.595 -20.899 -18.655  0.00  0.00    +0.006 C 
ATOM     28  C   UNL     1      33.640 -20.005 -19.758  0.00  0.00    +0.006 C 
ATOM     29  C   UNL     1      34.222 -20.938 -18.899  0.00  0.00    +0.075 C 
BRANCH  29  31
ATOM     30  O   UNL     1      32.343 -21.734 -17.651  0.00  0.00    -0.245 OA
ATOM     31  C   UNL     1      33.397 -21.950 -18.258  0.00  0.00    +0.338 C 
BRANCH  31  32
ATOM     32  O   UNL     1      33.912 -23.203 -18.391  0.00  0.00    -0.477 OA
ATOM     33  H   UNL     1      33.373 -23.899 -18.711  0.00  0.00    +0.295 HD
ENDBRANCH  31  32
ENDBRANCH  29  31
ENDBRANCH  23  24
ENDBRANCH   3  23
TORSDOF 7
ENDMDL
MODEL 2
REMARK VINA RESULT:     -12.0      5.487      9.525
REMARK  Name = 10224181
REMARK  7 active torsions:
REMARK  status: ('A' for Active; 'I' for Inactive)
REMARK    1  A    between atoms: N_3  and  C_23
REMARK    2  A    between atoms: C_12  and  C_14
REMARK    3  A    between atoms: C_15  and  C_16
REMARK    4  A    between atoms: C_16  and  C_17
REMARK    5  A    between atoms: C_23  and  C_24
REMARK    6  A    between atoms: C_29  and  C_31
REMARK    7  A    between atoms: C_31  and  O_32
REMARK                            x       y       z     vdW  Elec       q    Type
REMARK                         _______ _______ _______ _____ _____    ______ ____
ROOT
ATOM      1  O   UNL     1      32.684 -23.099 -16.473  0.00  0.00    -0.267 OA
ATOM      2  O   UNL     1      34.868 -23.966 -12.463  0.00  0.00    -0.246 OA
ATOM      3  N   UNL     1      33.756 -23.550 -14.450  0.00  0.00    -0.244 N 
ATOM      4  N   UNL     1      35.959 -22.708 -14.074  0.00  0.00    -0.279 N 
ATOM      5  C   UNL     1      35.953 -22.105 -15.367  0.00  0.00    +0.069 A 
ATOM      6  C   UNL     1      34.835 -22.236 -16.192  0.00  0.00    +0.073 A 
ATOM      7  C   UNL     1      33.659 -22.994 -15.732  0.00  0.00    +0.266 A 
ATOM      8  C   UNL     1      34.867 -23.442 -13.583  0.00  0.00    +0.334 A 
ATOM      9  C   UNL     1      34.809 -21.649 -17.467  0.00  0.00    +0.014 C 
ATOM     10  C   UNL     1      37.051 -21.371 -15.851  0.00  0.00    +0.018 C 
ATOM     11  C   UNL     1      37.144 -22.556 -13.230  0.00  0.00    +0.135 C 
ATOM     12  C   UNL     1      35.906 -20.927 -17.929  0.00  0.00    +0.042 C 
ATOM     13  C   UNL     1      37.026 -20.787 -17.120  0.00  0.00    +0.010 C 
ENDROOT
BRANCH  12  14
ATOM     14  C   UNL     1      35.878 -20.331 -19.227  0.00  0.00    -0.064 C 
ATOM     15  C   UNL     1      35.853 -19.825 -20.320  0.00  0.00    -0.082 C 
BRANCH  15  16
ATOM     16  C   UNL     1      35.820 -19.207 -21.650  0.00  0.00    +0.103 C 
BRANCH  16  17
ATOM     17  C   UNL     1      35.549 -17.726 -21.576  0.00  0.00    -0.009 C 
ATOM     18  C   UNL     1      35.454 -16.990 -22.748  0.00  0.00    -0.003 C 
ATOM     19  C   UNL     1      35.398 -17.121 -20.337  0.00  0.00    -0.003 C 
ATOM     20  C   UNL     1      35.203 -15.620 -22.680  0.00  0.00    -0.000 C 
ATOM     21  C   UNL     1      35.147 -15.751 -20.268  0.00  0.00    -0.000 C 
ATOM     22  C   UNL     1      35.050 -15.001 -21.439  0.00  0.00    -0.000 C 
ENDBRANCH  16  17
ENDBRANCH  15  16
ENDBRANCH  12  14
BRANCH   3  23
ATOM     23  C   UNL     1      32.606 -24.307 -13.965  0.00  0.00    +0.140 C 
BRANCH  23  24
ATOM     24  C   UNL     1      31.304 -23.662 -14.356  0.00  0.00    +0.001 C 
ATOM     25  C   UNL     1      30.363 -24.397 -15.065  0.00  0.00    -0.002 C 
ATOM     26  C   UNL     1      31.061 -22.342 -14.002  0.00  0.00    -0.002 C 
ATOM     27  C   UNL     1      29.156 -23.799 -15.427  0.00  0.00    +0.006 C 
ATOM     28  C   UNL     1      29.854 -21.744 -14.364  0.00  0.00    +0.006 C 
ATOM     29  C   UNL     1      28.901 -22.473 -15.077  0.00  0.00    +0.075 C 
BRANCH  29  31
ATOM     30  O   UNL     1      26.586 -21.926 -14.817  0.00  0.00    -0.245 OA
ATOM     31  C   UNL     1      27.642 -21.849 -15.454  0.00  0.00    +0.338 C 
BRANCH  31  32
ATOM     32  O   UNL     1      27.736 -21.147 -16.617  0.00  0.00    -0.477 OA
ATOM     33  H   UNL     1      28.493 -21.243 -17.161  0.00  0.00    +0.295 HD
ENDBRANCH  31  32
ENDBRANCH  29  31
ENDBRANCH  23  24
ENDBRANCH   3  23
TORSDOF 7
ENDMDL
MODEL 3
REMARK VINA RESULT:     -11.4      1.289      1.814
REMARK  Name = 10224181
REMARK  7 active torsions:
REMARK  status: ('A' for Active; 'I' for Inactive)
REMARK    1  A    between atoms: N_3  and  C_23
REMARK    2  A    between atoms: C_12  and  C_14
REMARK    3  A    between atoms: C_15  and  C_16
REMARK    4  A    between atoms: C_16  and  C_17
REMARK    5  A    between atoms: C_23  and  C_24
REMARK    6  A    between atoms: C_29  and  C_31
REMARK    7  A    between atoms: C_31  and  O_32
REMARK                            x       y       z     vdW  Elec       q    Type
REMARK                         _______ _______ _______ _____ _____    ______ ____
ROOT
ATOM      1  O   UNL     1      35.641 -15.390 -19.993  0.00  0.00    -0.267 OA
ATOM      2  O   UNL     1      35.938 -18.636 -23.305  0.00  0.00    -0.246 OA
ATOM      3  N   UNL     1      35.807 -17.037 -21.637  0.00  0.00    -0.244 N 
ATOM      4  N   UNL     1      34.784 -16.681 -23.765  0.00  0.00    -0.279 N 
ATOM      5  C   UNL     1      34.322 -15.403 -23.333  0.00  0.00    +0.069 A 
ATOM      6  C   UNL     1      34.612 -14.956 -22.043  0.00  0.00    +0.073 A 
ATOM      7  C   UNL     1      35.396 -15.800 -21.125  0.00  0.00    +0.266 A 
ATOM      8  C   UNL     1      35.536 -17.528 -22.934  0.00  0.00    +0.334 A 
ATOM      9  C   UNL     1      34.166 -13.701 -21.599  0.00  0.00    +0.014 C 
ATOM     10  C   UNL     1      33.570 -14.560 -24.172  0.00  0.00    +0.018 C 
ATOM     11  C   UNL     1      34.465 -17.125 -25.122  0.00  0.00    +0.135 C 
ATOM     12  C   UNL     1      33.424 -12.881 -22.444  0.00  0.00    +0.042 C 
ATOM     13  C   UNL     1      33.126 -13.311 -23.731  0.00  0.00    +0.010 C 
ENDROOT
BRANCH  12  14
ATOM     14  C   UNL     1      32.971 -11.605 -21.990  0.00  0.00    -0.064 C 
ATOM     15  C   UNL     1      32.587 -10.530 -21.605  0.00  0.00    -0.082 C 
BRANCH  15  16
ATOM     16  C   UNL     1      32.116  -9.222 -21.135  0.00  0.00    +0.103 C 
BRANCH  16  17
ATOM     17  C   UNL     1      32.462  -8.118 -22.101  0.00  0.00    -0.009 C 
ATOM     18  C   UNL     1      31.502  -7.173 -22.430  0.00  0.00    -0.003 C 
ATOM     19  C   UNL     1      33.737  -8.063 -22.646  0.00  0.00    -0.003 C 
ATOM     20  C   UNL     1      31.822  -6.151 -23.323  0.00  0.00    -0.000 C 
ATOM     21  C   UNL     1      34.057  -7.042 -23.540  0.00  0.00    -0.000 C 
ATOM     22  C   UNL     1      33.101  -6.085 -23.878  0.00  0.00    -0.000 C 
ENDBRANCH  16  17
ENDBRANCH  15  16
ENDBRANCH  12  14
BRANCH   3  23
ATOM     23  C   UNL     1      36.587 -17.897 -20.751  0.00  0.00    +0.140 C 
BRANCH  23  24
ATOM     24  C   UNL     1      35.734 -18.952 -20.099  0.00  0.00    +0.001 C 
ATOM     25  C   UNL     1      34.359 -18.935 -20.292  0.00  0.00    -0.002 C 
ATOM     26  C   UNL     1      36.333 -19.927 -19.313  0.00  0.00    -0.002 C 
ATOM     27  C   UNL     1      33.568 -19.912 -19.688  0.00  0.00    +0.006 C 
ATOM     28  C   UNL     1      35.542 -20.904 -18.709  0.00  0.00    +0.006 C 
ATOM     29  C   UNL     1      34.160 -20.897 -18.897  0.00  0.00    +0.075 C 
BRANCH  29  31
ATOM     30  O   UNL     1      32.267 -21.712 -17.682  0.00  0.00    -0.245 OA
ATOM     31  C   UNL     1      33.335 -21.917 -18.267  0.00  0.00    +0.338 C 
BRANCH  31  32
ATOM     32  O   UNL     1      33.869 -23.163 -18.384  0.00  0.00    -0.477 OA
ATOM     33  H   UNL     1      33.332 -23.877 -18.667  0.00  0.00    +0.295 HD
ENDBRANCH  31  32
ENDBRANCH  29  31
ENDBRANCH  23  24
ENDBRANCH   3  23
TORSDOF 7
ENDMDL
MODEL 4
REMARK VINA RESULT:     -11.1      1.207      1.912
REMARK  Name = 10224181
REMARK  7 active torsions:
REMARK  status: ('A' for Active; 'I' for Inactive)
REMARK    1  A    between atoms: N_3  and  C_23
REMARK    2  A    between atoms: C_12  and  C_14
REMARK    3  A    between atoms: C_15  and  C_16
REMARK    4  A    between atoms: C_16  and  C_17
REMARK    5  A    between atoms: C_23  and  C_24
REMARK    6  A    between atoms: C_29  and  C_31
REMARK    7  A    between atoms: C_31  and  O_32
REMARK                            x       y       z     vdW  Elec       q    Type
REMARK                         _______ _______ _______ _____ _____    ______ ____
ROOT
ATOM      1  O   UNL     1      36.066 -15.184 -20.825  0.00  0.00    -0.267 OA
ATOM      2  O   UNL     1      35.358 -19.159 -23.126  0.00  0.00    -0.246 OA
ATOM      3  N   UNL     1      35.727 -17.194 -21.959  0.00  0.00    -0.244 N 
ATOM      4  N   UNL     1      34.447 -17.205 -23.975  0.00  0.00    -0.279 N 
ATOM      5  C   UNL     1      34.252 -15.796 -23.863  0.00  0.00    +0.069 A 
ATOM      6  C   UNL     1      34.804 -15.100 -22.787  0.00  0.00    +0.073 A 
ATOM      7  C   UNL     1      35.588 -15.814 -21.765  0.00  0.00    +0.266 A 
ATOM      8  C   UNL     1      35.186 -17.938 -23.032  0.00  0.00    +0.334 A 
ATOM      9  C   UNL     1      34.623 -13.713 -22.659  0.00  0.00    +0.014 C 
ATOM     10  C   UNL     1      33.511 -15.069 -24.812  0.00  0.00    +0.018 C 
ATOM     11  C   UNL     1      33.857 -17.910 -25.112  0.00  0.00    +0.135 C 
ATOM     12  C   UNL     1      33.887 -13.012 -23.608  0.00  0.00    +0.042 C 
ATOM     13  C   UNL     1      33.331 -13.690 -24.685  0.00  0.00    +0.010 C 
ENDROOT
BRANCH  12  14
ATOM     14  C   UNL     1      33.704 -11.601 -23.476  0.00  0.00    -0.064 C 
ATOM     15  C   UNL     1      33.555 -10.411 -23.364  0.00  0.00    -0.082 C 
BRANCH  15  16
ATOM     16  C   UNL     1      33.375  -8.961 -23.225  0.00  0.00    +0.103 C 
BRANCH  16  17
ATOM     17  C   UNL     1      33.022  -8.570 -21.813  0.00  0.00    -0.009 C 
ATOM     18  C   UNL     1      33.474  -7.360 -21.307  0.00  0.00    -0.003 C 
ATOM     19  C   UNL     1      32.249  -9.425 -21.042  0.00  0.00    -0.003 C 
ATOM     20  C   UNL     1      33.146  -6.997 -20.001  0.00  0.00    -0.000 C 
ATOM     21  C   UNL     1      31.922  -9.063 -19.735  0.00  0.00    -0.000 C 
ATOM     22  C   UNL     1      32.370  -7.849 -19.215  0.00  0.00    -0.000 C 
ENDBRANCH  16  17
ENDBRANCH  15  16
ENDBRANCH  12  14
BRANCH   3  23
ATOM     23  C   UNL     1      36.500 -17.931 -20.963  0.00  0.00    +0.140 C 
BRANCH  23  24
ATOM     24  C   UNL     1      35.664 -18.960 -20.252  0.00  0.00    +0.001 C 
ATOM     25  C   UNL     1      36.289 -19.999 -19.575  0.00  0.00    -0.002 C 
ATOM     26  C   UNL     1      34.280 -18.857 -20.282  0.00  0.00    -0.002 C 
ATOM     27  C   UNL     1      35.514 -20.953 -18.915  0.00  0.00    +0.006 C 
ATOM     28  C   UNL     1      33.505 -19.811 -19.622  0.00  0.00    +0.006 C 
ATOM     29  C   UNL     1      34.122 -20.859 -18.939  0.00  0.00    +0.075 C 
BRANCH  29  31
ATOM     30  O   UNL     1      32.243 -21.632 -17.677  0.00  0.00    -0.245 OA
ATOM     31  C   UNL     1      33.314 -21.854 -18.251  0.00  0.00    +0.338 C 
BRANCH  31  32
ATOM     32  O   UNL     1      33.866 -23.097 -18.298  0.00  0.00    -0.477 OA
ATOM     33  H   UNL     1      34.691 -23.258 -17.885  0.00  0.00    +0.295 HD
ENDBRANCH  31  32
ENDBRANCH  29  31
ENDBRANCH  23  24
ENDBRANCH   3  23
TORSDOF 7
ENDMDL
MODEL 5
REMARK VINA RESULT:     -10.8      4.274     11.342
REMARK  Name = 10224181
REMARK  7 active torsions:
REMARK  status: ('A' for Active; 'I' for Inactive)
REMARK    1  A    between atoms: N_3  and  C_23
REMARK    2  A    between atoms: C_12  and  C_14
REMARK    3  A    between atoms: C_15  and  C_16
REMARK    4  A    between atoms: C_16  and  C_17
REMARK    5  A    between atoms: C_23  and  C_24
REMARK    6  A    between atoms: C_29  and  C_31
REMARK    7  A    between atoms: C_31  and  O_32
REMARK                            x       y       z     vdW  Elec       q    Type
REMARK                         _______ _______ _______ _____ _____    ______ ____
ROOT
ATOM      1  O   UNL     1      34.603 -11.451 -23.623  0.00  0.00    -0.267 OA
ATOM      2  O   UNL     1      31.214  -8.930 -21.683  0.00  0.00    -0.246 OA
ATOM      3  N   UNL     1      32.906 -10.164 -22.670  0.00  0.00    -0.244 N 
ATOM      4  N   UNL     1      31.751 -10.980 -20.747  0.00  0.00    -0.279 N 
ATOM      5  C   UNL     1      32.552 -12.160 -20.762  0.00  0.00    +0.069 A 
ATOM      6  C   UNL     1      33.529 -12.326 -21.745  0.00  0.00    +0.073 A 
ATOM      7  C   UNL     1      33.738 -11.286 -22.766  0.00  0.00    +0.266 A 
ATOM      8  C   UNL     1      31.905  -9.955 -21.694  0.00  0.00    +0.334 A 
ATOM      9  C   UNL     1      34.328 -13.481 -21.777  0.00  0.00    +0.014 C 
ATOM     10  C   UNL     1      32.391 -13.182 -19.809  0.00  0.00    +0.018 C 
ATOM     11  C   UNL     1      30.733 -10.833 -19.707  0.00  0.00    +0.135 C 
ATOM     12  C   UNL     1      34.153 -14.481 -20.825  0.00  0.00    +0.042 C 
ATOM     13  C   UNL     1      33.185 -14.331 -19.841  0.00  0.00    +0.010 C 
ENDROOT
BRANCH  12  14
ATOM     14  C   UNL     1      34.967 -15.655 -20.860  0.00  0.00    -0.064 C 
ATOM     15  C   UNL     1      35.650 -16.647 -20.888  0.00  0.00    -0.082 C 
BRANCH  15  16
ATOM     16  C   UNL     1      36.479 -17.857 -20.922  0.00  0.00    +0.103 C 
BRANCH  16  17
ATOM     17  C   UNL     1      35.831 -19.005 -20.190  0.00  0.00    -0.009 C 
ATOM     18  C   UNL     1      36.612 -19.849 -19.416  0.00  0.00    -0.003 C 
ATOM     19  C   UNL     1      34.462 -19.198 -20.302  0.00  0.00    -0.003 C 
ATOM     20  C   UNL     1      36.012 -20.910 -18.738  0.00  0.00    -0.000 C 
ATOM     21  C   UNL     1      33.861 -20.259 -19.626  0.00  0.00    -0.000 C 
ATOM     22  C   UNL     1      34.636 -21.115 -18.844  0.00  0.00    -0.000 C 
ENDBRANCH  16  17
ENDBRANCH  15  16
ENDBRANCH  12  14
BRANCH   3  23
ATOM     23  C   UNL     1      33.089  -9.113 -23.669  0.00  0.00    +0.140 C 
BRANCH  23  24
ATOM     24  C   UNL     1      32.802  -7.748 -23.106  0.00  0.00    +0.001 C 
ATOM     25  C   UNL     1      31.890  -6.921 -23.748  0.00  0.00    -0.002 C 
ATOM     26  C   UNL     1      33.452  -7.333 -21.952  0.00  0.00    -0.002 C 
ATOM     27  C   UNL     1      31.624  -5.656 -23.226  0.00  0.00    +0.006 C 
ATOM     28  C   UNL     1      33.186  -6.068 -21.430  0.00  0.00    +0.006 C 
ATOM     29  C   UNL     1      32.272  -5.229 -22.067  0.00  0.00    +0.075 C 
BRANCH  29  31
ATOM     30  O   UNL     1      31.232  -3.075 -22.021  0.00  0.00    -0.245 OA
ATOM     31  C   UNL     1      31.994  -3.909 -21.522  0.00  0.00    +0.338 C 
BRANCH  31  32
ATOM     32  O   UNL     1      32.677  -3.667 -20.370  0.00  0.00    -0.477 OA
ATOM     33  H   UNL     1      32.776  -2.788 -20.060  0.00  0.00    +0.295 HD
ENDBRANCH  31  32
ENDBRANCH  29  31
ENDBRANCH  23  24
ENDBRANCH   3  23
TORSDOF 7
ENDMDL
MODEL 6
REMARK VINA RESULT:     -10.4      3.126      9.561
REMARK  Name = 10224181
REMARK  7 active torsions:
REMARK  status: ('A' for Active; 'I' for Inactive)
REMARK    1  A    between atoms: N_3  and  C_23
REMARK    2  A    between atoms: C_12  and  C_14
REMARK    3  A    between atoms: C_15  and  C_16
REMARK    4  A    between atoms: C_16  and  C_17
REMARK    5  A    between atoms: C_23  and  C_24
REMARK    6  A    between atoms: C_29  and  C_31
REMARK    7  A    between atoms: C_31  and  O_32
REMARK                            x       y       z     vdW  Elec       q    Type
REMARK                         _______ _______ _______ _____ _____    ______ ____
ROOT
ATOM      1  O   UNL     1      35.603 -14.358 -20.989  0.00  0.00    -0.267 OA
ATOM      2  O   UNL     1      33.648 -13.925 -25.183  0.00  0.00    -0.246 OA
ATOM      3  N   UNL     1      34.623 -14.110 -23.092  0.00  0.00    -0.244 N 
ATOM      4  N   UNL     1      34.051 -16.052 -24.358  0.00  0.00    -0.279 N 
ATOM      5  C   UNL     1      34.544 -16.885 -23.310  0.00  0.00    +0.069 A 
ATOM      6  C   UNL     1      35.077 -16.310 -22.155  0.00  0.00    +0.073 A 
ATOM      7  C   UNL     1      35.130 -14.846 -22.013  0.00  0.00    +0.266 A 
ATOM      8  C   UNL     1      34.075 -14.651 -24.277  0.00  0.00    +0.334 A 
ATOM      9  C   UNL     1      35.567 -17.113 -21.113  0.00  0.00    +0.014 C 
ATOM     10  C   UNL     1      34.515 -18.289 -23.398  0.00  0.00    +0.018 C 
ATOM     11  C   UNL     1      33.499 -16.681 -25.557  0.00  0.00    +0.135 C 
ATOM     12  C   UNL     1      35.530 -18.500 -21.219  0.00  0.00    +0.042 C 
ATOM     13  C   UNL     1      35.003 -19.088 -22.362  0.00  0.00    +0.010 C 
ENDROOT
BRANCH  12  14
ATOM     14  C   UNL     1      36.029 -19.315 -20.157  0.00  0.00    -0.064 C 
ATOM     15  C   UNL     1      36.447 -20.002 -19.260  0.00  0.00    -0.082 C 
BRANCH  15  16
ATOM     16  C   UNL     1      36.953 -20.837 -18.165  0.00  0.00    +0.103 C 
BRANCH  16  17
ATOM     17  C   UNL     1      35.836 -21.488 -17.390  0.00  0.00    -0.009 C 
ATOM     18  C   UNL     1      36.058 -21.891 -16.081  0.00  0.00    -0.003 C 
ATOM     19  C   UNL     1      34.603 -21.674 -17.997  0.00  0.00    -0.003 C 
ATOM     20  C   UNL     1      35.024 -22.492 -15.364  0.00  0.00    -0.000 C 
ATOM     21  C   UNL     1      33.569 -22.276 -17.281  0.00  0.00    -0.000 C 
ATOM     22  C   UNL     1      33.779 -22.685 -15.964  0.00  0.00    -0.000 C 
ENDBRANCH  16  17
ENDBRANCH  15  16
ENDBRANCH  12  14
BRANCH   3  23
ATOM     23  C   UNL     1      34.661 -12.655 -22.980  0.00  0.00    +0.140 C 
BRANCH  23  24
ATOM     24  C   UNL     1      33.651 -12.141 -21.990  0.00  0.00    +0.001 C 
ATOM     25  C   UNL     1      33.259 -12.949 -20.932  0.00  0.00    -0.002 C 
ATOM     26  C   UNL     1      33.127 -10.865 -22.148  0.00  0.00    -0.002 C 
ATOM     27  C   UNL     1      32.323 -12.473 -20.014  0.00  0.00    +0.006 C 
ATOM     28  C   UNL     1      32.191 -10.389 -21.230  0.00  0.00    +0.006 C 
ATOM     29  C   UNL     1      31.789 -11.193 -20.163  0.00  0.00    +0.075 C 
BRANCH  29  31
ATOM     30  O   UNL     1      31.076 -10.239 -18.088  0.00  0.00    -0.245 OA
ATOM     31  C   UNL     1      30.813 -10.696 -19.206  0.00  0.00    +0.338 C 
BRANCH  31  32
ATOM     32  O   UNL     1      29.536 -10.783 -19.670  0.00  0.00    -0.477 OA
ATOM     33  H   UNL     1      28.896 -10.154 -19.401  0.00  0.00    +0.295 HD
ENDBRANCH  31  32
ENDBRANCH  29  31
ENDBRANCH  23  24
ENDBRANCH   3  23
TORSDOF 7
ENDMDL
MODEL 7
REMARK VINA RESULT:     -10.3      6.951     10.584
REMARK  Name = 10224181
REMARK  7 active torsions:
REMARK  status: ('A' for Active; 'I' for Inactive)
REMARK    1  A    between atoms: N_3  and  C_23
REMARK    2  A    between atoms: C_12  and  C_14
REMARK    3  A    between atoms: C_15  and  C_16
REMARK    4  A    between atoms: C_16  and  C_17
REMARK    5  A    between atoms: C_23  and  C_24
REMARK    6  A    between atoms: C_29  and  C_31
REMARK    7  A    between atoms: C_31  and  O_32
REMARK                            x       y       z     vdW  Elec       q    Type
REMARK                         _______ _______ _______ _____ _____    ______ ____
ROOT
ATOM      1  O   UNL     1      32.135 -23.468 -16.911  0.00  0.00    -0.267 OA
ATOM      2  O   UNL     1      32.198 -24.669 -12.421  0.00  0.00    -0.246 OA
ATOM      3  N   UNL     1      32.140 -24.085 -14.660  0.00  0.00    -0.244 N 
ATOM      4  N   UNL     1      33.980 -23.458 -13.274  0.00  0.00    -0.279 N 
ATOM      5  C   UNL     1      34.600 -22.811 -14.384  0.00  0.00    +0.069 A 
ATOM      6  C   UNL     1      33.973 -22.812 -15.630  0.00  0.00    +0.073 A 
ATOM      7  C   UNL     1      32.671 -23.478 -15.805  0.00  0.00    +0.266 A 
ATOM      8  C   UNL     1      32.739 -24.108 -13.381  0.00  0.00    +0.334 A 
ATOM      9  C   UNL     1      34.567 -22.181 -16.735  0.00  0.00    +0.014 C 
ATOM     10  C   UNL     1      35.843 -22.162 -14.268  0.00  0.00    +0.018 C 
ATOM     11  C   UNL     1      34.659 -23.443 -11.979  0.00  0.00    +0.135 C 
ATOM     12  C   UNL     1      35.797 -21.544 -16.600  0.00  0.00    +0.042 C 
ATOM     13  C   UNL     1      36.434 -21.534 -15.366  0.00  0.00    +0.010 C 
ENDROOT
BRANCH  12  14
ATOM     14  C   UNL     1      36.400 -20.902 -17.725  0.00  0.00    -0.064 C 
ATOM     15  C   UNL     1      36.905 -20.359 -18.675  0.00  0.00    -0.082 C 
BRANCH  15  16
ATOM     16  C   UNL     1      37.517 -19.696 -19.832  0.00  0.00    +0.103 C 
BRANCH  16  17
ATOM     17  C   UNL     1      36.484 -19.072 -20.735  0.00  0.00    -0.009 C 
ATOM     18  C   UNL     1      35.156 -19.457 -20.622  0.00  0.00    -0.003 C 
ATOM     19  C   UNL     1      36.877 -18.119 -21.664  0.00  0.00    -0.003 C 
ATOM     20  C   UNL     1      34.201 -18.878 -21.457  0.00  0.00    -0.000 C 
ATOM     21  C   UNL     1      35.922 -17.540 -22.499  0.00  0.00    -0.000 C 
ATOM     22  C   UNL     1      34.584 -17.920 -22.396  0.00  0.00    -0.000 C 
ENDBRANCH  16  17
ENDBRANCH  15  16
ENDBRANCH  12  14
BRANCH   3  23
ATOM     23  C   UNL     1      30.848 -24.753 -14.801  0.00  0.00    +0.140 C 
BRANCH  23  24
ATOM     24  C   UNL     1      29.757 -23.790 -15.185  0.00  0.00    +0.001 C 
ATOM     25  C   UNL     1      29.614 -22.603 -14.479  0.00  0.00    -0.002 C 
ATOM     26  C   UNL     1      28.911 -24.102 -16.240  0.00  0.00    -0.002 C 
ATOM     27  C   UNL     1      28.603 -21.711 -14.836  0.00  0.00    +0.006 C 
ATOM     28  C   UNL     1      27.900 -23.209 -16.596  0.00  0.00    +0.006 C 
ATOM     29  C   UNL     1      27.746 -22.013 -15.893  0.00  0.00    +0.075 C 
BRANCH  29  31
ATOM     30  O   UNL     1      26.769 -20.235 -17.161  0.00  0.00    -0.245 OA
ATOM     31  C   UNL     1      26.692 -21.082 -16.266  0.00  0.00    +0.338 C 
BRANCH  31  32
ATOM     32  O   UNL     1      25.571 -21.235 -15.508  0.00  0.00    -0.477 OA
ATOM     33  H   UNL     1      24.898 -20.584 -15.532  0.00  0.00    +0.295 HD
ENDBRANCH  31  32
ENDBRANCH  29  31
ENDBRANCH  23  24
ENDBRANCH   3  23
TORSDOF 7
ENDMDL
MODEL 8
REMARK VINA RESULT:      -9.9      3.362     10.441
REMARK  Name = 10224181
REMARK  7 active torsions:
REMARK  status: ('A' for Active; 'I' for Inactive)
REMARK    1  A    between atoms: N_3  and  C_23
REMARK    2  A    between atoms: C_12  and  C_14
REMARK    3  A    between atoms: C_15  and  C_16
REMARK    4  A    between atoms: C_16  and  C_17
REMARK    5  A    between atoms: C_23  and  C_24
REMARK    6  A    between atoms: C_29  and  C_31
REMARK    7  A    between atoms: C_31  and  O_32
REMARK                            x       y       z     vdW  Elec       q    Type
REMARK                         _______ _______ _______ _____ _____    ______ ____
ROOT
ATOM      1  O   UNL     1      32.414 -13.908 -19.132  0.00  0.00    -0.267 OA
ATOM      2  O   UNL     1      32.232 -10.668 -22.458  0.00  0.00    -0.246 OA
ATOM      3  N   UNL     1      32.302 -12.266 -20.786  0.00  0.00    -0.244 N 
ATOM      4  N   UNL     1      33.679 -12.457 -22.726  0.00  0.00    -0.279 N 
ATOM      5  C   UNL     1      34.225 -13.675 -22.224  0.00  0.00    +0.069 A 
ATOM      6  C   UNL     1      33.795 -14.176 -20.994  0.00  0.00    +0.073 A 
ATOM      7  C   UNL     1      32.779 -13.452 -20.213  0.00  0.00    +0.266 A 
ATOM      8  C   UNL     1      32.708 -11.724 -22.026  0.00  0.00    +0.334 A 
ATOM      9  C   UNL     1      34.320 -15.374 -20.482  0.00  0.00    +0.014 C 
ATOM     10  C   UNL     1      35.198 -14.404 -22.932  0.00  0.00    +0.018 C 
ATOM     11  C   UNL     1      34.148 -11.954 -24.017  0.00  0.00    +0.135 C 
ATOM     12  C   UNL     1      35.282 -16.080 -21.198  0.00  0.00    +0.042 C 
ATOM     13  C   UNL     1      35.720 -15.595 -22.424  0.00  0.00    +0.010 C 
ENDROOT
BRANCH  12  14
ATOM     14  C   UNL     1      35.814 -17.299 -20.676  0.00  0.00    -0.064 C 
ATOM     15  C   UNL     1      36.265 -18.327 -20.239  0.00  0.00    -0.082 C 
BRANCH  15  16
ATOM     16  C   UNL     1      36.815 -19.581 -19.710  0.00  0.00    +0.103 C 
BRANCH  16  17
ATOM     17  C   UNL     1      35.768 -20.398 -18.997  0.00  0.00    -0.009 C 
ATOM     18  C   UNL     1      36.129 -21.150 -17.888  0.00  0.00    -0.003 C 
ATOM     19  C   UNL     1      34.460 -20.384 -19.459  0.00  0.00    -0.003 C 
ATOM     20  C   UNL     1      35.160 -21.905 -17.227  0.00  0.00    -0.000 C 
ATOM     21  C   UNL     1      33.492 -21.140 -18.799  0.00  0.00    -0.000 C 
ATOM     22  C   UNL     1      33.841 -21.900 -17.683  0.00  0.00    -0.000 C 
ENDBRANCH  16  17
ENDBRANCH  15  16
ENDBRANCH  12  14
BRANCH   3  23
ATOM     23  C   UNL     1      31.292 -11.525 -20.035  0.00  0.00    +0.140 C 
BRANCH  23  24
ATOM     24  C   UNL     1      31.699 -10.094 -19.809  0.00  0.00    +0.001 C 
ATOM     25  C   UNL     1      31.486  -9.156 -20.811  0.00  0.00    -0.002 C 
ATOM     26  C   UNL     1      32.280  -9.730 -18.602  0.00  0.00    -0.002 C 
ATOM     27  C   UNL     1      31.863  -7.830 -20.602  0.00  0.00    +0.006 C 
ATOM     28  C   UNL     1      32.657  -8.404 -18.393  0.00  0.00    +0.006 C 
ATOM     29  C   UNL     1      32.448  -7.453 -19.393  0.00  0.00    +0.075 C 
BRANCH  29  31
ATOM     30  O   UNL     1      33.049  -5.551 -18.072  0.00  0.00    -0.245 OA
ATOM     31  C   UNL     1      32.841  -6.070 -19.174  0.00  0.00    +0.338 C 
BRANCH  31  32
ATOM     32  O   UNL     1      32.961  -5.373 -20.336  0.00  0.00    -0.477 OA
ATOM     33  H   UNL     1      32.949  -5.825 -21.157  0.00  0.00    +0.295 HD
ENDBRANCH  31  32
ENDBRANCH  29  31
ENDBRANCH  23  24
ENDBRANCH   3  23
TORSDOF 7
ENDMDL
MODEL 9
REMARK VINA RESULT:      -9.5      4.076     10.107
REMARK  Name = 10224181
REMARK  7 active torsions:
REMARK  status: ('A' for Active; 'I' for Inactive)
REMARK    1  A    between atoms: N_3  and  C_23
REMARK    2  A    between atoms: C_12  and  C_14
REMARK    3  A    between atoms: C_15  and  C_16
REMARK    4  A    between atoms: C_16  and  C_17
REMARK    5  A    between atoms: C_23  and  C_24
REMARK    6  A    between atoms: C_29  and  C_31
REMARK    7  A    between atoms: C_31  and  O_32
REMARK                            x       y       z     vdW  Elec       q    Type
REMARK                         _______ _______ _______ _____ _____    ______ ____
ROOT
ATOM      1  O   UNL     1      33.065 -20.501 -20.250  0.00  0.00    -0.267 OA
ATOM      2  O   UNL     1      37.665 -20.113 -19.709  0.00  0.00    -0.246 OA
ATOM      3  N   UNL     1      35.376 -20.294 -20.007  0.00  0.00    -0.244 N 
ATOM      4  N   UNL     1      36.415 -21.024 -17.984  0.00  0.00    -0.279 N 
ATOM      5  C   UNL     1      35.144 -21.418 -17.470  0.00  0.00    +0.069 A 
ATOM      6  C   UNL     1      33.994 -21.241 -18.241  0.00  0.00    +0.073 A 
ATOM      7  C   UNL     1      34.088 -20.649 -19.586  0.00  0.00    +0.266 A 
ATOM      8  C   UNL     1      36.565 -20.456 -19.259  0.00  0.00    +0.334 A 
ATOM      9  C   UNL     1      32.734 -21.622 -17.753  0.00  0.00    +0.014 C 
ATOM     10  C   UNL     1      35.002 -21.988 -16.191  0.00  0.00    +0.018 C 
ATOM     11  C   UNL     1      37.603 -21.220 -17.154  0.00  0.00    +0.135 C 
ATOM     12  C   UNL     1      32.615 -22.184 -16.485  0.00  0.00    +0.042 C 
ATOM     13  C   UNL     1      33.749 -22.367 -15.705  0.00  0.00    +0.010 C 
ENDROOT
BRANCH  12  14
ATOM     14  C   UNL     1      31.332 -22.572 -15.990  0.00  0.00    -0.064 C 
ATOM     15  C   UNL     1      30.248 -22.898 -15.576  0.00  0.00    -0.082 C 
BRANCH  15  16
ATOM     16  C   UNL     1      28.928 -23.295 -15.075  0.00  0.00    +0.103 C 
BRANCH  16  17
ATOM     17  C   UNL     1      27.829 -22.429 -15.636  0.00  0.00    -0.009 C 
ATOM     18  C   UNL     1      26.923 -21.830 -14.773  0.00  0.00    -0.003 C 
ATOM     19  C   UNL     1      27.741 -22.244 -17.008  0.00  0.00    -0.003 C 
ATOM     20  C   UNL     1      25.907 -21.029 -15.292  0.00  0.00    -0.000 C 
ATOM     21  C   UNL     1      26.724 -21.443 -17.528  0.00  0.00    -0.000 C 
ATOM     22  C   UNL     1      25.808 -20.835 -16.671  0.00  0.00    -0.000 C 
ENDBRANCH  16  17
ENDBRANCH  15  16
ENDBRANCH  12  14
BRANCH   3  23
ATOM     23  C   UNL     1      35.502 -19.705 -21.337  0.00  0.00    +0.140 C 
BRANCH  23  24
ATOM     24  C   UNL     1      35.332 -18.210 -21.307  0.00  0.00    +0.001 C 
ATOM     25  C   UNL     1      35.125 -17.522 -22.495  0.00  0.00    -0.002 C 
ATOM     26  C   UNL     1      35.384 -17.540 -20.093  0.00  0.00    -0.002 C 
ATOM     27  C   UNL     1      34.967 -16.136 -22.468  0.00  0.00    +0.006 C 
ATOM     28  C   UNL     1      35.226 -16.154 -20.066  0.00  0.00    +0.006 C 
ATOM     29  C   UNL     1      35.018 -15.452 -21.253  0.00  0.00    +0.075 C 
BRANCH  29  31
ATOM     30  O   UNL     1      34.408 -13.357 -20.272  0.00  0.00    -0.245 OA
ATOM     31  C   UNL     1      34.852 -14.007 -21.224  0.00  0.00    +0.338 C 
BRANCH  31  32
ATOM     32  O   UNL     1      35.245 -13.415 -22.385  0.00  0.00    -0.477 OA
ATOM     33  H   UNL     1      34.669 -13.404 -23.123  0.00  0.00    +0.295 HD
ENDBRANCH  31  32
ENDBRANCH  29  31
ENDBRANCH  23  24
ENDBRANCH   3  23
TORSDOF 7
ENDMDL
