MODEL 1
REMARK VINA RESULT:     -12.8      0.000      0.000
REMARK  Name = 51049992
REMARK  10 active torsions:
REMARK  status: ('A' for Active; 'I' for Inactive)
REMARK    1  A    between atoms: C_1  and  C_7
REMARK    2  A    between atoms: C_6  and  C_23
REMARK    3  A    between atoms: C_7  and  N_8
REMARK    4  A    between atoms: C_23  and  O_24
REMARK    5  A    between atoms: O_24  and  C_25
REMARK    6  A    between atoms: C_26  and  C_31
REMARK    7  A    between atoms: C_31  and  C_32
REMARK    8  A    between atoms: C_31  and  C_35
REMARK    9  A    between atoms: C_35  and  C_37
REMARK   10  A    between atoms: C_37  and  O_38
REMARK                            x       y       z     vdW  Elec       q    Type
REMARK                         _______ _______ _______ _____ _____    ______ ____
ROOT
ATOM      1  C   UNL     1      35.666 -17.600 -22.263  0.00  0.00    -0.043 C 
ATOM      2  C   UNL     1      34.747 -18.526 -21.766  0.00  0.00    -0.007 C 
ATOM      3  C   UNL     1      36.959 -17.553 -21.741  0.00  0.00    -0.007 C 
ATOM      4  C   UNL     1      35.122 -19.402 -20.748  0.00  0.00    -0.001 C 
ATOM      5  C   UNL     1      37.333 -18.430 -20.723  0.00  0.00    -0.001 C 
ATOM      6  C   UNL     1      36.414 -19.354 -20.227  0.00  0.00    +0.021 C 
ENDROOT
BRANCH   1   7
ATOM      7  C   UNL     1      35.261 -16.654 -23.361  0.00  0.00    -0.050 C 
BRANCH   7   8
ATOM      8  N   UNL     1      34.494 -15.519 -22.848  0.00  0.00    +0.390 N 
ATOM      9  C   UNL     1      33.747 -12.680 -22.582  0.00  0.00    +0.033 C 
ATOM     10  C   UNL     1      32.929 -13.685 -23.412  0.00  0.00    -0.015 C 
ATOM     11  C   UNL     1      34.576 -13.429 -21.522  0.00  0.00    -0.015 C 
ATOM     12  C   UNL     1      35.373 -14.592 -22.122  0.00  0.00    -0.076 C 
ATOM     13  C   UNL     1      33.788 -14.839 -23.941  0.00  0.00    -0.076 C 
ATOM     14  C   UNL     1      32.868 -11.616 -21.959  0.00  0.00    -0.019 C 
ATOM     15  C   UNL     1      34.631 -11.805 -23.469  0.00  0.00    -0.023 C 
ATOM     16  C   UNL     1      33.235 -10.354 -22.449  0.00  0.00    -0.004 C 
ATOM     17  C   UNL     1      34.333 -10.500 -23.385  0.00  0.00    -0.005 C 
ATOM     18  C   UNL     1      31.836 -11.748 -21.044  0.00  0.00    -0.004 C 
ATOM     19  C   UNL     1      32.582  -9.203 -22.036  0.00  0.00    -0.000 C 
ATOM     20  C   UNL     1      31.171 -10.594 -20.621  0.00  0.00    -0.000 C 
ATOM     21  C   UNL     1      31.541  -9.332 -21.114  0.00  0.00    -0.000 C 
ATOM     22  H   UNL     1      33.795 -15.866 -22.192  0.00  0.00    -0.079 HD
ENDBRANCH   7   8
ENDBRANCH   1   7
BRANCH   6  23
ATOM     23  C   UNL     1      36.816 -20.294 -19.140  0.00  0.00    +0.232 C 
BRANCH  23  24
ATOM     24  O   UNL     1      35.699 -20.544 -18.295  0.00  0.00    -0.471 OA
BRANCH  24  25
ATOM     25  C   UNL     1      35.930 -21.294 -17.172  0.00  0.00    +0.139 C 
ATOM     26  C   UNL     1      36.401 -22.819 -14.884  0.00  0.00    -0.010 C 
ATOM     27  C   UNL     1      34.904 -22.062 -16.622  0.00  0.00    +0.037 C 
ATOM     28  C   UNL     1      37.192 -21.287 -16.577  0.00  0.00    +0.037 C 
ATOM     29  C   UNL     1      35.140 -22.825 -15.478  0.00  0.00    -0.000 C 
ATOM     30  C   UNL     1      37.427 -22.050 -15.433  0.00  0.00    -0.000 C 
BRANCH  26  31
ATOM     31  C   UNL     1      36.654 -23.634 -13.661  0.00  0.00    +0.097 C 
BRANCH  31  32
ATOM     32  C   UNL     1      38.023 -24.220 -13.664  0.00  0.00    -0.087 C 
ATOM     33  C   UNL     1      39.134 -24.678 -13.671  0.00  0.00    -0.090 C 
ATOM     34  C   UNL     1      40.485 -25.235 -13.683  0.00  0.00    +0.090 C 
ENDBRANCH  31  32
BRANCH  31  35
ATOM     35  C   UNL     1      36.426 -22.825 -12.355  0.00  0.00    +0.127 C 
BRANCH  35  37
ATOM     36  O   UNL     1      36.907 -23.777 -10.159  0.00  0.00    -0.250 OA
ATOM     37  C   UNL     1      36.170 -23.683 -11.131  0.00  0.00    +0.315 C 
BRANCH  37  38
ATOM     38  O   UNL     1      34.987 -24.344 -11.231  0.00  0.00    -0.480 OA
ATOM     39  H   UNL     1      34.819 -24.895 -11.968  0.00  0.00    +0.295 HD
ENDBRANCH  37  38
ENDBRANCH  35  37
ENDBRANCH  31  35
ENDBRANCH  26  31
ENDBRANCH  24  25
ENDBRANCH  23  24
ENDBRANCH   6  23
TORSDOF 10
ENDMDL
MODEL 2
REMARK VINA RESULT:     -12.4      3.586     12.736
REMARK  Name = 51049992
REMARK  10 active torsions:
REMARK  status: ('A' for Active; 'I' for Inactive)
REMARK    1  A    between atoms: C_1  and  C_7
REMARK    2  A    between atoms: C_6  and  C_23
REMARK    3  A    between atoms: C_7  and  N_8
REMARK    4  A    between atoms: C_23  and  O_24
REMARK    5  A    between atoms: O_24  and  C_25
REMARK    6  A    between atoms: C_26  and  C_31
REMARK    7  A    between atoms: C_31  and  C_32
REMARK    8  A    between atoms: C_31  and  C_35
REMARK    9  A    between atoms: C_35  and  C_37
REMARK   10  A    between atoms: C_37  and  O_38
REMARK                            x       y       z     vdW  Elec       q    Type
REMARK                         _______ _______ _______ _____ _____    ______ ____
ROOT
ATOM      1  C   UNL     1      33.773 -21.053 -18.588  0.00  0.00    -0.043 C 
ATOM      2  C   UNL     1      35.157 -21.000 -18.759  0.00  0.00    -0.007 C 
ATOM      3  C   UNL     1      32.943 -20.250 -19.370  0.00  0.00    -0.007 C 
ATOM      4  C   UNL     1      35.710 -20.144 -19.711  0.00  0.00    -0.001 C 
ATOM      5  C   UNL     1      33.496 -19.394 -20.322  0.00  0.00    -0.001 C 
ATOM      6  C   UNL     1      34.879 -19.341 -20.493  0.00  0.00    +0.021 C 
ENDROOT
BRANCH   1   7
ATOM      7  C   UNL     1      33.177 -21.977 -17.560  0.00  0.00    -0.050 C 
BRANCH   7   8
ATOM      8  N   UNL     1      34.026 -22.093 -16.374  0.00  0.00    +0.390 N 
ATOM      9  C   UNL     1      35.825 -23.458 -14.480  0.00  0.00    +0.033 C 
ATOM     10  C   UNL     1      36.327 -22.454 -15.533  0.00  0.00    -0.015 C 
ATOM     11  C   UNL     1      34.336 -23.204 -14.183  0.00  0.00    -0.015 C 
ATOM     12  C   UNL     1      33.495 -23.114 -15.461  0.00  0.00    -0.076 C 
ATOM     13  C   UNL     1      35.411 -22.392 -16.761  0.00  0.00    -0.076 C 
ATOM     14  C   UNL     1      36.665 -23.419 -13.220  0.00  0.00    -0.019 C 
ATOM     15  C   UNL     1      36.072 -24.901 -14.917  0.00  0.00    -0.023 C 
ATOM     16  C   UNL     1      37.271 -24.668 -13.018  0.00  0.00    -0.004 C 
ATOM     17  C   UNL     1      36.887 -25.570 -14.086  0.00  0.00    -0.005 C 
ATOM     18  C   UNL     1      36.876 -22.377 -12.332  0.00  0.00    -0.004 C 
ATOM     19  C   UNL     1      38.097 -24.900 -11.930  0.00  0.00    -0.000 C 
ATOM     20  C   UNL     1      37.707 -22.600 -11.232  0.00  0.00    -0.000 C 
ATOM     21  C   UNL     1      38.313 -23.851 -11.032  0.00  0.00    -0.000 C 
ATOM     22  H   UNL     1      34.024 -21.201 -15.881  0.00  0.00    -0.079 HD
ENDBRANCH   7   8
ENDBRANCH   1   7
BRANCH   6  23
ATOM     23  C   UNL     1      35.470 -18.428 -21.513  0.00  0.00    +0.232 C 
BRANCH  23  24
ATOM     24  O   UNL     1      36.072 -17.316 -20.860  0.00  0.00    -0.471 OA
BRANCH  24  25
ATOM     25  C   UNL     1      35.478 -16.096 -21.045  0.00  0.00    +0.139 C 
ATOM     26  C   UNL     1      34.270 -13.609 -21.420  0.00  0.00    -0.010 C 
ATOM     27  C   UNL     1      35.364 -15.561 -22.328  0.00  0.00    +0.037 C 
ATOM     28  C   UNL     1      34.988 -15.386 -19.948  0.00  0.00    +0.037 C 
ATOM     29  C   UNL     1      34.760 -14.318 -22.516  0.00  0.00    -0.000 C 
ATOM     30  C   UNL     1      34.384 -14.142 -20.136  0.00  0.00    -0.000 C 
BRANCH  26  31
ATOM     31  C   UNL     1      33.624 -12.280 -21.619  0.00  0.00    +0.097 C 
BRANCH  31  32
ATOM     32  C   UNL     1      33.879 -11.744 -22.985  0.00  0.00    -0.087 C 
ATOM     33  C   UNL     1      34.083 -11.295 -24.080  0.00  0.00    -0.090 C 
ATOM     34  C   UNL     1      34.328 -10.748 -25.413  0.00  0.00    +0.090 C 
ENDBRANCH  31  32
BRANCH  31  35
ATOM     35  C   UNL     1      32.097 -12.318 -21.340  0.00  0.00    +0.127 C 
BRANCH  35  37
ATOM     36  O   UNL     1      32.329 -11.274 -19.147  0.00  0.00    -0.250 OA
ATOM     37  C   UNL     1      31.662 -11.486 -20.150  0.00  0.00    +0.315 C 
BRANCH  37  38
ATOM     38  O   UNL     1      30.416 -10.976 -20.332  0.00  0.00    -0.480 OA
ATOM     39  H   UNL     1      29.678 -11.383 -19.925  0.00  0.00    +0.295 HD
ENDBRANCH  37  38
ENDBRANCH  35  37
ENDBRANCH  31  35
ENDBRANCH  26  31
ENDBRANCH  24  25
ENDBRANCH  23  24
ENDBRANCH   6  23
TORSDOF 10
ENDMDL
MODEL 3
REMARK VINA RESULT:     -12.3      2.466      4.619
REMARK  Name = 51049992
REMARK  10 active torsions:
REMARK  status: ('A' for Active; 'I' for Inactive)
REMARK    1  A    between atoms: C_1  and  C_7
REMARK    2  A    between atoms: C_6  and  C_23
REMARK    3  A    between atoms: C_7  and  N_8
REMARK    4  A    between atoms: C_23  and  O_24
REMARK    5  A    between atoms: O_24  and  C_25
REMARK    6  A    between atoms: C_26  and  C_31
REMARK    7  A    between atoms: C_31  and  C_32
REMARK    8  A    between atoms: C_31  and  C_35
REMARK    9  A    between atoms: C_35  and  C_37
REMARK   10  A    between atoms: C_37  and  O_38
REMARK                            x       y       z     vdW  Elec       q    Type
REMARK                         _______ _______ _______ _____ _____    ______ ____
ROOT
ATOM      1  C   UNL     1      34.421 -13.830 -22.812  0.00  0.00    -0.043 C 
ATOM      2  C   UNL     1      34.794 -15.002 -23.472  0.00  0.00    -0.007 C 
ATOM      3  C   UNL     1      34.479 -13.766 -21.419  0.00  0.00    -0.007 C 
ATOM      4  C   UNL     1      35.226 -16.107 -22.740  0.00  0.00    -0.001 C 
ATOM      5  C   UNL     1      34.911 -14.872 -20.687  0.00  0.00    -0.001 C 
ATOM      6  C   UNL     1      35.285 -16.042 -21.347  0.00  0.00    +0.021 C 
ENDROOT
BRANCH   1   7
ATOM      7  C   UNL     1      33.955 -12.638 -23.602  0.00  0.00    -0.050 C 
BRANCH   7   8
ATOM      8  N   UNL     1      33.764 -11.462 -22.753  0.00  0.00    +0.390 N 
ATOM      9  C   UNL     1      32.694  -8.811 -22.033  0.00  0.00    +0.033 C 
ATOM     10  C   UNL     1      32.140 -10.123 -21.447  0.00  0.00    -0.015 C 
ATOM     11  C   UNL     1      34.138  -9.025 -22.522  0.00  0.00    -0.015 C 
ATOM     12  C   UNL     1      34.271 -10.256 -23.423  0.00  0.00    -0.076 C 
ATOM     13  C   UNL     1      32.349 -11.314 -22.390  0.00  0.00    -0.076 C 
ATOM     14  C   UNL     1      32.597  -7.668 -21.044  0.00  0.00    -0.019 C 
ATOM     15  C   UNL     1      31.798  -8.271 -23.148  0.00  0.00    -0.023 C 
ATOM     16  C   UNL     1      31.767  -6.663 -21.563  0.00  0.00    -0.004 C 
ATOM     17  C   UNL     1      31.284  -7.063 -22.870  0.00  0.00    -0.005 C 
ATOM     18  C   UNL     1      33.187  -7.527 -19.798  0.00  0.00    -0.004 C 
ATOM     19  C   UNL     1      31.511  -5.502 -20.852  0.00  0.00    -0.000 C 
ATOM     20  C   UNL     1      32.935  -6.360 -19.073  0.00  0.00    -0.000 C 
ATOM     21  C   UNL     1      32.104  -5.356 -19.595  0.00  0.00    -0.000 C 
ATOM     22  H   UNL     1      34.296 -11.589 -21.893  0.00  0.00    -0.079 HD
ENDBRANCH   7   8
ENDBRANCH   1   7
BRANCH   6  23
ATOM     23  C   UNL     1      35.749 -17.223 -20.565  0.00  0.00    +0.232 C 
BRANCH  23  24
ATOM     24  O   UNL     1      35.151 -18.403 -21.088  0.00  0.00    -0.471 OA
BRANCH  24  25
ATOM     25  C   UNL     1      34.744 -19.344 -20.180  0.00  0.00    +0.139 C 
ATOM     26  C   UNL     1      33.916 -21.264 -18.332  0.00  0.00    -0.010 C 
ATOM     27  C   UNL     1      35.690 -20.105 -19.493  0.00  0.00    +0.037 C 
ATOM     28  C   UNL     1      33.384 -19.544 -19.943  0.00  0.00    +0.037 C 
ATOM     29  C   UNL     1      35.276 -21.065 -18.568  0.00  0.00    -0.000 C 
ATOM     30  C   UNL     1      32.970 -20.504 -19.020  0.00  0.00    -0.000 C 
BRANCH  26  31
ATOM     31  C   UNL     1      33.472 -22.289 -17.344  0.00  0.00    +0.097 C 
BRANCH  31  32
ATOM     32  C   UNL     1      34.453 -22.444 -16.235  0.00  0.00    -0.087 C 
ATOM     33  C   UNL     1      35.238 -22.554 -15.331  0.00  0.00    -0.090 C 
ATOM     34  C   UNL     1      36.194 -22.686 -14.234  0.00  0.00    +0.090 C 
ENDBRANCH  31  32
BRANCH  31  35
ATOM     35  C   UNL     1      32.063 -21.983 -16.769  0.00  0.00    +0.127 C 
BRANCH  35  37
ATOM     36  O   UNL     1      31.442 -23.961 -15.481  0.00  0.00    -0.250 OA
ATOM     37  C   UNL     1      31.718 -22.771 -15.520  0.00  0.00    +0.315 C 
BRANCH  37  38
ATOM     38  O   UNL     1      31.767 -21.985 -14.412  0.00  0.00    -0.480 OA
ATOM     39  H   UNL     1      32.165 -22.304 -13.628  0.00  0.00    +0.295 HD
ENDBRANCH  37  38
ENDBRANCH  35  37
ENDBRANCH  31  35
ENDBRANCH  26  31
ENDBRANCH  24  25
ENDBRANCH  23  24
ENDBRANCH   6  23
TORSDOF 10
ENDMDL
MODEL 4
REMARK VINA RESULT:     -12.2      3.567     13.019
REMARK  Name = 51049992
REMARK  10 active torsions:
REMARK  status: ('A' for Active; 'I' for Inactive)
REMARK    1  A    between atoms: C_1  and  C_7
REMARK    2  A    between atoms: C_6  and  C_23
REMARK    3  A    between atoms: C_7  and  N_8
REMARK    4  A    between atoms: C_23  and  O_24
REMARK    5  A    between atoms: O_24  and  C_25
REMARK    6  A    between atoms: C_26  and  C_31
REMARK    7  A    between atoms: C_31  and  C_32
REMARK    8  A    between atoms: C_31  and  C_35
REMARK    9  A    between atoms: C_35  and  C_37
REMARK   10  A    between atoms: C_37  and  O_38
REMARK                            x       y       z     vdW  Elec       q    Type
REMARK                         _______ _______ _______ _____ _____    ______ ____
ROOT
ATOM      1  C   UNL     1      33.882 -21.013 -18.638  0.00  0.00    -0.043 C 
ATOM      2  C   UNL     1      35.273 -20.949 -18.721  0.00  0.00    -0.007 C 
ATOM      3  C   UNL     1      33.097 -20.222 -19.479  0.00  0.00    -0.007 C 
ATOM      4  C   UNL     1      35.879 -20.097 -19.644  0.00  0.00    -0.001 C 
ATOM      5  C   UNL     1      33.703 -19.370 -20.401  0.00  0.00    -0.001 C 
ATOM      6  C   UNL     1      35.094 -19.307 -20.484  0.00  0.00    +0.021 C 
ENDROOT
BRANCH   1   7
ATOM      7  C   UNL     1      33.229 -21.933 -17.642  0.00  0.00    -0.050 C 
BRANCH   7   8
ATOM      8  N   UNL     1      34.035 -22.083 -16.430  0.00  0.00    +0.390 N 
ATOM      9  C   UNL     1      35.751 -23.509 -14.504  0.00  0.00    +0.033 C 
ATOM     10  C   UNL     1      36.301 -22.488 -15.517  0.00  0.00    -0.015 C 
ATOM     11  C   UNL     1      34.255 -23.244 -14.254  0.00  0.00    -0.015 C 
ATOM     12  C   UNL     1      33.461 -23.117 -15.558  0.00  0.00    -0.076 C 
ATOM     13  C   UNL     1      35.429 -22.390 -16.774  0.00  0.00    -0.076 C 
ATOM     14  C   UNL     1      36.547 -23.506 -13.216  0.00  0.00    -0.019 C 
ATOM     15  C   UNL     1      35.998 -24.946 -14.963  0.00  0.00    -0.023 C 
ATOM     16  C   UNL     1      37.132 -24.766 -13.019  0.00  0.00    -0.004 C 
ATOM     17  C   UNL     1      36.775 -25.641 -14.119  0.00  0.00    -0.005 C 
ATOM     18  C   UNL     1      36.738 -22.485 -12.298  0.00  0.00    -0.004 C 
ATOM     19  C   UNL     1      37.917 -25.031 -11.908  0.00  0.00    -0.000 C 
ATOM     20  C   UNL     1      37.527 -22.742 -11.175  0.00  0.00    -0.000 C 
ATOM     21  C   UNL     1      38.112 -24.004 -10.981  0.00  0.00    -0.000 C 
ATOM     22  H   UNL     1      34.025 -21.202 -15.918  0.00  0.00    -0.079 HD
ENDBRANCH   7   8
ENDBRANCH   1   7
BRANCH   6  23
ATOM     23  C   UNL     1      35.741 -18.398 -21.473  0.00  0.00    +0.232 C 
BRANCH  23  24
ATOM     24  O   UNL     1      36.112 -17.185 -20.828  0.00  0.00    -0.471 OA
BRANCH  24  25
ATOM     25  C   UNL     1      35.438 -16.054 -21.205  0.00  0.00    +0.139 C 
ATOM     26  C   UNL     1      34.062 -13.752 -21.975  0.00  0.00    -0.010 C 
ATOM     27  C   UNL     1      34.921 -15.192 -20.237  0.00  0.00    +0.037 C 
ATOM     28  C   UNL     1      35.265 -15.764 -22.559  0.00  0.00    +0.037 C 
ATOM     29  C   UNL     1      34.234 -14.041 -20.622  0.00  0.00    -0.000 C 
ATOM     30  C   UNL     1      34.577 -14.613 -22.944  0.00  0.00    -0.000 C 
BRANCH  26  31
ATOM     31  C   UNL     1      33.326 -12.522 -22.388  0.00  0.00    +0.097 C 
BRANCH  31  32
ATOM     32  C   UNL     1      32.515 -11.965 -21.270  0.00  0.00    -0.087 C 
ATOM     33  C   UNL     1      31.874 -11.506 -20.364  0.00  0.00    -0.090 C 
ATOM     34  C   UNL     1      31.095 -10.949 -19.259  0.00  0.00    +0.090 C 
ENDBRANCH  31  32
BRANCH  31  35
ATOM     35  C   UNL     1      34.275 -11.429 -22.951  0.00  0.00    +0.127 C 
BRANCH  35  37
ATOM     36  O   UNL     1      33.923 -11.827 -25.333  0.00  0.00    -0.250 OA
ATOM     37  C   UNL     1      33.997 -11.049 -24.392  0.00  0.00    +0.315 C 
BRANCH  37  38
ATOM     38  O   UNL     1      33.819  -9.708 -24.524  0.00  0.00    -0.480 OA
ATOM     39  H   UNL     1      33.706  -9.173 -23.764  0.00  0.00    +0.295 HD
ENDBRANCH  37  38
ENDBRANCH  35  37
ENDBRANCH  31  35
ENDBRANCH  26  31
ENDBRANCH  24  25
ENDBRANCH  23  24
ENDBRANCH   6  23
TORSDOF 10
ENDMDL
MODEL 5
REMARK VINA RESULT:     -12.1      1.694      2.344
REMARK  Name = 51049992
REMARK  10 active torsions:
REMARK  status: ('A' for Active; 'I' for Inactive)
REMARK    1  A    between atoms: C_1  and  C_7
REMARK    2  A    between atoms: C_6  and  C_23
REMARK    3  A    between atoms: C_7  and  N_8
REMARK    4  A    between atoms: C_23  and  O_24
REMARK    5  A    between atoms: O_24  and  C_25
REMARK    6  A    between atoms: C_26  and  C_31
REMARK    7  A    between atoms: C_31  and  C_32
REMARK    8  A    between atoms: C_31  and  C_35
REMARK    9  A    between atoms: C_35  and  C_37
REMARK   10  A    between atoms: C_37  and  O_38
REMARK                            x       y       z     vdW  Elec       q    Type
REMARK                         _______ _______ _______ _____ _____    ______ ____
ROOT
ATOM      1  C   UNL     1      35.453 -17.410 -22.390  0.00  0.00    -0.043 C 
ATOM      2  C   UNL     1      36.706 -17.407 -21.775  0.00  0.00    -0.007 C 
ATOM      3  C   UNL     1      34.475 -18.313 -21.973  0.00  0.00    -0.007 C 
ATOM      4  C   UNL     1      36.979 -18.306 -20.745  0.00  0.00    -0.001 C 
ATOM      5  C   UNL     1      34.748 -19.212 -20.942  0.00  0.00    -0.001 C 
ATOM      6  C   UNL     1      36.001 -19.208 -20.328  0.00  0.00    +0.021 C 
ENDROOT
BRANCH   1   7
ATOM      7  C   UNL     1      35.158 -16.440 -23.502  0.00  0.00    -0.050 C 
BRANCH   7   8
ATOM      8  N   UNL     1      34.427 -15.267 -23.022  0.00  0.00    +0.390 N 
ATOM      9  C   UNL     1      33.772 -12.399 -22.836  0.00  0.00    +0.033 C 
ATOM     10  C   UNL     1      32.922 -13.400 -23.641  0.00  0.00    -0.015 C 
ATOM     11  C   UNL     1      34.573 -13.145 -21.754  0.00  0.00    -0.015 C 
ATOM     12  C   UNL     1      35.334 -14.349 -22.319  0.00  0.00    -0.076 C 
ATOM     13  C   UNL     1      33.746 -14.595 -24.135  0.00  0.00    -0.076 C 
ATOM     14  C   UNL     1      32.925 -11.290 -22.246  0.00  0.00    -0.019 C 
ATOM     15  C   UNL     1      34.685 -11.578 -23.745  0.00  0.00    -0.023 C 
ATOM     16  C   UNL     1      33.335 -10.054 -22.770  0.00  0.00    -0.004 C 
ATOM     17  C   UNL     1      34.428 -10.261 -23.698  0.00  0.00    -0.005 C 
ATOM     18  C   UNL     1      31.888 -11.364 -21.331  0.00  0.00    -0.004 C 
ATOM     19  C   UNL     1      32.718  -8.873 -22.391  0.00  0.00    -0.000 C 
ATOM     20  C   UNL     1      31.260 -10.177 -20.942  0.00  0.00    -0.000 C 
ATOM     21  C   UNL     1      31.672  -8.942 -21.468  0.00  0.00    -0.000 C 
ATOM     22  H   UNL     1      33.716 -15.572 -22.358  0.00  0.00    -0.079 HD
ENDBRANCH   7   8
ENDBRANCH   1   7
BRANCH   6  23
ATOM     23  C   UNL     1      36.292 -20.167 -19.224  0.00  0.00    +0.232 C 
BRANCH  23  24
ATOM     24  O   UNL     1      35.239 -21.120 -19.135  0.00  0.00    -0.471 OA
BRANCH  24  25
ATOM     25  C   UNL     1      34.994 -21.655 -17.898  0.00  0.00    +0.139 C 
ATOM     26  C   UNL     1      34.495 -22.747 -15.380  0.00  0.00    -0.010 C 
ATOM     27  C   UNL     1      35.992 -21.649 -16.924  0.00  0.00    +0.037 C 
ATOM     28  C   UNL     1      33.745 -22.208 -17.612  0.00  0.00    +0.037 C 
ATOM     29  C   UNL     1      35.743 -22.195 -15.665  0.00  0.00    -0.000 C 
ATOM     30  C   UNL     1      33.496 -22.755 -16.354  0.00  0.00    -0.000 C 
BRANCH  26  31
ATOM     31  C   UNL     1      34.227 -23.331 -14.034  0.00  0.00    +0.097 C 
BRANCH  31  32
ATOM     32  C   UNL     1      35.373 -23.124 -13.107  0.00  0.00    -0.087 C 
ATOM     33  C   UNL     1      36.297 -22.939 -12.361  0.00  0.00    -0.090 C 
ATOM     34  C   UNL     1      37.423 -22.714 -11.456  0.00  0.00    +0.090 C 
ENDBRANCH  31  32
BRANCH  31  35
ATOM     35  C   UNL     1      32.923 -22.776 -13.399  0.00  0.00    +0.127 C 
BRANCH  35  37
ATOM     36  O   UNL     1      30.977 -23.692 -12.245  0.00  0.00    -0.250 OA
ATOM     37  C   UNL     1      31.919 -23.844 -13.009  0.00  0.00    +0.315 C 
BRANCH  37  38
ATOM     38  O   UNL     1      32.184 -25.022 -13.634  0.00  0.00    -0.480 OA
ATOM     39  H   UNL     1      32.002 -25.119 -14.547  0.00  0.00    +0.295 HD
ENDBRANCH  37  38
ENDBRANCH  35  37
ENDBRANCH  31  35
ENDBRANCH  26  31
ENDBRANCH  24  25
ENDBRANCH  23  24
ENDBRANCH   6  23
TORSDOF 10
ENDMDL
MODEL 6
REMARK VINA RESULT:     -12.1      1.469      2.632
REMARK  Name = 51049992
REMARK  10 active torsions:
REMARK  status: ('A' for Active; 'I' for Inactive)
REMARK    1  A    between atoms: C_1  and  C_7
REMARK    2  A    between atoms: C_6  and  C_23
REMARK    3  A    between atoms: C_7  and  N_8
REMARK    4  A    between atoms: C_23  and  O_24
REMARK    5  A    between atoms: O_24  and  C_25
REMARK    6  A    between atoms: C_26  and  C_31
REMARK    7  A    between atoms: C_31  and  C_32
REMARK    8  A    between atoms: C_31  and  C_35
REMARK    9  A    between atoms: C_35  and  C_37
REMARK   10  A    between atoms: C_37  and  O_38
REMARK                            x       y       z     vdW  Elec       q    Type
REMARK                         _______ _______ _______ _____ _____    ______ ____
ROOT
ATOM      1  C   UNL     1      35.493 -17.482 -22.457  0.00  0.00    -0.043 C 
ATOM      2  C   UNL     1      34.560 -18.446 -22.075  0.00  0.00    -0.007 C 
ATOM      3  C   UNL     1      36.732 -17.420 -21.819  0.00  0.00    -0.007 C 
ATOM      4  C   UNL     1      34.867 -19.348 -21.056  0.00  0.00    -0.001 C 
ATOM      5  C   UNL     1      37.039 -18.321 -20.801  0.00  0.00    -0.001 C 
ATOM      6  C   UNL     1      36.106 -19.285 -20.419  0.00  0.00    +0.021 C 
ENDROOT
BRANCH   1   7
ATOM      7  C   UNL     1      35.161 -16.509 -23.557  0.00  0.00    -0.050 C 
BRANCH   7   8
ATOM      8  N   UNL     1      34.431 -15.346 -23.053  0.00  0.00    +0.390 N 
ATOM      9  C   UNL     1      33.779 -12.481 -22.809  0.00  0.00    +0.033 C 
ATOM     10  C   UNL     1      32.929 -13.464 -23.634  0.00  0.00    -0.015 C 
ATOM     11  C   UNL     1      34.579 -13.250 -21.741  0.00  0.00    -0.015 C 
ATOM     12  C   UNL     1      35.338 -14.443 -22.331  0.00  0.00    -0.076 C 
ATOM     13  C   UNL     1      33.751 -14.650 -24.153  0.00  0.00    -0.076 C 
ATOM     14  C   UNL     1      32.934 -11.384 -22.196  0.00  0.00    -0.019 C 
ATOM     15  C   UNL     1      34.694 -11.643 -23.700  0.00  0.00    -0.023 C 
ATOM     16  C   UNL     1      33.344 -10.138 -22.693  0.00  0.00    -0.004 C 
ATOM     17  C   UNL     1      34.439 -10.327 -23.626  0.00  0.00    -0.005 C 
ATOM     18  C   UNL     1      31.896 -11.475 -21.283  0.00  0.00    -0.004 C 
ATOM     19  C   UNL     1      32.729  -8.964 -22.291  0.00  0.00    -0.000 C 
ATOM     20  C   UNL     1      31.269 -10.297 -20.870  0.00  0.00    -0.000 C 
ATOM     21  C   UNL     1      31.683  -9.051 -21.370  0.00  0.00    -0.000 C 
ATOM     22  H   UNL     1      33.719 -15.664 -22.396  0.00  0.00    -0.079 HD
ENDBRANCH   7   8
ENDBRANCH   1   7
BRANCH   6  23
ATOM     23  C   UNL     1      36.435 -20.251 -19.331  0.00  0.00    +0.232 C 
BRANCH  23  24
ATOM     24  O   UNL     1      35.404 -21.227 -19.238  0.00  0.00    -0.471 OA
BRANCH  24  25
ATOM     25  C   UNL     1      35.069 -21.652 -17.979  0.00  0.00    +0.139 C 
ATOM     26  C   UNL     1      34.386 -22.520 -15.417  0.00  0.00    -0.010 C 
ATOM     27  C   UNL     1      36.019 -21.628 -16.958  0.00  0.00    +0.037 C 
ATOM     28  C   UNL     1      33.777 -22.110 -17.719  0.00  0.00    +0.037 C 
ATOM     29  C   UNL     1      35.677 -22.062 -15.677  0.00  0.00    -0.000 C 
ATOM     30  C   UNL     1      33.436 -22.544 -16.438  0.00  0.00    -0.000 C 
BRANCH  26  31
ATOM     31  C   UNL     1      34.021 -22.984 -14.048  0.00  0.00    +0.097 C 
BRANCH  31  32
ATOM     32  C   UNL     1      32.675 -23.620 -14.024  0.00  0.00    -0.087 C 
ATOM     33  C   UNL     1      31.596 -24.150 -14.000  0.00  0.00    -0.090 C 
ATOM     34  C   UNL     1      30.285 -24.794 -13.974  0.00  0.00    +0.090 C 
ENDBRANCH  31  32
BRANCH  31  35
ATOM     35  C   UNL     1      35.077 -23.952 -13.451  0.00  0.00    +0.127 C 
BRANCH  35  37
ATOM     36  O   UNL     1      35.204 -24.273 -11.035  0.00  0.00    -0.250 OA
ATOM     37  C   UNL     1      35.489 -23.622 -12.029  0.00  0.00    +0.315 C 
BRANCH  37  38
ATOM     38  O   UNL     1      36.246 -22.494 -11.985  0.00  0.00    -0.480 OA
ATOM     39  H   UNL     1      36.823 -22.345 -11.262  0.00  0.00    +0.295 HD
ENDBRANCH  37  38
ENDBRANCH  35  37
ENDBRANCH  31  35
ENDBRANCH  26  31
ENDBRANCH  24  25
ENDBRANCH  23  24
ENDBRANCH   6  23
TORSDOF 10
ENDMDL
MODEL 7
REMARK VINA RESULT:     -12.0      2.580      3.905
REMARK  Name = 51049992
REMARK  10 active torsions:
REMARK  status: ('A' for Active; 'I' for Inactive)
REMARK    1  A    between atoms: C_1  and  C_7
REMARK    2  A    between atoms: C_6  and  C_23
REMARK    3  A    between atoms: C_7  and  N_8
REMARK    4  A    between atoms: C_23  and  O_24
REMARK    5  A    between atoms: O_24  and  C_25
REMARK    6  A    between atoms: C_26  and  C_31
REMARK    7  A    between atoms: C_31  and  C_32
REMARK    8  A    between atoms: C_31  and  C_35
REMARK    9  A    between atoms: C_35  and  C_37
REMARK   10  A    between atoms: C_37  and  O_38
REMARK                            x       y       z     vdW  Elec       q    Type
REMARK                         _______ _______ _______ _____ _____    ______ ____
ROOT
ATOM      1  C   UNL     1      35.529 -17.536 -22.253  0.00  0.00    -0.043 C 
ATOM      2  C   UNL     1      34.546 -18.438 -21.846  0.00  0.00    -0.007 C 
ATOM      3  C   UNL     1      36.772 -17.528 -21.619  0.00  0.00    -0.007 C 
ATOM      4  C   UNL     1      34.805 -19.330 -20.806  0.00  0.00    -0.001 C 
ATOM      5  C   UNL     1      37.031 -18.420 -20.579  0.00  0.00    -0.001 C 
ATOM      6  C   UNL     1      36.048 -19.321 -20.173  0.00  0.00    +0.021 C 
ENDROOT
BRANCH   1   7
ATOM      7  C   UNL     1      35.249 -16.573 -23.375  0.00  0.00    -0.050 C 
BRANCH   7   8
ATOM      8  N   UNL     1      34.492 -15.408 -22.916  0.00  0.00    +0.390 N 
ATOM      9  C   UNL     1      33.782 -12.550 -22.775  0.00  0.00    +0.033 C 
ATOM     10  C   UNL     1      32.958 -13.578 -23.572  0.00  0.00    -0.015 C 
ATOM     11  C   UNL     1      34.589 -13.266 -21.677  0.00  0.00    -0.015 C 
ATOM     12  C   UNL     1      35.376 -14.463 -22.220  0.00  0.00    -0.076 C 
ATOM     13  C   UNL     1      33.807 -14.764 -24.044  0.00  0.00    -0.076 C 
ATOM     14  C   UNL     1      32.911 -11.450 -22.207  0.00  0.00    -0.019 C 
ATOM     15  C   UNL     1      34.687 -11.725 -23.689  0.00  0.00    -0.023 C 
ATOM     16  C   UNL     1      33.300 -10.214 -22.744  0.00  0.00    -0.004 C 
ATOM     17  C   UNL     1      34.405 -10.413 -23.662  0.00  0.00    -0.005 C 
ATOM     18  C   UNL     1      31.868 -11.530 -21.298  0.00  0.00    -0.004 C 
ATOM     19  C   UNL     1      32.659  -9.039 -22.386  0.00  0.00    -0.000 C 
ATOM     20  C   UNL     1      31.215 -10.351 -20.930  0.00  0.00    -0.000 C 
ATOM     21  C   UNL     1      31.608  -9.115 -21.470  0.00  0.00    -0.000 C 
ATOM     22  H   UNL     1      33.782 -15.718 -22.254  0.00  0.00    -0.079 HD
ENDBRANCH   7   8
ENDBRANCH   1   7
BRANCH   6  23
ATOM     23  C   UNL     1      36.326 -20.277 -19.063  0.00  0.00    +0.232 C 
BRANCH  23  24
ATOM     24  O   UNL     1      35.506 -21.430 -19.215  0.00  0.00    -0.471 OA
BRANCH  24  25
ATOM     25  C   UNL     1      34.627 -21.700 -18.199  0.00  0.00    +0.139 C 
ATOM     26  C   UNL     1      32.837 -22.253 -16.132  0.00  0.00    -0.010 C 
ATOM     27  C   UNL     1      35.088 -22.261 -17.008  0.00  0.00    +0.037 C 
ATOM     28  C   UNL     1      33.270 -21.417 -18.357  0.00  0.00    +0.037 C 
ATOM     29  C   UNL     1      34.193 -22.537 -15.974  0.00  0.00    -0.000 C 
ATOM     30  C   UNL     1      32.375 -21.694 -17.323  0.00  0.00    -0.000 C 
BRANCH  26  31
ATOM     31  C   UNL     1      31.879 -22.549 -15.028  0.00  0.00    +0.097 C 
BRANCH  31  32
ATOM     32  C   UNL     1      30.465 -22.449 -15.484  0.00  0.00    -0.087 C 
ATOM     33  C   UNL     1      29.321 -22.384 -15.846  0.00  0.00    -0.090 C 
ATOM     34  C   UNL     1      27.930 -22.307 -16.288  0.00  0.00    +0.090 C 
ENDBRANCH  31  32
BRANCH  31  35
ATOM     35  C   UNL     1      32.132 -23.938 -14.383  0.00  0.00    +0.127 C 
BRANCH  35  37
ATOM     36  O   UNL     1      30.966 -23.916 -12.239  0.00  0.00    -0.250 OA
ATOM     37  C   UNL     1      31.079 -24.355 -13.374  0.00  0.00    +0.315 C 
BRANCH  37  38
ATOM     38  O   UNL     1      30.240 -25.290 -13.894  0.00  0.00    -0.480 OA
ATOM     39  H   UNL     1      30.184 -26.138 -13.502  0.00  0.00    +0.295 HD
ENDBRANCH  37  38
ENDBRANCH  35  37
ENDBRANCH  31  35
ENDBRANCH  26  31
ENDBRANCH  24  25
ENDBRANCH  23  24
ENDBRANCH   6  23
TORSDOF 10
ENDMDL
MODEL 8
REMARK VINA RESULT:     -11.4      3.588      7.427
REMARK  Name = 51049992
REMARK  10 active torsions:
REMARK  status: ('A' for Active; 'I' for Inactive)
REMARK    1  A    between atoms: C_1  and  C_7
REMARK    2  A    between atoms: C_6  and  C_23
REMARK    3  A    between atoms: C_7  and  N_8
REMARK    4  A    between atoms: C_23  and  O_24
REMARK    5  A    between atoms: O_24  and  C_25
REMARK    6  A    between atoms: C_26  and  C_31
REMARK    7  A    between atoms: C_31  and  C_32
REMARK    8  A    between atoms: C_31  and  C_35
REMARK    9  A    between atoms: C_35  and  C_37
REMARK   10  A    between atoms: C_37  and  O_38
REMARK                            x       y       z     vdW  Elec       q    Type
REMARK                         _______ _______ _______ _____ _____    ______ ____
ROOT
ATOM      1  C   UNL     1      32.866 -11.101 -21.809  0.00  0.00    -0.043 C 
ATOM      2  C   UNL     1      32.722 -12.311 -21.130  0.00  0.00    -0.007 C 
ATOM      3  C   UNL     1      33.582 -11.055 -23.006  0.00  0.00    -0.007 C 
ATOM      4  C   UNL     1      33.294 -13.474 -21.646  0.00  0.00    -0.001 C 
ATOM      5  C   UNL     1      34.154 -12.217 -23.522  0.00  0.00    -0.001 C 
ATOM      6  C   UNL     1      34.009 -13.427 -22.843  0.00  0.00    +0.021 C 
ENDROOT
BRANCH   1   7
ATOM      7  C   UNL     1      32.249  -9.847 -21.251  0.00  0.00    -0.050 C 
BRANCH   7   8
ATOM      8  N   UNL     1      32.434  -8.704 -22.146  0.00  0.00    +0.390 N 
ATOM      9  C   UNL     1      32.414  -5.857 -22.908  0.00  0.00    +0.033 C 
ATOM     10  C   UNL     1      33.706  -6.622 -22.569  0.00  0.00    -0.015 C 
ATOM     11  C   UNL     1      31.319  -6.846 -23.346  0.00  0.00    -0.015 C 
ATOM     12  C   UNL     1      31.157  -8.008 -22.360  0.00  0.00    -0.076 C 
ATOM     13  C   UNL     1      33.454  -7.793 -21.613  0.00  0.00    -0.076 C 
ATOM     14  C   UNL     1      32.653  -4.784 -23.950  0.00  0.00    -0.019 C 
ATOM     15  C   UNL     1      31.952  -4.989 -21.738  0.00  0.00    -0.023 C 
ATOM     16  C   UNL     1      32.357  -3.524 -23.407  0.00  0.00    -0.004 C 
ATOM     17  C   UNL     1      31.924  -3.680 -22.032  0.00  0.00    -0.005 C 
ATOM     18  C   UNL     1      33.092  -4.907 -25.258  0.00  0.00    -0.004 C 
ATOM     19  C   UNL     1      32.493  -2.367 -24.157  0.00  0.00    -0.000 C 
ATOM     20  C   UNL     1      33.232  -3.745 -26.023  0.00  0.00    -0.000 C 
ATOM     21  C   UNL     1      32.935  -2.487 -25.477  0.00  0.00    -0.000 C 
ATOM     22  H   UNL     1      32.760  -9.045 -23.050  0.00  0.00    -0.079 HD
ENDBRANCH   7   8
ENDBRANCH   1   7
BRANCH   6  23
ATOM     23  C   UNL     1      34.618 -14.670 -23.397  0.00  0.00    +0.232 C 
BRANCH  23  24
ATOM     24  O   UNL     1      35.656 -15.115 -22.531  0.00  0.00    -0.471 OA
BRANCH  24  25
ATOM     25  C   UNL     1      35.501 -16.354 -21.968  0.00  0.00    +0.139 C 
ATOM     26  C   UNL     1      35.188 -18.878 -20.821  0.00  0.00    -0.010 C 
ATOM     27  C   UNL     1      35.577 -16.506 -20.583  0.00  0.00    +0.037 C 
ATOM     28  C   UNL     1      35.269 -17.465 -22.779  0.00  0.00    +0.037 C 
ATOM     29  C   UNL     1      35.420 -17.768 -20.010  0.00  0.00    -0.000 C 
ATOM     30  C   UNL     1      35.113 -18.727 -22.206  0.00  0.00    -0.000 C 
BRANCH  26  31
ATOM     31  C   UNL     1      35.020 -20.228 -20.209  0.00  0.00    +0.097 C 
BRANCH  31  32
ATOM     32  C   UNL     1      35.908 -20.410 -19.028  0.00  0.00    -0.087 C 
ATOM     33  C   UNL     1      36.613 -20.569 -18.067  0.00  0.00    -0.090 C 
ATOM     34  C   UNL     1      37.468 -20.759 -16.898  0.00  0.00    +0.090 C 
ENDBRANCH  31  32
BRANCH  31  35
ATOM     35  C   UNL     1      33.547 -20.519 -19.816  0.00  0.00    +0.127 C 
BRANCH  35  37
ATOM     36  O   UNL     1      33.853 -22.817 -19.052  0.00  0.00    -0.250 OA
ATOM     37  C   UNL     1      33.375 -21.703 -18.885  0.00  0.00    +0.315 C 
BRANCH  37  38
ATOM     38  O   UNL     1      32.618 -21.376 -17.804  0.00  0.00    -0.480 OA
ATOM     39  H   UNL     1      32.069 -22.020 -17.404  0.00  0.00    +0.295 HD
ENDBRANCH  37  38
ENDBRANCH  35  37
ENDBRANCH  31  35
ENDBRANCH  26  31
ENDBRANCH  24  25
ENDBRANCH  23  24
ENDBRANCH   6  23
TORSDOF 10
ENDMDL
MODEL 9
REMARK VINA RESULT:     -11.4      2.628      4.757
REMARK  Name = 51049992
REMARK  10 active torsions:
REMARK  status: ('A' for Active; 'I' for Inactive)
REMARK    1  A    between atoms: C_1  and  C_7
REMARK    2  A    between atoms: C_6  and  C_23
REMARK    3  A    between atoms: C_7  and  N_8
REMARK    4  A    between atoms: C_23  and  O_24
REMARK    5  A    between atoms: O_24  and  C_25
REMARK    6  A    between atoms: C_26  and  C_31
REMARK    7  A    between atoms: C_31  and  C_32
REMARK    8  A    between atoms: C_31  and  C_35
REMARK    9  A    between atoms: C_35  and  C_37
REMARK   10  A    between atoms: C_37  and  O_38
REMARK                            x       y       z     vdW  Elec       q    Type
REMARK                         _______ _______ _______ _____ _____    ______ ____
ROOT
ATOM      1  C   UNL     1      35.900 -21.272 -18.526  0.00  0.00    -0.043 C 
ATOM      2  C   UNL     1      34.634 -21.636 -18.986  0.00  0.00    -0.007 C 
ATOM      3  C   UNL     1      36.174 -21.279 -17.158  0.00  0.00    -0.007 C 
ATOM      4  C   UNL     1      33.643 -22.008 -18.078  0.00  0.00    -0.001 C 
ATOM      5  C   UNL     1      35.183 -21.651 -16.250  0.00  0.00    -0.001 C 
ATOM      6  C   UNL     1      33.917 -22.016 -16.710  0.00  0.00    +0.021 C 
ENDROOT
BRANCH   1   7
ATOM      7  C   UNL     1      36.969 -20.870 -19.506  0.00  0.00    -0.050 C 
BRANCH   7   8
ATOM      8  N   UNL     1      36.486 -19.871 -20.460  0.00  0.00    +0.390 N 
ATOM      9  C   UNL     1      35.524 -17.220 -21.317  0.00  0.00    +0.033 C 
ATOM     10  C   UNL     1      36.960 -17.711 -21.575  0.00  0.00    -0.015 C 
ATOM     11  C   UNL     1      34.587 -18.425 -21.119  0.00  0.00    -0.015 C 
ATOM     12  C   UNL     1      35.135 -19.425 -20.095  0.00  0.00    -0.076 C 
ATOM     13  C   UNL     1      37.419 -18.738 -20.534  0.00  0.00    -0.076 C 
ATOM     14  C   UNL     1      35.037 -16.303 -22.420  0.00  0.00    -0.019 C 
ATOM     15  C   UNL     1      35.462 -16.259 -20.130  0.00  0.00    -0.023 C 
ATOM     16  C   UNL     1      34.755 -15.035 -21.891  0.00  0.00    -0.004 C 
ATOM     17  C   UNL     1      35.029 -15.034 -20.467  0.00  0.00    -0.005 C 
ATOM     18  C   UNL     1      34.857 -16.564 -23.769  0.00  0.00    -0.004 C 
ATOM     19  C   UNL     1      34.292 -14.006 -22.694  0.00  0.00    -0.000 C 
ATOM     20  C   UNL     1      34.390 -15.533 -24.588  0.00  0.00    -0.000 C 
ATOM     21  C   UNL     1      34.110 -14.264 -24.055  0.00  0.00    -0.000 C 
ATOM     22  H   UNL     1      36.437 -20.296 -21.385  0.00  0.00    -0.079 HD
ENDBRANCH   7   8
ENDBRANCH   1   7
BRANCH   6  23
ATOM     23  C   UNL     1      32.859 -22.417 -15.739  0.00  0.00    +0.232 C 
BRANCH  23  24
ATOM     24  O   UNL     1      33.067 -23.768 -15.344  0.00  0.00    -0.471 OA
BRANCH  24  25
ATOM     25  C   UNL     1      34.127 -24.011 -14.511  0.00  0.00    +0.139 C 
ATOM     26  C   UNL     1      36.287 -24.505 -12.817  0.00  0.00    -0.010 C 
ATOM     27  C   UNL     1      34.127 -23.500 -13.214  0.00  0.00    +0.037 C 
ATOM     28  C   UNL     1      35.208 -24.769 -14.962  0.00  0.00    +0.037 C 
ATOM     29  C   UNL     1      35.207 -23.747 -12.366  0.00  0.00    -0.000 C 
ATOM     30  C   UNL     1      36.288 -25.016 -14.114  0.00  0.00    -0.000 C 
BRANCH  26  31
ATOM     31  C   UNL     1      37.443 -24.769 -11.911  0.00  0.00    +0.097 C 
BRANCH  31  32
ATOM     32  C   UNL     1      38.695 -25.020 -12.677  0.00  0.00    -0.087 C 
ATOM     33  C   UNL     1      39.697 -25.232 -13.306  0.00  0.00    -0.090 C 
ATOM     34  C   UNL     1      40.915 -25.493 -14.069  0.00  0.00    +0.090 C 
ENDBRANCH  31  32
BRANCH  31  35
ATOM     35  C   UNL     1      37.666 -23.622 -10.889  0.00  0.00    +0.127 C 
BRANCH  35  37
ATOM     36  O   UNL     1      37.942 -21.610 -12.242  0.00  0.00    -0.250 OA
ATOM     37  C   UNL     1      38.402 -22.423 -11.452  0.00  0.00    +0.315 C 
BRANCH  37  38
ATOM     38  O   UNL     1      39.665 -22.341 -10.956  0.00  0.00    -0.480 OA
ATOM     39  H   UNL     1      40.292 -23.006 -11.159  0.00  0.00    +0.295 HD
ENDBRANCH  37  38
ENDBRANCH  35  37
ENDBRANCH  31  35
ENDBRANCH  26  31
ENDBRANCH  24  25
ENDBRANCH  23  24
ENDBRANCH   6  23
TORSDOF 10
ENDMDL
