MODEL 1
REMARK VINA RESULT:     -11.7      0.000      0.000
REMARK  Name = 11574606
REMARK  6 active torsions:
REMARK  status: ('A' for Active; 'I' for Inactive)
REMARK    1  A    between atoms: C_5  and  O_24
REMARK    2  A    between atoms: C_7  and  N_10
REMARK    3  A    between atoms: N_10  and  C_12
REMARK    4  A    between atoms: C_15  and  S_18
REMARK    5  A    between atoms: S_18  and  N_21
REMARK    6  A    between atoms: O_24  and  C_25
REMARK                            x       y       z     vdW  Elec       q    Type
REMARK                         _______ _______ _______ _____ _____    ______ ____
ROOT
ATOM      1  N   UNL     1      33.620 -22.877 -13.723  0.00  0.00    -0.299 NA
ATOM      2  N   UNL     1      32.562 -22.552 -15.858  0.00  0.00    -0.106 N 
ATOM      3  N   UNL     1      31.305 -22.395 -16.349  0.00  0.00    -0.139 NA
ATOM      4  N   UNL     1      31.233 -22.640 -14.086  0.00  0.00    -0.145 NA
ATOM      5  C   UNL     1      34.731 -22.894 -14.388  0.00  0.00    +0.291 C 
ATOM      6  C   UNL     1      34.914 -22.747 -15.848  0.00  0.00    +0.105 C 
ATOM      7  C   UNL     1      33.781 -22.575 -16.552  0.00  0.00    +0.142 C 
ATOM      8  C   UNL     1      32.492 -22.701 -14.468  0.00  0.00    +0.178 C 
ATOM      9  C   UNL     1      30.560 -22.455 -15.249  0.00  0.00    +0.230 C 
ENDROOT
BRANCH   7  10
ATOM     10  N   UNL     1      33.740 -22.420 -17.909  0.00  0.00    -0.299 N 
ATOM     11  H   UNL     1      33.308 -23.149 -18.410  0.00  0.00    +0.153 HD
BRANCH  10  12
ATOM     12  C   UNL     1      34.233 -21.360 -18.677  0.00  0.00    +0.049 C 
ATOM     13  C   UNL     1      35.612 -21.154 -18.799  0.00  0.00    +0.016 C 
ATOM     14  C   UNL     1      33.351 -20.492 -19.335  0.00  0.00    +0.016 C 
ATOM     15  C   UNL     1      35.218 -19.237 -20.216  0.00  0.00    +0.122 C 
ATOM     16  C   UNL     1      36.103 -20.096 -19.566  0.00  0.00    +0.021 C 
ATOM     17  C   UNL     1      33.842 -19.435 -20.100  0.00  0.00    +0.021 C 
BRANCH  15  18
ATOM     18  S   UNL     1      35.832 -17.913 -21.175  0.00  0.00    +0.057 S 
ATOM     19  O   UNL     1      37.283 -18.025 -21.236  0.00  0.00    -0.153 OA
ATOM     20  O   UNL     1      35.060 -17.836 -22.406  0.00  0.00    -0.153 OA
BRANCH  18  21
ATOM     21  N   UNL     1      35.424 -16.580 -20.187  0.00  0.00    -0.203 NA
ATOM     22  H   UNL     1      34.925 -15.884 -20.744  0.00  0.00    +0.144 HD
ATOM     23  H   UNL     1      36.275 -16.164 -19.808  0.00  0.00    +0.144 HD
ENDBRANCH  18  21
ENDBRANCH  15  18
ENDBRANCH  10  12
ENDBRANCH   7  10
BRANCH   5  24
ATOM     24  O   UNL     1      35.907 -23.063 -13.737  0.00  0.00    -0.455 OA
BRANCH  24  25
ATOM     25  C   UNL     1      36.058 -24.399 -13.259  0.00  0.00    +0.169 C 
ATOM     26  C   UNL     1      37.007 -25.173 -14.175  0.00  0.00    +0.044 C 
ATOM     27  C   UNL     1      36.576 -24.350 -11.822  0.00  0.00    +0.044 C 
ATOM     28  C   UNL     1      38.441 -24.646 -14.094  0.00  0.00    +0.004 C 
ATOM     29  C   UNL     1      38.010 -23.828 -11.744  0.00  0.00    +0.004 C 
ATOM     30  C   UNL     1      38.947 -24.616 -12.654  0.00  0.00    +0.000 C 
ENDBRANCH  24  25
ENDBRANCH   5  24
TORSDOF 6
ENDMDL
MODEL 2
REMARK VINA RESULT:     -10.8      3.406      7.176
REMARK  Name = 11574606
REMARK  6 active torsions:
REMARK  status: ('A' for Active; 'I' for Inactive)
REMARK    1  A    between atoms: C_5  and  O_24
REMARK    2  A    between atoms: C_7  and  N_10
REMARK    3  A    between atoms: N_10  and  C_12
REMARK    4  A    between atoms: C_15  and  S_18
REMARK    5  A    between atoms: S_18  and  N_21
REMARK    6  A    between atoms: O_24  and  C_25
REMARK                            x       y       z     vdW  Elec       q    Type
REMARK                         _______ _______ _______ _____ _____    ______ ____
ROOT
ATOM      1  N   UNL     1      31.666 -22.343 -16.549  0.00  0.00    -0.299 NA
ATOM      2  N   UNL     1      32.147 -23.822 -14.715  0.00  0.00    -0.106 N 
ATOM      3  N   UNL     1      31.474 -24.689 -13.913  0.00  0.00    -0.139 NA
ATOM      4  N   UNL     1      30.043 -23.743 -15.412  0.00  0.00    -0.145 NA
ATOM      5  C   UNL     1      32.928 -22.055 -16.517  0.00  0.00    +0.291 C 
ATOM      6  C   UNL     1      33.956 -22.595 -15.601  0.00  0.00    +0.105 C 
ATOM      7  C   UNL     1      33.510 -23.490 -14.703  0.00  0.00    +0.142 C 
ATOM      8  C   UNL     1      31.248 -23.254 -15.626  0.00  0.00    +0.178 C 
ATOM      9  C   UNL     1      30.231 -24.599 -14.376  0.00  0.00    +0.230 C 
ENDROOT
BRANCH   7  10
ATOM     10  N   UNL     1      34.302 -24.101 -13.773  0.00  0.00    -0.299 N 
ATOM     11  H   UNL     1      33.845 -24.414 -12.959  0.00  0.00    +0.153 HD
BRANCH  10  12
ATOM     12  C   UNL     1      35.679 -24.340 -13.828  0.00  0.00    +0.049 C 
ATOM     13  C   UNL     1      36.181 -25.437 -14.539  0.00  0.00    +0.016 C 
ATOM     14  C   UNL     1      36.574 -23.483 -13.173  0.00  0.00    +0.016 C 
ATOM     15  C   UNL     1      38.438 -24.817 -13.938  0.00  0.00    +0.122 C 
ATOM     16  C   UNL     1      37.555 -25.674 -14.594  0.00  0.00    +0.021 C 
ATOM     17  C   UNL     1      37.946 -23.721 -13.228  0.00  0.00    +0.021 C 
BRANCH  15  18
ATOM     18  S   UNL     1      40.157 -25.113 -14.005  0.00  0.00    +0.057 S 
ATOM     19  O   UNL     1      40.828 -24.113 -13.185  0.00  0.00    -0.153 OA
ATOM     20  O   UNL     1      40.393 -26.529 -13.757  0.00  0.00    -0.153 OA
BRANCH  18  21
ATOM     21  N   UNL     1      40.480 -24.784 -15.650  0.00  0.00    -0.203 NA
ATOM     22  H   UNL     1      39.610 -24.539 -16.125  0.00  0.00    +0.144 HD
ATOM     23  H   UNL     1      40.885 -25.611 -16.090  0.00  0.00    +0.144 HD
ENDBRANCH  18  21
ENDBRANCH  15  18
ENDBRANCH  10  12
ENDBRANCH   7  10
BRANCH   5  24
ATOM     24  O   UNL     1      33.441 -21.160 -17.395  0.00  0.00    -0.455 OA
BRANCH  24  25
ATOM     25  C   UNL     1      33.513 -21.697 -18.715  0.00  0.00    +0.169 C 
ATOM     26  C   UNL     1      32.930 -20.695 -19.713  0.00  0.00    +0.044 C 
ATOM     27  C   UNL     1      34.971 -22.025 -19.032  0.00  0.00    +0.044 C 
ATOM     28  C   UNL     1      33.793 -19.439 -19.837  0.00  0.00    +0.004 C 
ATOM     29  C   UNL     1      35.831 -20.767 -19.160  0.00  0.00    +0.004 C 
ATOM     30  C   UNL     1      35.243 -19.784 -20.167  0.00  0.00    +0.000 C 
ENDBRANCH  24  25
ENDBRANCH   5  24
TORSDOF 6
ENDMDL
MODEL 3
REMARK VINA RESULT:     -10.7      3.684      7.258
REMARK  Name = 11574606
REMARK  6 active torsions:
REMARK  status: ('A' for Active; 'I' for Inactive)
REMARK    1  A    between atoms: C_5  and  O_24
REMARK    2  A    between atoms: C_7  and  N_10
REMARK    3  A    between atoms: N_10  and  C_12
REMARK    4  A    between atoms: C_15  and  S_18
REMARK    5  A    between atoms: S_18  and  N_21
REMARK    6  A    between atoms: O_24  and  C_25
REMARK                            x       y       z     vdW  Elec       q    Type
REMARK                         _______ _______ _______ _____ _____    ______ ____
ROOT
ATOM      1  N   UNL     1      37.677 -21.835 -15.974  0.00  0.00    -0.299 NA
ATOM      2  N   UNL     1      36.477 -23.265 -14.457  0.00  0.00    -0.106 N 
ATOM      3  N   UNL     1      36.760 -24.148 -13.465  0.00  0.00    -0.139 NA
ATOM      4  N   UNL     1      38.690 -23.285 -14.312  0.00  0.00    -0.145 NA
ATOM      5  C   UNL     1      36.510 -21.492 -16.417  0.00  0.00    +0.291 C 
ATOM      6  C   UNL     1      35.190 -21.975 -15.957  0.00  0.00    +0.105 C 
ATOM      7  C   UNL     1      35.226 -22.874 -14.959  0.00  0.00    +0.142 C 
ATOM      8  C   UNL     1      37.676 -22.748 -14.962  0.00  0.00    +0.178 C 
ATOM      9  C   UNL     1      38.088 -24.117 -13.425  0.00  0.00    +0.230 C 
ENDROOT
BRANCH   7  10
ATOM     10  N   UNL     1      34.116 -23.438 -14.396  0.00  0.00    -0.299 N 
ATOM     11  H   UNL     1      34.283 -24.081 -13.670  0.00  0.00    +0.153 HD
BRANCH  10  12
ATOM     12  C   UNL     1      32.773 -23.219 -14.720  0.00  0.00    +0.049 C 
ATOM     13  C   UNL     1      31.758 -23.591 -13.829  0.00  0.00    +0.016 C 
ATOM     14  C   UNL     1      32.425 -22.624 -15.940  0.00  0.00    +0.016 C 
ATOM     15  C   UNL     1      30.083 -22.780 -15.369  0.00  0.00    +0.122 C 
ATOM     16  C   UNL     1      30.419 -23.372 -14.152  0.00  0.00    +0.021 C 
ATOM     17  C   UNL     1      31.087 -22.407 -16.263  0.00  0.00    +0.021 C 
BRANCH  15  18
ATOM     18  S   UNL     1      28.407 -22.508 -15.775  0.00  0.00    +0.057 S 
ATOM     19  O   UNL     1      27.617 -22.610 -14.555  0.00  0.00    -0.153 OA
ATOM     20  O   UNL     1      28.318 -21.308 -16.595  0.00  0.00    -0.153 OA
BRANCH  18  21
ATOM     21  N   UNL     1      28.084 -23.868 -16.756  0.00  0.00    -0.203 NA
ATOM     22  H   UNL     1      28.925 -24.441 -16.831  0.00  0.00    +0.144 HD
ATOM     23  H   UNL     1      27.801 -23.558 -17.686  0.00  0.00    +0.144 HD
ENDBRANCH  18  21
ENDBRANCH  15  18
ENDBRANCH  10  12
ENDBRANCH   7  10
BRANCH   5  24
ATOM     24  O   UNL     1      36.406 -20.590 -17.422  0.00  0.00    -0.455 OA
BRANCH  24  25
ATOM     25  C   UNL     1      36.303 -21.228 -18.694  0.00  0.00    +0.169 C 
ATOM     26  C   UNL     1      34.844 -21.589 -18.976  0.00  0.00    +0.044 C 
ATOM     27  C   UNL     1      36.867 -20.289 -19.760  0.00  0.00    +0.044 C 
ATOM     28  C   UNL     1      33.972 -20.348 -19.175  0.00  0.00    +0.004 C 
ATOM     29  C   UNL     1      35.992 -19.052 -19.960  0.00  0.00    +0.004 C 
ATOM     30  C   UNL     1      34.542 -19.428 -20.251  0.00  0.00    +0.000 C 
ENDBRANCH  24  25
ENDBRANCH   5  24
TORSDOF 6
ENDMDL
MODEL 4
REMARK VINA RESULT:     -10.5      5.103     10.909
REMARK  Name = 11574606
REMARK  6 active torsions:
REMARK  status: ('A' for Active; 'I' for Inactive)
REMARK    1  A    between atoms: C_5  and  O_24
REMARK    2  A    between atoms: C_7  and  N_10
REMARK    3  A    between atoms: N_10  and  C_12
REMARK    4  A    between atoms: C_15  and  S_18
REMARK    5  A    between atoms: S_18  and  N_21
REMARK    6  A    between atoms: O_24  and  C_25
REMARK                            x       y       z     vdW  Elec       q    Type
REMARK                         _______ _______ _______ _____ _____    ______ ____
ROOT
ATOM      1  N   UNL     1      34.199 -15.313 -24.104  0.00  0.00    -0.299 NA
ATOM      2  N   UNL     1      35.033 -17.390 -23.222  0.00  0.00    -0.106 N 
ATOM      3  N   UNL     1      35.027 -18.706 -23.560  0.00  0.00    -0.139 NA
ATOM      4  N   UNL     1      33.914 -17.492 -25.133  0.00  0.00    -0.145 NA
ATOM      5  C   UNL     1      34.738 -14.769 -23.061  0.00  0.00    +0.291 C 
ATOM      6  C   UNL     1      35.483 -15.440 -21.973  0.00  0.00    +0.105 C 
ATOM      7  C   UNL     1      35.606 -16.772 -22.100  0.00  0.00    +0.142 C 
ATOM      8  C   UNL     1      34.344 -16.665 -24.202  0.00  0.00    +0.178 C 
ATOM      9  C   UNL     1      34.349 -18.704 -24.704  0.00  0.00    +0.230 C 
ENDROOT
BRANCH   7  10
ATOM     10  N   UNL     1      36.258 -17.570 -21.203  0.00  0.00    -0.299 N 
ATOM     11  H   UNL     1      37.206 -17.356 -21.049  0.00  0.00    +0.153 HD
BRANCH  10  12
ATOM     12  C   UNL     1      35.751 -18.651 -20.475  0.00  0.00    +0.049 C 
ATOM     13  C   UNL     1      34.370 -18.870 -20.399  0.00  0.00    +0.016 C 
ATOM     14  C   UNL     1      36.619 -19.530 -19.814  0.00  0.00    +0.016 C 
ATOM     15  C   UNL     1      34.737 -20.818 -19.017  0.00  0.00    +0.122 C 
ATOM     16  C   UNL     1      33.865 -19.949 -19.673  0.00  0.00    +0.021 C 
ATOM     17  C   UNL     1      36.114 -20.608 -19.088  0.00  0.00    +0.021 C 
BRANCH  15  18
ATOM     18  S   UNL     1      34.106 -22.168 -18.108  0.00  0.00    +0.057 S 
ATOM     19  O   UNL     1      34.044 -23.327 -18.989  0.00  0.00    -0.153 OA
ATOM     20  O   UNL     1      34.829 -22.257 -16.847  0.00  0.00    -0.153 OA
BRANCH  18  21
ATOM     21  N   UNL     1      32.515 -21.632 -17.791  0.00  0.00    -0.203 NA
ATOM     22  H   UNL     1      31.887 -22.435 -17.750  0.00  0.00    +0.144 HD
ATOM     23  H   UNL     1      32.213 -21.002 -18.535  0.00  0.00    +0.144 HD
ENDBRANCH  18  21
ENDBRANCH  15  18
ENDBRANCH  10  12
ENDBRANCH   7  10
BRANCH   5  24
ATOM     24  O   UNL     1      34.649 -13.430 -22.873  0.00  0.00    -0.455 OA
BRANCH  24  25
ATOM     25  C   UNL     1      33.501 -12.882 -23.518  0.00  0.00    +0.169 C 
ATOM     26  C   UNL     1      32.422 -12.573 -22.479  0.00  0.00    +0.044 C 
ATOM     27  C   UNL     1      33.921 -11.628 -24.285  0.00  0.00    +0.044 C 
ATOM     28  C   UNL     1      32.832 -11.433 -21.546  0.00  0.00    +0.004 C 
ATOM     29  C   UNL     1      34.326 -10.489 -23.349  0.00  0.00    +0.004 C 
ATOM     30  C   UNL     1      33.236 -10.185 -22.326  0.00  0.00    +0.000 C 
ENDBRANCH  24  25
ENDBRANCH   5  24
TORSDOF 6
ENDMDL
MODEL 5
REMARK VINA RESULT:     -10.5      5.205     10.729
REMARK  Name = 11574606
REMARK  6 active torsions:
REMARK  status: ('A' for Active; 'I' for Inactive)
REMARK    1  A    between atoms: C_5  and  O_24
REMARK    2  A    between atoms: C_7  and  N_10
REMARK    3  A    between atoms: N_10  and  C_12
REMARK    4  A    between atoms: C_15  and  S_18
REMARK    5  A    between atoms: S_18  and  N_21
REMARK    6  A    between atoms: O_24  and  C_25
REMARK                            x       y       z     vdW  Elec       q    Type
REMARK                         _______ _______ _______ _____ _____    ______ ____
ROOT
ATOM      1  N   UNL     1      33.735 -13.799 -22.680  0.00  0.00    -0.299 NA
ATOM      2  N   UNL     1      34.934 -15.863 -22.971  0.00  0.00    -0.106 N 
ATOM      3  N   UNL     1      35.212 -16.738 -23.973  0.00  0.00    -0.139 NA
ATOM      4  N   UNL     1      33.945 -15.019 -24.767  0.00  0.00    -0.145 NA
ATOM      5  C   UNL     1      34.104 -13.875 -21.441  0.00  0.00    +0.291 C 
ATOM      6  C   UNL     1      34.921 -14.930 -20.804  0.00  0.00    +0.105 C 
ATOM      7  C   UNL     1      35.319 -15.919 -21.623  0.00  0.00    +0.142 C 
ATOM      8  C   UNL     1      34.156 -14.818 -23.482  0.00  0.00    +0.178 C 
ATOM      9  C   UNL     1      34.599 -16.182 -25.014  0.00  0.00    +0.230 C 
ENDROOT
BRANCH   7  10
ATOM     10  N   UNL     1      36.079 -16.982 -21.225  0.00  0.00    -0.299 N 
ATOM     11  H   UNL     1      37.042 -16.918 -21.420  0.00  0.00    +0.153 HD
BRANCH  10  12
ATOM     12  C   UNL     1      35.665 -18.152 -20.579  0.00  0.00    +0.049 C 
ATOM     13  C   UNL     1      34.318 -18.534 -20.597  0.00  0.00    +0.016 C 
ATOM     14  C   UNL     1      36.594 -18.956 -19.906  0.00  0.00    +0.016 C 
ATOM     15  C   UNL     1      34.838 -20.494 -19.284  0.00  0.00    +0.122 C 
ATOM     16  C   UNL     1      33.906 -19.701 -19.952  0.00  0.00    +0.021 C 
ATOM     17  C   UNL     1      36.182 -20.121 -19.261  0.00  0.00    +0.021 C 
BRANCH  15  18
ATOM     18  S   UNL     1      34.323 -21.953 -18.476  0.00  0.00    +0.057 S 
ATOM     19  O   UNL     1      34.272 -23.029 -19.458  0.00  0.00    -0.153 OA
ATOM     20  O   UNL     1      35.114 -22.117 -17.265  0.00  0.00    -0.153 OA
BRANCH  18  21
ATOM     21  N   UNL     1      32.726 -21.535 -18.035  0.00  0.00    -0.203 NA
ATOM     22  H   UNL     1      32.274 -21.052 -18.812  0.00  0.00    +0.144 HD
ATOM     23  H   UNL     1      32.747 -20.921 -17.220  0.00  0.00    +0.144 HD
ENDBRANCH  18  21
ENDBRANCH  15  18
ENDBRANCH  10  12
ENDBRANCH   7  10
BRANCH   5  24
ATOM     24  O   UNL     1      33.736 -12.910 -20.565  0.00  0.00    -0.455 OA
BRANCH  24  25
ATOM     25  C   UNL     1      32.317 -12.794 -20.473  0.00  0.00    +0.169 C 
ATOM     26  C   UNL     1      31.931 -12.227 -19.106  0.00  0.00    +0.044 C 
ATOM     27  C   UNL     1      31.823 -11.903 -21.613  0.00  0.00    +0.044 C 
ATOM     28  C   UNL     1      32.378 -10.773 -18.940  0.00  0.00    +0.004 C 
ATOM     29  C   UNL     1      32.267 -10.450 -21.442  0.00  0.00    +0.004 C 
ATOM     30  C   UNL     1      31.865  -9.895 -20.078  0.00  0.00    +0.000 C 
ENDBRANCH  24  25
ENDBRANCH   5  24
TORSDOF 6
ENDMDL
MODEL 6
REMARK VINA RESULT:     -10.2      2.095      5.283
REMARK  Name = 11574606
REMARK  6 active torsions:
REMARK  status: ('A' for Active; 'I' for Inactive)
REMARK    1  A    between atoms: C_5  and  O_24
REMARK    2  A    between atoms: C_7  and  N_10
REMARK    3  A    between atoms: N_10  and  C_12
REMARK    4  A    between atoms: C_15  and  S_18
REMARK    5  A    between atoms: S_18  and  N_21
REMARK    6  A    between atoms: O_24  and  C_25
REMARK                            x       y       z     vdW  Elec       q    Type
REMARK                         _______ _______ _______ _____ _____    ______ ____
ROOT
ATOM      1  N   UNL     1      32.284 -22.805 -14.851  0.00  0.00    -0.299 NA
ATOM      2  N   UNL     1      34.498 -22.792 -15.790  0.00  0.00    -0.106 N 
ATOM      3  N   UNL     1      35.764 -23.091 -15.397  0.00  0.00    -0.139 NA
ATOM      4  N   UNL     1      34.308 -23.463 -13.685  0.00  0.00    -0.145 NA
ATOM      5  C   UNL     1      31.898 -22.371 -16.008  0.00  0.00    +0.291 C 
ATOM      6  C   UNL     1      32.736 -22.090 -17.194  0.00  0.00    +0.105 C 
ATOM      7  C   UNL     1      34.050 -22.320 -17.033  0.00  0.00    +0.142 C 
ATOM      8  C   UNL     1      33.623 -23.028 -14.723  0.00  0.00    +0.178 C 
ATOM      9  C   UNL     1      35.587 -23.485 -14.140  0.00  0.00    +0.230 C 
ENDROOT
BRANCH   7  10
ATOM     10  N   UNL     1      34.986 -22.123 -18.009  0.00  0.00    -0.299 N 
ATOM     11  H   UNL     1      35.638 -22.851 -18.132  0.00  0.00    +0.153 HD
BRANCH  10  12
ATOM     12  C   UNL     1      35.139 -21.020 -18.855  0.00  0.00    +0.049 C 
ATOM     13  C   UNL     1      36.410 -20.487 -19.104  0.00  0.00    +0.016 C 
ATOM     14  C   UNL     1      34.022 -20.434 -19.466  0.00  0.00    +0.016 C 
ATOM     15  C   UNL     1      35.444 -18.810 -20.550  0.00  0.00    +0.122 C 
ATOM     16  C   UNL     1      36.562 -19.386 -19.948  0.00  0.00    +0.021 C 
ATOM     17  C   UNL     1      34.174 -19.334 -20.309  0.00  0.00    +0.021 C 
BRANCH  15  18
ATOM     18  S   UNL     1      35.633 -17.432 -21.606  0.00  0.00    +0.057 S 
ATOM     19  O   UNL     1      34.842 -17.663 -22.807  0.00  0.00    -0.153 OA
ATOM     20  O   UNL     1      35.428 -16.220 -20.827  0.00  0.00    -0.153 OA
BRANCH  18  21
ATOM     21  N   UNL     1      37.290 -17.554 -22.006  0.00  0.00    -0.203 NA
ATOM     22  H   UNL     1      37.422 -18.307 -22.682  0.00  0.00    +0.144 HD
ATOM     23  H   UNL     1      37.829 -17.755 -21.164  0.00  0.00    +0.144 HD
ENDBRANCH  18  21
ENDBRANCH  15  18
ENDBRANCH  10  12
ENDBRANCH   7  10
BRANCH   5  24
ATOM     24  O   UNL     1      30.587 -22.119 -16.234  0.00  0.00    -0.455 OA
BRANCH  24  25
ATOM     25  C   UNL     1      29.750 -23.122 -15.660  0.00  0.00    +0.169 C 
ATOM     26  C   UNL     1      29.247 -22.657 -14.293  0.00  0.00    +0.044 C 
ATOM     27  C   UNL     1      28.594 -23.404 -16.620  0.00  0.00    +0.044 C 
ATOM     28  C   UNL     1      28.286 -21.472 -14.406  0.00  0.00    +0.004 C 
ATOM     29  C   UNL     1      27.632 -22.220 -16.727  0.00  0.00    +0.004 C 
ATOM     30  C   UNL     1      27.131 -21.775 -15.357  0.00  0.00    +0.000 C 
ENDBRANCH  24  25
ENDBRANCH   5  24
TORSDOF 6
ENDMDL
MODEL 7
REMARK VINA RESULT:      -9.7      3.450      7.263
REMARK  Name = 11574606
REMARK  6 active torsions:
REMARK  status: ('A' for Active; 'I' for Inactive)
REMARK    1  A    between atoms: C_5  and  O_24
REMARK    2  A    between atoms: C_7  and  N_10
REMARK    3  A    between atoms: N_10  and  C_12
REMARK    4  A    between atoms: C_15  and  S_18
REMARK    5  A    between atoms: S_18  and  N_21
REMARK    6  A    between atoms: O_24  and  C_25
REMARK                            x       y       z     vdW  Elec       q    Type
REMARK                         _______ _______ _______ _____ _____    ______ ____
ROOT
ATOM      1  N   UNL     1      30.887 -21.753 -16.879  0.00  0.00    -0.299 NA
ATOM      2  N   UNL     1      31.019 -23.448 -15.178  0.00  0.00    -0.106 N 
ATOM      3  N   UNL     1      30.167 -24.210 -14.443  0.00  0.00    -0.139 NA
ATOM      4  N   UNL     1      28.989 -22.852 -15.841  0.00  0.00    -0.145 NA
ATOM      5  C   UNL     1      32.180 -21.751 -16.838  0.00  0.00    +0.291 C 
ATOM      6  C   UNL     1      33.060 -22.577 -15.982  0.00  0.00    +0.105 C 
ATOM      7  C   UNL     1      32.422 -23.424 -15.156  0.00  0.00    +0.142 C 
ATOM      8  C   UNL     1      30.273 -22.623 -16.028  0.00  0.00    +0.178 C 
ATOM      9  C   UNL     1      28.977 -23.812 -14.882  0.00  0.00    +0.230 C 
ENDROOT
BRANCH   7  10
ATOM     10  N   UNL     1      33.055 -24.269 -14.289  0.00  0.00    -0.299 N 
ATOM     11  H   UNL     1      32.573 -25.100 -14.071  0.00  0.00    +0.153 HD
BRANCH  10  12
ATOM     12  C   UNL     1      34.298 -24.106 -13.670  0.00  0.00    +0.049 C 
ATOM     13  C   UNL     1      35.472 -24.510 -14.318  0.00  0.00    +0.016 C 
ATOM     14  C   UNL     1      34.385 -23.535 -12.393  0.00  0.00    +0.016 C 
ATOM     15  C   UNL     1      36.789 -23.779 -12.429  0.00  0.00    +0.122 C 
ATOM     16  C   UNL     1      36.712 -24.347 -13.700  0.00  0.00    +0.021 C 
ATOM     17  C   UNL     1      35.625 -23.373 -11.776  0.00  0.00    +0.021 C 
BRANCH  15  18
ATOM     18  S   UNL     1      38.340 -23.575 -11.655  0.00  0.00    +0.057 S 
ATOM     19  O   UNL     1      38.304 -24.257 -10.368  0.00  0.00    -0.153 OA
ATOM     20  O   UNL     1      39.384 -23.901 -12.616  0.00  0.00    -0.153 OA
BRANCH  18  21
ATOM     21  N   UNL     1      38.351 -21.888 -11.385  0.00  0.00    -0.203 NA
ATOM     22  H   UNL     1      37.776 -21.427 -12.091  0.00  0.00    +0.144 HD
ATOM     23  H   UNL     1      39.307 -21.540 -11.444  0.00  0.00    +0.144 HD
ENDBRANCH  18  21
ENDBRANCH  15  18
ENDBRANCH  10  12
ENDBRANCH   7  10
BRANCH   5  24
ATOM     24  O   UNL     1      32.883 -20.921 -17.645  0.00  0.00    -0.455 OA
BRANCH  24  25
ATOM     25  C   UNL     1      33.165 -21.524 -18.907  0.00  0.00    +0.169 C 
ATOM     26  C   UNL     1      33.045 -20.480 -20.018  0.00  0.00    +0.044 C 
ATOM     27  C   UNL     1      34.565 -22.136 -18.856  0.00  0.00    +0.044 C 
ATOM     28  C   UNL     1      34.139 -19.415 -19.927  0.00  0.00    +0.004 C 
ATOM     29  C   UNL     1      35.656 -21.069 -18.770  0.00  0.00    +0.004 C 
ATOM     30  C   UNL     1      35.531 -20.042 -19.891  0.00  0.00    +0.000 C 
ENDBRANCH  24  25
ENDBRANCH   5  24
TORSDOF 6
ENDMDL
MODEL 8
REMARK VINA RESULT:      -9.3      1.948      4.696
REMARK  Name = 11574606
REMARK  6 active torsions:
REMARK  status: ('A' for Active; 'I' for Inactive)
REMARK    1  A    between atoms: C_5  and  O_24
REMARK    2  A    between atoms: C_7  and  N_10
REMARK    3  A    between atoms: N_10  and  C_12
REMARK    4  A    between atoms: C_15  and  S_18
REMARK    5  A    between atoms: S_18  and  N_21
REMARK    6  A    between atoms: O_24  and  C_25
REMARK                            x       y       z     vdW  Elec       q    Type
REMARK                         _______ _______ _______ _____ _____    ______ ____
ROOT
ATOM      1  N   UNL     1      34.207 -23.180 -13.839  0.00  0.00    -0.299 NA
ATOM      2  N   UNL     1      36.310 -22.440 -14.743  0.00  0.00    -0.106 N 
ATOM      3  N   UNL     1      37.587 -22.263 -14.314  0.00  0.00    -0.139 NA
ATOM      4  N   UNL     1      36.294 -23.042 -12.609  0.00  0.00    -0.145 NA
ATOM      5  C   UNL     1      33.734 -22.958 -15.024  0.00  0.00    +0.291 C 
ATOM      6  C   UNL     1      34.462 -22.456 -16.210  0.00  0.00    +0.105 C 
ATOM      7  C   UNL     1      35.769 -22.208 -16.016  0.00  0.00    +0.142 C 
ATOM      8  C   UNL     1      35.536 -22.918 -13.679  0.00  0.00    +0.178 C 
ATOM      9  C   UNL     1      37.516 -22.638 -13.041  0.00  0.00    +0.230 C 
ENDROOT
BRANCH   7  10
ATOM     10  N   UNL     1      36.611 -21.741 -16.986  0.00  0.00    -0.299 N 
ATOM     11  H   UNL     1      37.550 -22.026 -16.911  0.00  0.00    +0.153 HD
BRANCH  10  12
ATOM     12  C   UNL     1      36.310 -20.910 -18.069  0.00  0.00    +0.049 C 
ATOM     13  C   UNL     1      35.025 -20.906 -18.626  0.00  0.00    +0.016 C 
ATOM     14  C   UNL     1      37.291 -20.069 -18.612  0.00  0.00    +0.016 C 
ATOM     15  C   UNL     1      35.709 -19.243 -20.240  0.00  0.00    +0.122 C 
ATOM     16  C   UNL     1      34.725 -20.076 -19.707  0.00  0.00    +0.021 C 
ATOM     17  C   UNL     1      36.992 -19.240 -19.692  0.00  0.00    +0.021 C 
BRANCH  15  18
ATOM     18  S   UNL     1      35.335 -18.205 -21.593  0.00  0.00    +0.057 S 
ATOM     19  O   UNL     1      36.541 -18.044 -22.395  0.00  0.00    -0.153 OA
ATOM     20  O   UNL     1      34.110 -18.682 -22.218  0.00  0.00    -0.153 OA
BRANCH  18  21
ATOM     21  N   UNL     1      35.006 -16.733 -20.792  0.00  0.00    -0.203 NA
ATOM     22  H   UNL     1      35.627 -16.636 -19.988  0.00  0.00    +0.144 HD
ATOM     23  H   UNL     1      34.036 -16.727 -20.475  0.00  0.00    +0.144 HD
ENDBRANCH  18  21
ENDBRANCH  15  18
ENDBRANCH  10  12
ENDBRANCH   7  10
BRANCH   5  24
ATOM     24  O   UNL     1      32.425 -23.188 -15.284  0.00  0.00    -0.455 OA
BRANCH  24  25
ATOM     25  C   UNL     1      31.631 -23.116 -14.101  0.00  0.00    +0.169 C 
ATOM     26  C   UNL     1      30.538 -22.060 -14.274  0.00  0.00    +0.044 C 
ATOM     27  C   UNL     1      31.041 -24.498 -13.820  0.00  0.00    +0.044 C 
ATOM     28  C   UNL     1      29.503 -22.472 -15.323  0.00  0.00    +0.004 C 
ATOM     29  C   UNL     1      30.004 -24.905 -14.867  0.00  0.00    +0.004 C 
ATOM     30  C   UNL     1      28.915 -23.848 -15.021  0.00  0.00    +0.000 C 
ENDBRANCH  24  25
ENDBRANCH   5  24
TORSDOF 6
ENDMDL
MODEL 9
REMARK VINA RESULT:      -9.1      3.838      7.069
REMARK  Name = 11574606
REMARK  6 active torsions:
REMARK  status: ('A' for Active; 'I' for Inactive)
REMARK    1  A    between atoms: C_5  and  O_24
REMARK    2  A    between atoms: C_7  and  N_10
REMARK    3  A    between atoms: N_10  and  C_12
REMARK    4  A    between atoms: C_15  and  S_18
REMARK    5  A    between atoms: S_18  and  N_21
REMARK    6  A    between atoms: O_24  and  C_25
REMARK                            x       y       z     vdW  Elec       q    Type
REMARK                         _______ _______ _______ _____ _____    ______ ____
ROOT
ATOM      1  N   UNL     1      37.648 -23.502 -14.509  0.00  0.00    -0.299 NA
ATOM      2  N   UNL     1      36.055 -24.053 -12.795  0.00  0.00    -0.106 N 
ATOM      3  N   UNL     1      36.059 -24.598 -11.550  0.00  0.00    -0.139 NA
ATOM      4  N   UNL     1      38.183 -24.503 -12.365  0.00  0.00    -0.145 NA
ATOM      5  C   UNL     1      36.627 -23.081 -15.184  0.00  0.00    +0.291 C 
ATOM      6  C   UNL     1      35.206 -23.086 -14.772  0.00  0.00    +0.105 C 
ATOM      7  C   UNL     1      34.967 -23.590 -13.549  0.00  0.00    +0.142 C 
ATOM      8  C   UNL     1      37.369 -24.006 -13.274  0.00  0.00    +0.178 C 
ATOM      9  C   UNL     1      37.350 -24.843 -11.349  0.00  0.00    +0.230 C 
ENDROOT
BRANCH   7  10
ATOM     10  N   UNL     1      33.724 -23.681 -12.989  0.00  0.00    -0.299 N 
ATOM     11  H   UNL     1      33.701 -23.899 -12.029  0.00  0.00    +0.153 HD
BRANCH  10  12
ATOM     12  C   UNL     1      32.480 -23.505 -13.604  0.00  0.00    +0.049 C 
ATOM     13  C   UNL     1      32.087 -22.242 -14.062  0.00  0.00    +0.016 C 
ATOM     14  C   UNL     1      31.611 -24.592 -13.770  0.00  0.00    +0.016 C 
ATOM     15  C   UNL     1      29.987 -23.155 -14.835  0.00  0.00    +0.122 C 
ATOM     16  C   UNL     1      30.846 -22.067 -14.675  0.00  0.00    +0.021 C 
ATOM     17  C   UNL     1      30.371 -24.417 -14.382  0.00  0.00    +0.021 C 
BRANCH  15  18
ATOM     18  S   UNL     1      28.434 -22.937 -15.601  0.00  0.00    +0.057 S 
ATOM     19  O   UNL     1      28.219 -24.043 -16.525  0.00  0.00    -0.153 OA
ATOM     20  O   UNL     1      27.445 -22.653 -14.571  0.00  0.00    -0.153 OA
BRANCH  18  21
ATOM     21  N   UNL     1      28.713 -21.513 -16.503  0.00  0.00    -0.203 NA
ATOM     22  H   UNL     1      28.654 -20.702 -15.885  0.00  0.00    +0.144 HD
ATOM     23  H   UNL     1      28.009 -21.432 -17.237  0.00  0.00    +0.144 HD
ENDBRANCH  18  21
ENDBRANCH  15  18
ENDBRANCH  10  12
ENDBRANCH   7  10
BRANCH   5  24
ATOM     24  O   UNL     1      36.801 -22.562 -16.423  0.00  0.00    -0.455 OA
BRANCH  24  25
ATOM     25  C   UNL     1      36.095 -21.333 -16.584  0.00  0.00    +0.169 C 
ATOM     26  C   UNL     1      36.916 -20.375 -17.450  0.00  0.00    +0.044 C 
ATOM     27  C   UNL     1      34.731 -21.628 -17.208  0.00  0.00    +0.044 C 
ATOM     28  C   UNL     1      37.033 -20.863 -18.895  0.00  0.00    +0.004 C 
ATOM     29  C   UNL     1      34.851 -22.111 -18.654  0.00  0.00    +0.004 C 
ATOM     30  C   UNL     1      35.662 -21.140 -19.507  0.00  0.00    +0.000 C 
ENDBRANCH  24  25
ENDBRANCH   5  24
TORSDOF 6
ENDMDL
