MODEL 1
REMARK VINA RESULT:     -12.9      0.000      0.000
REMARK  Name = 25025505
REMARK  6 active torsions:
REMARK  status: ('A' for Active; 'I' for Inactive)
REMARK    1  A    between atoms: C_3  and  C_9
REMARK    2  A    between atoms: C_4  and  C_20
REMARK    3  A    between atoms: C_17  and  C_18
REMARK    4  A    between atoms: C_20  and  O_21
REMARK    5  A    between atoms: O_21  and  C_22
REMARK    6  A    between atoms: C_25  and  N_28
REMARK                            x       y       z     vdW  Elec       q    Type
REMARK                         _______ _______ _______ _____ _____    ______ ____
ROOT
ATOM      1  S   UNL     1      36.578 -22.978 -14.674  0.00  0.00    -0.079 S 
ATOM      2  N   UNL     1      34.027 -22.870 -15.081  0.00  0.00    -0.404 NA
ATOM      3  C   UNL     1      35.197 -22.653 -15.640  0.00  0.00    +0.134 C 
ATOM      4  C   UNL     1      34.226 -23.328 -13.794  0.00  0.00    +0.142 C 
ATOM      5  C   UNL     1      35.540 -23.452 -13.394  0.00  0.00    +0.122 C 
ENDROOT
BRANCH   3   9
ATOM      6  N   UNL     1      35.332 -20.168 -19.170  0.00  0.00    -0.253 N 
ATOM      7  N   UNL     1      36.343 -18.338 -20.213  0.00  0.00    -0.203 NA
ATOM      8  N   UNL     1      34.380 -19.375 -21.151  0.00  0.00    -0.181 NA
ATOM      9  C   UNL     1      35.390 -22.144 -17.056  0.00  0.00    +0.062 C 
ATOM     10  C   UNL     1      34.070 -21.678 -17.688  0.00  0.00    +0.030 C 
ATOM     11  C   UNL     1      36.421 -21.008 -17.126  0.00  0.00    +0.030 C 
ATOM     12  C   UNL     1      34.279 -21.189 -19.122  0.00  0.00    +0.102 C 
ATOM     13  C   UNL     1      36.621 -20.529 -18.564  0.00  0.00    +0.102 C 
ATOM     14  C   UNL     1      35.353 -19.251 -20.228  0.00  0.00    +0.090 C 
ATOM     15  C   UNL     1      36.332 -17.470 -21.246  0.00  0.00    +0.161 C 
ATOM     16  C   UNL     1      34.430 -18.475 -22.155  0.00  0.00    +0.104 C 
ATOM     17  C   UNL     1      35.392 -17.490 -22.255  0.00  0.00    +0.001 C 
BRANCH  17  18
ATOM     18  C   UNL     1      35.414 -16.518 -23.374  0.00  0.00    +0.026 C 
ATOM     19  C   UNL     1      35.290 -15.069 -22.899  0.00  0.00    +0.005 C 
ENDBRANCH  17  18
ENDBRANCH   3   9
BRANCH   4  20
ATOM     20  C   UNL     1      33.041 -23.640 -12.969  0.00  0.00    +0.260 C 
BRANCH  20  21
ATOM     21  O   UNL     1      32.143 -24.473 -13.702  0.00  0.00    -0.468 OA
BRANCH  21  22
ATOM     22  C   UNL     1      31.005 -23.880 -14.174  0.00  0.00    +0.139 C 
ATOM     23  C   UNL     1      30.073 -24.629 -14.892  0.00  0.00    +0.038 C 
ATOM     24  C   UNL     1      30.775 -22.525 -13.938  0.00  0.00    +0.038 C 
ATOM     25  C   UNL     1      28.684 -22.669 -15.138  0.00  0.00    +0.078 C 
ATOM     26  C   UNL     1      28.913 -24.024 -15.374  0.00  0.00    +0.020 C 
ATOM     27  C   UNL     1      29.615 -21.918 -14.419  0.00  0.00    +0.020 C 
BRANCH  25  28
ATOM     28  N   UNL     1      27.534 -22.068 -15.616  0.00  0.00    -0.149 N 
ATOM     29  N   UNL     1      26.469 -21.835 -14.836  0.00  0.00    -0.048 NA
ATOM     30  N   UNL     1      26.073 -21.124 -16.912  0.00  0.00    -0.107 NA
ATOM     31  N   UNL     1      25.579 -21.258 -15.633  0.00  0.00    -0.024 NA
ATOM     32  C   UNL     1      27.284 -21.632 -16.878  0.00  0.00    +0.215 C 
ENDBRANCH  25  28
ENDBRANCH  21  22
ENDBRANCH  20  21
ENDBRANCH   4  20
TORSDOF 6
ENDMDL
MODEL 2
REMARK VINA RESULT:     -12.7      4.806      7.080
REMARK  Name = 25025505
REMARK  6 active torsions:
REMARK  status: ('A' for Active; 'I' for Inactive)
REMARK    1  A    between atoms: C_3  and  C_9
REMARK    2  A    between atoms: C_4  and  C_20
REMARK    3  A    between atoms: C_17  and  C_18
REMARK    4  A    between atoms: C_20  and  O_21
REMARK    5  A    between atoms: O_21  and  C_22
REMARK    6  A    between atoms: C_25  and  N_28
REMARK                            x       y       z     vdW  Elec       q    Type
REMARK                         _______ _______ _______ _____ _____    ______ ____
ROOT
ATOM      1  S   UNL     1      33.762 -20.098 -20.150  0.00  0.00    -0.079 S 
ATOM      2  N   UNL     1      36.111 -19.631 -19.177  0.00  0.00    -0.404 NA
ATOM      3  C   UNL     1      35.254 -19.252 -20.099  0.00  0.00    +0.134 C 
ATOM      4  C   UNL     1      35.556 -20.667 -18.452  0.00  0.00    +0.142 C 
ATOM      5  C   UNL     1      34.290 -21.059 -18.831  0.00  0.00    +0.122 C 
ENDROOT
BRANCH   3   9
ATOM      6  N   UNL     1      34.782 -15.852 -22.722  0.00  0.00    -0.253 N 
ATOM      7  N   UNL     1      34.383 -13.555 -22.862  0.00  0.00    -0.203 NA
ATOM      8  N   UNL     1      34.381 -14.939 -24.834  0.00  0.00    -0.181 NA
ATOM      9  C   UNL     1      35.504 -18.135 -21.096  0.00  0.00    +0.062 C 
ATOM     10  C   UNL     1      34.643 -18.285 -22.359  0.00  0.00    +0.030 C 
ATOM     11  C   UNL     1      35.274 -16.748 -20.479  0.00  0.00    +0.030 C 
ATOM     12  C   UNL     1      34.923 -17.165 -23.362  0.00  0.00    +0.102 C 
ATOM     13  C   UNL     1      35.557 -15.638 -21.492  0.00  0.00    +0.102 C 
ATOM     14  C   UNL     1      34.503 -14.729 -23.509  0.00  0.00    +0.090 C 
ATOM     15  C   UNL     1      34.112 -12.494 -23.651  0.00  0.00    +0.161 C 
ATOM     16  C   UNL     1      34.110 -13.836 -25.563  0.00  0.00    +0.104 C 
ATOM     17  C   UNL     1      33.963 -12.576 -25.020  0.00  0.00    +0.001 C 
BRANCH  17  18
ATOM     18  C   UNL     1      33.666 -11.386 -25.854  0.00  0.00    +0.026 C 
ATOM     19  C   UNL     1      34.489 -10.162 -25.449  0.00  0.00    +0.005 C 
ENDBRANCH  17  18
ENDBRANCH   3   9
BRANCH   4  20
ATOM     20  C   UNL     1      36.348 -21.257 -17.354  0.00  0.00    +0.260 C 
BRANCH  20  21
ATOM     21  O   UNL     1      35.709 -22.439 -16.873  0.00  0.00    -0.468 OA
BRANCH  21  22
ATOM     22  C   UNL     1      35.792 -22.675 -15.528  0.00  0.00    +0.139 C 
ATOM     23  C   UNL     1      37.031 -22.642 -14.888  0.00  0.00    +0.038 C 
ATOM     24  C   UNL     1      34.638 -22.950 -14.796  0.00  0.00    +0.038 C 
ATOM     25  C   UNL     1      35.961 -23.160 -12.786  0.00  0.00    +0.078 C 
ATOM     26  C   UNL     1      37.116 -22.885 -13.517  0.00  0.00    +0.020 C 
ATOM     27  C   UNL     1      34.721 -23.192 -13.425  0.00  0.00    +0.020 C 
BRANCH  25  28
ATOM     28  N   UNL     1      36.045 -23.400 -11.426  0.00  0.00    -0.149 N 
ATOM     29  N   UNL     1      35.238 -24.267 -10.800  0.00  0.00    -0.048 NA
ATOM     30  N   UNL     1      36.650 -23.340  -9.345  0.00  0.00    -0.107 NA
ATOM     31  N   UNL     1      35.612 -24.227  -9.527  0.00  0.00    -0.024 NA
ATOM     32  C   UNL     1      36.902 -22.840 -10.532  0.00  0.00    +0.215 C 
ENDBRANCH  25  28
ENDBRANCH  21  22
ENDBRANCH  20  21
ENDBRANCH   4  20
TORSDOF 6
ENDMDL
MODEL 3
REMARK VINA RESULT:     -12.0      6.302     10.391
REMARK  Name = 25025505
REMARK  6 active torsions:
REMARK  status: ('A' for Active; 'I' for Inactive)
REMARK    1  A    between atoms: C_3  and  C_9
REMARK    2  A    between atoms: C_4  and  C_20
REMARK    3  A    between atoms: C_17  and  C_18
REMARK    4  A    between atoms: C_20  and  O_21
REMARK    5  A    between atoms: O_21  and  C_22
REMARK    6  A    between atoms: C_25  and  N_28
REMARK                            x       y       z     vdW  Elec       q    Type
REMARK                         _______ _______ _______ _____ _____    ______ ____
ROOT
ATOM      1  S   UNL     1      34.087 -14.977 -24.696  0.00  0.00    -0.079 S 
ATOM      2  N   UNL     1      34.634 -14.881 -22.171  0.00  0.00    -0.404 NA
ATOM      3  C   UNL     1      34.053 -14.228 -23.152  0.00  0.00    +0.134 C 
ATOM      4  C   UNL     1      35.147 -16.065 -22.665  0.00  0.00    +0.142 C 
ATOM      5  C   UNL     1      34.950 -16.292 -24.011  0.00  0.00    +0.122 C 
ENDROOT
BRANCH   3   9
ATOM      6  N   UNL     1      33.098 -10.166 -22.035  0.00  0.00    -0.253 N 
ATOM      7  N   UNL     1      33.683  -7.914 -22.235  0.00  0.00    -0.203 NA
ATOM      8  N   UNL     1      32.009  -8.627 -20.656  0.00  0.00    -0.181 NA
ATOM      9  C   UNL     1      33.371 -12.881 -23.001  0.00  0.00    +0.062 C 
ATOM     10  C   UNL     1      33.008 -12.578 -21.540  0.00  0.00    +0.030 C 
ATOM     11  C   UNL     1      34.223 -11.735 -23.566  0.00  0.00    +0.030 C 
ATOM     12  C   UNL     1      32.302 -11.228 -21.408  0.00  0.00    +0.102 C 
ATOM     13  C   UNL     1      33.507 -10.391 -23.428  0.00  0.00    +0.102 C 
ATOM     14  C   UNL     1      32.921  -8.840 -21.623  0.00  0.00    +0.090 C 
ATOM     15  C   UNL     1      33.489  -6.647 -21.813  0.00  0.00    +0.161 C 
ATOM     16  C   UNL     1      31.866  -7.338 -20.282  0.00  0.00    +0.104 C 
ATOM     17  C   UNL     1      32.586  -6.296 -20.831  0.00  0.00    +0.001 C 
BRANCH  17  18
ATOM     18  C   UNL     1      32.400  -4.891 -20.394  0.00  0.00    +0.026 C 
ATOM     19  C   UNL     1      32.452  -4.735 -18.874  0.00  0.00    +0.005 C 
ENDBRANCH  17  18
ENDBRANCH   3   9
BRANCH   4  20
ATOM     20  C   UNL     1      35.850 -16.968 -21.733  0.00  0.00    +0.260 C 
BRANCH  20  21
ATOM     21  O   UNL     1      35.527 -18.325 -22.033  0.00  0.00    -0.468 OA
BRANCH  21  22
ATOM     22  C   UNL     1      35.283 -19.147 -20.967  0.00  0.00    +0.139 C 
ATOM     23  C   UNL     1      36.347 -19.697 -20.251  0.00  0.00    +0.038 C 
ATOM     24  C   UNL     1      33.970 -19.434 -20.594  0.00  0.00    +0.038 C 
ATOM     25  C   UNL     1      34.785 -20.823 -18.793  0.00  0.00    +0.078 C 
ATOM     26  C   UNL     1      36.098 -20.536 -19.165  0.00  0.00    +0.020 C 
ATOM     27  C   UNL     1      33.720 -20.272 -19.507  0.00  0.00    +0.020 C 
BRANCH  25  28
ATOM     28  N   UNL     1      34.538 -21.654 -17.715  0.00  0.00    -0.149 N 
ATOM     29  N   UNL     1      35.502 -22.030 -16.863  0.00  0.00    -0.048 NA
ATOM     30  N   UNL     1      33.551 -22.929 -16.266  0.00  0.00    -0.107 NA
ATOM     31  N   UNL     1      34.893 -22.810 -15.979  0.00  0.00    -0.024 NA
ATOM     32  C   UNL     1      33.353 -22.206 -17.343  0.00  0.00    +0.215 C 
ENDBRANCH  25  28
ENDBRANCH  21  22
ENDBRANCH  20  21
ENDBRANCH   4  20
TORSDOF 6
ENDMDL
MODEL 4
REMARK VINA RESULT:     -11.9      5.836     10.074
REMARK  Name = 25025505
REMARK  6 active torsions:
REMARK  status: ('A' for Active; 'I' for Inactive)
REMARK    1  A    between atoms: C_3  and  C_9
REMARK    2  A    between atoms: C_4  and  C_20
REMARK    3  A    between atoms: C_17  and  C_18
REMARK    4  A    between atoms: C_20  and  O_21
REMARK    5  A    between atoms: O_21  and  C_22
REMARK    6  A    between atoms: C_25  and  N_28
REMARK                            x       y       z     vdW  Elec       q    Type
REMARK                         _______ _______ _______ _____ _____    ______ ____
ROOT
ATOM      1  S   UNL     1      33.778 -15.598 -25.125  0.00  0.00    -0.079 S 
ATOM      2  N   UNL     1      34.923 -16.127 -22.868  0.00  0.00    -0.404 NA
ATOM      3  C   UNL     1      34.467 -15.149 -23.619  0.00  0.00    +0.134 C 
ATOM      4  C   UNL     1      34.716 -17.325 -23.523  0.00  0.00    +0.142 C 
ATOM      5  C   UNL     1      34.109 -17.241 -24.758  0.00  0.00    +0.122 C 
ENDROOT
BRANCH   3   9
ATOM      6  N   UNL     1      33.405 -11.051 -22.760  0.00  0.00    -0.253 N 
ATOM      7  N   UNL     1      32.247  -9.609 -21.333  0.00  0.00    -0.203 NA
ATOM      8  N   UNL     1      33.189  -8.816 -23.404  0.00  0.00    -0.181 NA
ATOM      9  C   UNL     1      34.516 -13.681 -23.238  0.00  0.00    +0.062 C 
ATOM     10  C   UNL     1      34.076 -12.769 -24.393  0.00  0.00    +0.030 C 
ATOM     11  C   UNL     1      33.668 -13.378 -21.994  0.00  0.00    +0.030 C 
ATOM     12  C   UNL     1      34.151 -11.294 -24.000  0.00  0.00    +0.102 C 
ATOM     13  C   UNL     1      33.752 -11.901 -21.611  0.00  0.00    +0.102 C 
ATOM     14  C   UNL     1      32.925  -9.765 -22.486  0.00  0.00    +0.090 C 
ATOM     15  C   UNL     1      31.798  -8.358 -21.102  0.00  0.00    +0.161 C 
ATOM     16  C   UNL     1      32.711  -7.590 -23.109  0.00  0.00    +0.104 C 
ATOM     17  C   UNL     1      32.001  -7.299 -21.962  0.00  0.00    +0.001 C 
BRANCH  17  18
ATOM     18  C   UNL     1      31.490  -5.937 -21.672  0.00  0.00    +0.026 C 
ATOM     19  C   UNL     1      31.954  -5.412 -20.312  0.00  0.00    +0.005 C 
ENDBRANCH  17  18
ENDBRANCH   3   9
BRANCH   4  20
ATOM     20  C   UNL     1      35.153 -18.571 -22.861  0.00  0.00    +0.260 C 
BRANCH  20  21
ATOM     21  O   UNL     1      35.776 -18.267 -21.614  0.00  0.00    -0.468 OA
BRANCH  21  22
ATOM     22  C   UNL     1      35.555 -19.147 -20.590  0.00  0.00    +0.139 C 
ATOM     23  C   UNL     1      36.631 -19.660 -19.865  0.00  0.00    +0.038 C 
ATOM     24  C   UNL     1      34.253 -19.531 -20.269  0.00  0.00    +0.038 C 
ATOM     25  C   UNL     1      35.104 -20.941 -18.501  0.00  0.00    +0.078 C 
ATOM     26  C   UNL     1      36.405 -20.557 -18.821  0.00  0.00    +0.020 C 
ATOM     27  C   UNL     1      34.027 -20.428 -19.225  0.00  0.00    +0.020 C 
BRANCH  25  28
ATOM     28  N   UNL     1      34.880 -21.830 -17.466  0.00  0.00    -0.149 N 
ATOM     29  N   UNL     1      35.804 -22.090 -16.531  0.00  0.00    -0.048 NA
ATOM     30  N   UNL     1      33.958 -23.277 -16.140  0.00  0.00    -0.107 NA
ATOM     31  N   UNL     1      35.235 -22.975 -15.722  0.00  0.00    -0.024 NA
ATOM     32  C   UNL     1      33.758 -22.557 -17.220  0.00  0.00    +0.215 C 
ENDBRANCH  25  28
ENDBRANCH  21  22
ENDBRANCH  20  21
ENDBRANCH   4  20
TORSDOF 6
ENDMDL
MODEL 5
REMARK VINA RESULT:     -11.8      6.182     10.193
REMARK  Name = 25025505
REMARK  6 active torsions:
REMARK  status: ('A' for Active; 'I' for Inactive)
REMARK    1  A    between atoms: C_3  and  C_9
REMARK    2  A    between atoms: C_4  and  C_20
REMARK    3  A    between atoms: C_17  and  C_18
REMARK    4  A    between atoms: C_20  and  O_21
REMARK    5  A    between atoms: O_21  and  C_22
REMARK    6  A    between atoms: C_25  and  N_28
REMARK                            x       y       z     vdW  Elec       q    Type
REMARK                         _______ _______ _______ _____ _____    ______ ____
ROOT
ATOM      1  S   UNL     1      34.543 -14.350 -19.979  0.00  0.00    -0.079 S 
ATOM      2  N   UNL     1      34.713 -15.208 -22.412  0.00  0.00    -0.404 NA
ATOM      3  C   UNL     1      34.283 -14.212 -21.670  0.00  0.00    +0.134 C 
ATOM      4  C   UNL     1      35.293 -16.156 -21.592  0.00  0.00    +0.142 C 
ATOM      5  C   UNL     1      35.295 -15.868 -20.244  0.00  0.00    +0.122 C 
ENDROOT
BRANCH   3   9
ATOM      6  N   UNL     1      33.112 -10.135 -22.487  0.00  0.00    -0.253 N 
ATOM      7  N   UNL     1      33.732  -8.097 -23.446  0.00  0.00    -0.203 NA
ATOM      8  N   UNL     1      31.749  -8.280 -22.090  0.00  0.00    -0.181 NA
ATOM      9  C   UNL     1      33.587 -12.977 -22.211  0.00  0.00    +0.062 C 
ATOM     10  C   UNL     1      32.910 -12.161 -21.100  0.00  0.00    +0.030 C 
ATOM     11  C   UNL     1      34.545 -12.072 -23.001  0.00  0.00    +0.030 C 
ATOM     12  C   UNL     1      32.195 -10.933 -21.665  0.00  0.00    +0.102 C 
ATOM     13  C   UNL     1      33.818 -10.849 -23.560  0.00  0.00    +0.102 C 
ATOM     14  C   UNL     1      32.852  -8.773 -22.684  0.00  0.00    +0.090 C 
ATOM     15  C   UNL     1      33.451  -6.788 -23.614  0.00  0.00    +0.161 C 
ATOM     16  C   UNL     1      31.529  -6.965 -22.300  0.00  0.00    +0.104 C 
ATOM     17  C   UNL     1      32.354  -6.161 -23.059  0.00  0.00    +0.001 C 
BRANCH  17  18
ATOM     18  C   UNL     1      32.080  -4.719 -23.268  0.00  0.00    +0.026 C 
ATOM     19  C   UNL     1      31.952  -4.351 -24.747  0.00  0.00    +0.005 C 
ENDBRANCH  17  18
ENDBRANCH   3   9
BRANCH   4  20
ATOM     20  C   UNL     1      35.849 -17.374 -22.214  0.00  0.00    +0.260 C 
BRANCH  20  21
ATOM     21  O   UNL     1      34.880 -18.421 -22.188  0.00  0.00    -0.468 OA
BRANCH  21  22
ATOM     22  C   UNL     1      34.868 -19.218 -21.077  0.00  0.00    +0.139 C 
ATOM     23  C   UNL     1      33.655 -19.579 -20.489  0.00  0.00    +0.038 C 
ATOM     24  C   UNL     1      36.069 -19.670 -20.530  0.00  0.00    +0.038 C 
ATOM     25  C   UNL     1      34.844 -20.842 -18.809  0.00  0.00    +0.078 C 
ATOM     26  C   UNL     1      33.644 -20.391 -19.355  0.00  0.00    +0.020 C 
ATOM     27  C   UNL     1      36.058 -20.483 -19.396  0.00  0.00    +0.020 C 
BRANCH  25  28
ATOM     28  N   UNL     1      34.833 -21.648 -17.684  0.00  0.00    -0.149 N 
ATOM     29  N   UNL     1      35.906 -21.793 -16.895  0.00  0.00    -0.048 NA
ATOM     30  N   UNL     1      34.207 -23.009 -16.116  0.00  0.00    -0.107 NA
ATOM     31  N   UNL     1      35.518 -22.626 -15.937  0.00  0.00    -0.024 NA
ATOM     32  C   UNL     1      33.803 -22.392 -17.202  0.00  0.00    +0.215 C 
ENDBRANCH  25  28
ENDBRANCH  21  22
ENDBRANCH  20  21
ENDBRANCH   4  20
TORSDOF 6
ENDMDL
MODEL 6
REMARK VINA RESULT:     -11.5      5.277      8.083
REMARK  Name = 25025505
REMARK  6 active torsions:
REMARK  status: ('A' for Active; 'I' for Inactive)
REMARK    1  A    between atoms: C_3  and  C_9
REMARK    2  A    between atoms: C_4  and  C_20
REMARK    3  A    between atoms: C_17  and  C_18
REMARK    4  A    between atoms: C_20  and  O_21
REMARK    5  A    between atoms: O_21  and  C_22
REMARK    6  A    between atoms: C_25  and  N_28
REMARK                            x       y       z     vdW  Elec       q    Type
REMARK                         _______ _______ _______ _____ _____    ______ ____
ROOT
ATOM      1  S   UNL     1      34.577 -19.056 -21.493  0.00  0.00    -0.079 S 
ATOM      2  N   UNL     1      36.297 -18.605 -19.617  0.00  0.00    -0.404 NA
ATOM      3  C   UNL     1      35.609 -18.033 -20.580  0.00  0.00    +0.134 C 
ATOM      4  C   UNL     1      35.993 -19.952 -19.591  0.00  0.00    +0.142 C 
ATOM      5  C   UNL     1      35.081 -20.383 -20.532  0.00  0.00    +0.122 C 
ENDROOT
BRANCH   3   9
ATOM      6  N   UNL     1      34.602 -14.003 -21.763  0.00  0.00    -0.253 N 
ATOM      7  N   UNL     1      33.422 -12.061 -21.218  0.00  0.00    -0.203 NA
ATOM      8  N   UNL     1      34.458 -12.321 -23.378  0.00  0.00    -0.181 NA
ATOM      9  C   UNL     1      35.674 -16.556 -20.921  0.00  0.00    +0.062 C 
ATOM     10  C   UNL     1      35.297 -16.283 -22.384  0.00  0.00    +0.030 C 
ATOM     11  C   UNL     1      34.787 -15.710 -19.996  0.00  0.00    +0.030 C 
ATOM     12  C   UNL     1      35.389 -14.793 -22.717  0.00  0.00    +0.102 C 
ATOM     13  C   UNL     1      34.888 -14.223 -20.338  0.00  0.00    +0.102 C 
ATOM     14  C   UNL     1      34.140 -12.735 -22.137  0.00  0.00    +0.090 C 
ATOM     15  C   UNL     1      32.991 -10.845 -21.612  0.00  0.00    +0.161 C 
ATOM     16  C   UNL     1      33.995 -11.097 -23.706  0.00  0.00    +0.104 C 
ATOM     17  C   UNL     1      33.248 -10.306 -22.856  0.00  0.00    +0.001 C 
BRANCH  17  18
ATOM     18  C   UNL     1      32.757  -8.965 -23.251  0.00  0.00    +0.026 C 
ATOM     19  C   UNL     1      33.543  -7.830 -22.591  0.00  0.00    +0.005 C 
ENDBRANCH  17  18
ENDBRANCH   3   9
BRANCH   4  20
ATOM     20  C   UNL     1      36.655 -20.801 -18.581  0.00  0.00    +0.260 C 
BRANCH  20  21
ATOM     21  O   UNL     1      35.676 -21.480 -17.796  0.00  0.00    -0.468 OA
BRANCH  21  22
ATOM     22  C   UNL     1      36.036 -21.811 -16.519  0.00  0.00    +0.139 C 
ATOM     23  C   UNL     1      35.097 -22.370 -15.651  0.00  0.00    +0.038 C 
ATOM     24  C   UNL     1      37.342 -21.590 -16.083  0.00  0.00    +0.038 C 
ATOM     25  C   UNL     1      36.770 -22.485 -13.914  0.00  0.00    +0.078 C 
ATOM     26  C   UNL     1      35.464 -22.707 -14.349  0.00  0.00    +0.020 C 
ATOM     27  C   UNL     1      37.710 -21.927 -14.781  0.00  0.00    +0.020 C 
BRANCH  25  28
ATOM     28  N   UNL     1      37.135 -22.820 -12.622  0.00  0.00    -0.149 N 
ATOM     29  N   UNL     1      38.287 -22.410 -12.073  0.00  0.00    -0.048 NA
ATOM     30  N   UNL     1      37.138 -23.650 -10.619  0.00  0.00    -0.107 NA
ATOM     31  N   UNL     1      38.284 -22.921 -10.848  0.00  0.00    -0.024 NA
ATOM     32  C   UNL     1      36.442 -23.574 -11.729  0.00  0.00    +0.215 C 
ENDBRANCH  25  28
ENDBRANCH  21  22
ENDBRANCH  20  21
ENDBRANCH   4  20
TORSDOF 6
ENDMDL
MODEL 7
REMARK VINA RESULT:     -11.3      4.530     10.160
REMARK  Name = 25025505
REMARK  6 active torsions:
REMARK  status: ('A' for Active; 'I' for Inactive)
REMARK    1  A    between atoms: C_3  and  C_9
REMARK    2  A    between atoms: C_4  and  C_20
REMARK    3  A    between atoms: C_17  and  C_18
REMARK    4  A    between atoms: C_20  and  O_21
REMARK    5  A    between atoms: O_21  and  C_22
REMARK    6  A    between atoms: C_25  and  N_28
REMARK                            x       y       z     vdW  Elec       q    Type
REMARK                         _______ _______ _______ _____ _____    ______ ____
ROOT
ATOM      1  S   UNL     1      37.242 -18.674 -20.515  0.00  0.00    -0.079 S 
ATOM      2  N   UNL     1      34.921 -18.689 -21.653  0.00  0.00    -0.404 NA
ATOM      3  C   UNL     1      35.650 -19.278 -20.732  0.00  0.00    +0.134 C 
ATOM      4  C   UNL     1      35.666 -17.683 -22.237  0.00  0.00    +0.142 C 
ATOM      5  C   UNL     1      36.947 -17.524 -21.752  0.00  0.00    +0.122 C 
ENDROOT
BRANCH   3   9
ATOM      6  N   UNL     1      34.058 -21.660 -17.500  0.00  0.00    -0.253 N 
ATOM      7  N   UNL     1      32.164 -22.200 -16.243  0.00  0.00    -0.203 NA
ATOM      8  N   UNL     1      34.351 -22.976 -15.592  0.00  0.00    -0.181 NA
ATOM      9  C   UNL     1      35.176 -20.434 -19.871  0.00  0.00    +0.062 C 
ATOM     10  C   UNL     1      35.982 -20.553 -18.569  0.00  0.00    +0.030 C 
ATOM     11  C   UNL     1      33.679 -20.333 -19.542  0.00  0.00    +0.030 C 
ATOM     12  C   UNL     1      35.506 -21.736 -17.724  0.00  0.00    +0.102 C 
ATOM     13  C   UNL     1      33.217 -21.521 -18.697  0.00  0.00    +0.102 C 
ATOM     14  C   UNL     1      33.498 -22.310 -16.393  0.00  0.00    +0.090 C 
ATOM     15  C   UNL     1      31.659 -22.837 -15.166  0.00  0.00    +0.161 C 
ATOM     16  C   UNL     1      33.778 -23.589 -14.535  0.00  0.00    +0.104 C 
ATOM     17  C   UNL     1      32.424 -23.553 -14.269  0.00  0.00    +0.001 C 
BRANCH  17  18
ATOM     18  C   UNL     1      31.831 -24.239 -13.096  0.00  0.00    +0.026 C 
ATOM     19  C   UNL     1      30.343 -24.541 -13.281  0.00  0.00    +0.005 C 
ENDBRANCH  17  18
ENDBRANCH   3   9
BRANCH   4  20
ATOM     20  C   UNL     1      35.043 -16.880 -23.308  0.00  0.00    +0.260 C 
BRANCH  20  21
ATOM     21  O   UNL     1      35.518 -15.536 -23.248  0.00  0.00    -0.468 OA
BRANCH  21  22
ATOM     22  C   UNL     1      34.721 -14.633 -22.601  0.00  0.00    +0.139 C 
ATOM     23  C   UNL     1      34.837 -14.462 -21.221  0.00  0.00    +0.038 C 
ATOM     24  C   UNL     1      33.791 -13.882 -23.319  0.00  0.00    +0.038 C 
ATOM     25  C   UNL     1      33.094 -12.792 -21.280  0.00  0.00    +0.078 C 
ATOM     26  C   UNL     1      34.024 -13.542 -20.560  0.00  0.00    +0.020 C 
ATOM     27  C   UNL     1      32.977 -12.961 -22.660  0.00  0.00    +0.020 C 
BRANCH  25  28
ATOM     28  N   UNL     1      32.287 -11.879 -20.625  0.00  0.00    -0.149 N 
ATOM     29  N   UNL     1      31.850 -10.757 -21.213  0.00  0.00    -0.048 NA
ATOM     30  N   UNL     1      31.090 -10.876 -19.120  0.00  0.00    -0.107 NA
ATOM     31  N   UNL     1      31.117 -10.148 -20.289  0.00  0.00    -0.024 NA
ATOM     32  C   UNL     1      31.819 -11.943 -19.351  0.00  0.00    +0.215 C 
ENDBRANCH  25  28
ENDBRANCH  21  22
ENDBRANCH  20  21
ENDBRANCH   4  20
TORSDOF 6
ENDMDL
MODEL 8
REMARK VINA RESULT:     -11.2      4.986     10.051
REMARK  Name = 25025505
REMARK  6 active torsions:
REMARK  status: ('A' for Active; 'I' for Inactive)
REMARK    1  A    between atoms: C_3  and  C_9
REMARK    2  A    between atoms: C_4  and  C_20
REMARK    3  A    between atoms: C_17  and  C_18
REMARK    4  A    between atoms: C_20  and  O_21
REMARK    5  A    between atoms: O_21  and  C_22
REMARK    6  A    between atoms: C_25  and  N_28
REMARK                            x       y       z     vdW  Elec       q    Type
REMARK                         _______ _______ _______ _____ _____    ______ ____
ROOT
ATOM      1  S   UNL     1      33.349 -20.093 -19.866  0.00  0.00    -0.079 S 
ATOM      2  N   UNL     1      35.823 -19.626 -20.450  0.00  0.00    -0.404 NA
ATOM      3  C   UNL     1      35.038 -20.302 -19.643  0.00  0.00    +0.134 C 
ATOM      4  C   UNL     1      35.042 -18.883 -21.314  0.00  0.00    +0.142 C 
ATOM      5  C   UNL     1      33.678 -19.006 -21.151  0.00  0.00    +0.122 C 
ENDROOT
BRANCH   3   9
ATOM      6  N   UNL     1      36.060 -22.037 -15.822  0.00  0.00    -0.253 N 
ATOM      7  N   UNL     1      35.251 -22.894 -13.805  0.00  0.00    -0.203 NA
ATOM      8  N   UNL     1      37.603 -22.485 -14.126  0.00  0.00    -0.181 NA
ATOM      9  C   UNL     1      35.528 -21.235 -18.551  0.00  0.00    +0.062 C 
ATOM     10  C   UNL     1      36.680 -20.622 -17.741  0.00  0.00    +0.030 C 
ATOM     11  C   UNL     1      34.398 -21.656 -17.600  0.00  0.00    +0.030 C 
ATOM     12  C   UNL     1      37.176 -21.584 -16.660  0.00  0.00    +0.102 C 
ATOM     13  C   UNL     1      34.907 -22.616 -16.525  0.00  0.00    +0.102 C 
ATOM     14  C   UNL     1      36.317 -22.494 -14.523  0.00  0.00    +0.090 C 
ATOM     15  C   UNL     1      35.534 -23.327 -12.558  0.00  0.00    +0.161 C 
ATOM     16  C   UNL     1      37.814 -22.930 -12.870  0.00  0.00    +0.104 C 
ATOM     17  C   UNL     1      36.809 -23.367 -12.032  0.00  0.00    +0.001 C 
BRANCH  17  18
ATOM     18  C   UNL     1      37.079 -23.849 -10.656  0.00  0.00    +0.026 C 
ATOM     19  C   UNL     1      35.932 -23.549  -9.690  0.00  0.00    +0.005 C 
ENDBRANCH  17  18
ENDBRANCH   3   9
BRANCH   4  20
ATOM     20  C   UNL     1      35.717 -18.037 -22.319  0.00  0.00    +0.260 C 
BRANCH  20  21
ATOM     21  O   UNL     1      36.280 -16.887 -21.689  0.00  0.00    -0.468 OA
BRANCH  21  22
ATOM     22  C   UNL     1      35.452 -15.811 -21.527  0.00  0.00    +0.139 C 
ATOM     23  C   UNL     1      35.013 -15.093 -22.640  0.00  0.00    +0.038 C 
ATOM     24  C   UNL     1      35.045 -15.430 -20.249  0.00  0.00    +0.038 C 
ATOM     25  C   UNL     1      33.763 -13.615 -21.196  0.00  0.00    +0.078 C 
ATOM     26  C   UNL     1      34.169 -13.996 -22.475  0.00  0.00    +0.020 C 
ATOM     27  C   UNL     1      34.200 -14.332 -20.082  0.00  0.00    +0.020 C 
BRANCH  25  28
ATOM     28  N   UNL     1      32.925 -12.527 -21.032  0.00  0.00    -0.149 N 
ATOM     29  N   UNL     1      32.144 -12.379 -19.954  0.00  0.00    -0.048 NA
ATOM     30  N   UNL     1      31.867 -10.661 -21.347  0.00  0.00    -0.107 NA
ATOM     31  N   UNL     1      31.498 -11.236 -20.151  0.00  0.00    -0.024 NA
ATOM     32  C   UNL     1      32.750 -11.475 -21.875  0.00  0.00    +0.215 C 
ENDBRANCH  25  28
ENDBRANCH  21  22
ENDBRANCH  20  21
ENDBRANCH   4  20
TORSDOF 6
ENDMDL
MODEL 9
REMARK VINA RESULT:     -11.2      5.616     11.261
REMARK  Name = 25025505
REMARK  6 active torsions:
REMARK  status: ('A' for Active; 'I' for Inactive)
REMARK    1  A    between atoms: C_3  and  C_9
REMARK    2  A    between atoms: C_4  and  C_20
REMARK    3  A    between atoms: C_17  and  C_18
REMARK    4  A    between atoms: C_20  and  O_21
REMARK    5  A    between atoms: O_21  and  C_22
REMARK    6  A    between atoms: C_25  and  N_28
REMARK                            x       y       z     vdW  Elec       q    Type
REMARK                         _______ _______ _______ _____ _____    ______ ____
ROOT
ATOM      1  S   UNL     1      35.002 -18.544 -23.224  0.00  0.00    -0.079 S 
ATOM      2  N   UNL     1      35.309 -17.037 -21.146  0.00  0.00    -0.404 NA
ATOM      3  C   UNL     1      35.301 -18.286 -21.553  0.00  0.00    +0.134 C 
ATOM      4  C   UNL     1      35.061 -16.214 -22.227  0.00  0.00    +0.142 C 
ATOM      5  C   UNL     1      34.869 -16.848 -23.437  0.00  0.00    +0.122 C 
ENDROOT
BRANCH   3   9
ATOM      6  N   UNL     1      35.618 -20.901 -18.129  0.00  0.00    -0.253 N 
ATOM      7  N   UNL     1      34.463 -22.034 -16.445  0.00  0.00    -0.203 NA
ATOM      8  N   UNL     1      36.868 -21.901 -16.429  0.00  0.00    -0.181 NA
ATOM      9  C   UNL     1      35.536 -19.484 -20.652  0.00  0.00    +0.062 C 
ATOM     10  C   UNL     1      36.637 -19.220 -19.615  0.00  0.00    +0.030 C 
ATOM     11  C   UNL     1      34.253 -19.930 -19.937  0.00  0.00    +0.030 C 
ATOM     12  C   UNL     1      36.877 -20.444 -18.730  0.00  0.00    +0.102 C 
ATOM     13  C   UNL     1      34.506 -21.154 -19.056  0.00  0.00    +0.102 C 
ATOM     14  C   UNL     1      35.651 -21.648 -16.946  0.00  0.00    +0.090 C 
ATOM     15  C   UNL     1      34.532 -22.751 -15.304  0.00  0.00    +0.161 C 
ATOM     16  C   UNL     1      36.864 -22.622 -15.288  0.00  0.00    +0.104 C 
ATOM     17  C   UNL     1      35.715 -23.077 -14.673  0.00  0.00    +0.001 C 
BRANCH  17  18
ATOM     18  C   UNL     1      35.749 -23.867 -13.419  0.00  0.00    +0.026 C 
ATOM     19  C   UNL     1      36.262 -23.058 -12.227  0.00  0.00    +0.005 C 
ENDBRANCH  17  18
ENDBRANCH   3   9
BRANCH   4  20
ATOM     20  C   UNL     1      35.022 -14.755 -22.003  0.00  0.00    +0.260 C 
BRANCH  20  21
ATOM     21  O   UNL     1      34.171 -14.136 -22.967  0.00  0.00    -0.468 OA
BRANCH  21  22
ATOM     22  C   UNL     1      33.738 -12.872 -22.680  0.00  0.00    +0.139 C 
ATOM     23  C   UNL     1      34.203 -11.787 -23.425  0.00  0.00    +0.038 C 
ATOM     24  C   UNL     1      32.830 -12.664 -21.641  0.00  0.00    +0.038 C 
ATOM     25  C   UNL     1      32.855 -10.291 -22.092  0.00  0.00    +0.078 C 
ATOM     26  C   UNL     1      33.762 -10.497 -23.130  0.00  0.00    +0.020 C 
ATOM     27  C   UNL     1      32.388 -11.375 -21.347  0.00  0.00    +0.020 C 
BRANCH  25  28
ATOM     28  N   UNL     1      32.417  -9.012 -21.800  0.00  0.00    -0.149 N 
ATOM     29  N   UNL     1      32.451  -8.508 -20.559  0.00  0.00    -0.048 NA
ATOM     30  N   UNL     1      31.613  -7.006 -21.978  0.00  0.00    -0.107 NA
ATOM     31  N   UNL     1      31.959  -7.280 -20.673  0.00  0.00    -0.024 NA
ATOM     32  C   UNL     1      31.905  -8.090 -22.658  0.00  0.00    +0.215 C 
ENDBRANCH  25  28
ENDBRANCH  21  22
ENDBRANCH  20  21
ENDBRANCH   4  20
TORSDOF 6
ENDMDL
