MODEL 1
REMARK VINA RESULT:     -12.2      0.000      0.000
REMARK  Name = 5289411
REMARK  6 active torsions:
REMARK  status: ('A' for Active; 'I' for Inactive)
REMARK    1  A    between atoms: N_3  and  C_9
REMARK    2  A    between atoms: C_4  and  O_25
REMARK    3  A    between atoms: C_5  and  N_24
REMARK    4  A    between atoms: C_12  and  C_17
REMARK    5  A    between atoms: O_25  and  C_26
REMARK    6  A    between atoms: C_26  and  C_27
REMARK                            x       y       z     vdW  Elec       q    Type
REMARK                         _______ _______ _______ _____ _____    ______ ____
ROOT
ATOM      1  N   UNL     1      35.351 -23.086 -13.602  0.00  0.00    -0.293 NA
ATOM      2  N   UNL     1      37.677 -23.059 -12.973  0.00  0.00    -0.316 NA
ATOM      3  N   UNL     1      36.984 -22.252 -15.065  0.00  0.00    -0.238 N 
ATOM      4  C   UNL     1      35.073 -23.635 -12.402  0.00  0.00    +0.292 C 
ATOM      5  C   UNL     1      36.026 -23.923 -11.449  0.00  0.00    +0.261 C 
ATOM      6  C   UNL     1      37.326 -23.610 -11.792  0.00  0.00    +0.196 C 
ATOM      7  C   UNL     1      36.655 -22.827 -13.819  0.00  0.00    +0.207 C 
ATOM      8  H   UNL     1      37.948 -22.081 -15.179  0.00  0.00    +0.166 HD
ATOM      9  N   UNL     1      38.365 -23.875 -10.864  0.00  0.00    -0.334 N 
ATOM     10  H   UNL     1      39.297 -23.657 -11.094  0.00  0.00    +0.144 HD
ATOM     11  H   UNL     1      38.154 -24.275  -9.991  0.00  0.00    +0.144 HD
ENDROOT
BRANCH   3  12
ATOM     12  C   UNL     1      36.207 -21.875 -16.175  0.00  0.00    +0.058 C 
ATOM     13  C   UNL     1      36.768 -21.097 -17.191  0.00  0.00    +0.015 C 
ATOM     14  C   UNL     1      34.872 -22.274 -16.265  0.00  0.00    +0.015 C 
ATOM     15  C   UNL     1      34.663 -21.122 -18.377  0.00  0.00    +0.053 C 
ATOM     16  C   UNL     1      35.996 -20.721 -18.291  0.00  0.00    +0.006 C 
ATOM     17  C   UNL     1      34.101 -21.899 -17.365  0.00  0.00    +0.006 C 
BRANCH  15  20
ATOM     18  O   UNL     1      32.755 -21.254 -19.752  0.00  0.00    -0.270 OA
ATOM     19  N   UNL     1      34.358 -19.728 -20.353  0.00  0.00    -0.325 N 
ATOM     20  C   UNL     1      33.859 -20.729 -19.524  0.00  0.00    +0.243 C 
ATOM     21  H   UNL     1      33.841 -19.436 -21.138  0.00  0.00    +0.145 HD
ATOM     22  H   UNL     1      35.227 -19.312 -20.153  0.00  0.00    +0.145 HD
ENDBRANCH  15  20
ENDBRANCH   3  12
BRANCH   5  24
ATOM     23  O   UNL     1      35.789 -23.700  -9.285  0.00  0.00    -0.099 OA
ATOM     24  N   UNL     1      35.692 -24.483 -10.240  0.00  0.00    -0.030 NA
ENDBRANCH   5  24
BRANCH   4  25
ATOM     25  O   UNL     1      33.748 -23.907 -12.164  0.00  0.00    -0.453 OA
BRANCH  25  26
ATOM     26  C   UNL     1      32.809 -22.920 -12.549  0.00  0.00    +0.208 C 
BRANCH  26  27
ATOM     27  C   UNL     1      31.993 -23.458 -13.722  0.00  0.00    +0.044 C 
ATOM     28  C   UNL     1      30.841 -24.340 -13.220  0.00  0.00    +0.004 C 
ATOM     29  C   UNL     1      31.462 -22.308 -14.587  0.00  0.00    +0.004 C 
ATOM     30  C   UNL     1      29.977 -24.849 -14.372  0.00  0.00    +0.000 C 
ATOM     31  C   UNL     1      30.597 -22.819 -15.737  0.00  0.00    +0.000 C 
ATOM     32  C   UNL     1      29.459 -23.702 -15.235  0.00  0.00    +0.000 C 
ENDBRANCH  26  27
ENDBRANCH  25  26
ENDBRANCH   4  25
TORSDOF 6
ENDMDL
MODEL 2
REMARK VINA RESULT:     -11.9      0.836      1.557
REMARK  Name = 5289411
REMARK  6 active torsions:
REMARK  status: ('A' for Active; 'I' for Inactive)
REMARK    1  A    between atoms: N_3  and  C_9
REMARK    2  A    between atoms: C_4  and  O_25
REMARK    3  A    between atoms: C_5  and  N_24
REMARK    4  A    between atoms: C_12  and  C_17
REMARK    5  A    between atoms: O_25  and  C_26
REMARK    6  A    between atoms: C_26  and  C_27
REMARK                            x       y       z     vdW  Elec       q    Type
REMARK                         _______ _______ _______ _____ _____    ______ ____
ROOT
ATOM      1  N   UNL     1      35.382 -23.028 -13.545  0.00  0.00    -0.293 NA
ATOM      2  N   UNL     1      37.673 -22.989 -12.798  0.00  0.00    -0.316 NA
ATOM      3  N   UNL     1      37.083 -22.180 -14.920  0.00  0.00    -0.238 N 
ATOM      4  C   UNL     1      35.047 -23.583 -12.362  0.00  0.00    +0.292 C 
ATOM      5  C   UNL     1      35.952 -23.867 -11.363  0.00  0.00    +0.261 C 
ATOM      6  C   UNL     1      37.266 -23.545 -11.638  0.00  0.00    +0.196 C 
ATOM      7  C   UNL     1      36.694 -22.761 -13.694  0.00  0.00    +0.207 C 
ATOM      8  H   UNL     1      38.051 -22.003 -14.985  0.00  0.00    +0.166 HD
ATOM      9  N   UNL     1      38.258 -23.807 -10.659  0.00  0.00    -0.334 N 
ATOM     10  H   UNL     1      39.199 -23.583 -10.840  0.00  0.00    +0.144 HD
ATOM     11  H   UNL     1      38.005 -24.211  -9.798  0.00  0.00    +0.144 HD
ENDROOT
BRANCH   3  12
ATOM     12  C   UNL     1      36.362 -21.804 -16.068  0.00  0.00    +0.058 C 
ATOM     13  C   UNL     1      35.029 -22.196 -16.218  0.00  0.00    +0.015 C 
ATOM     14  C   UNL     1      36.976 -21.040 -17.062  0.00  0.00    +0.015 C 
ATOM     15  C   UNL     1      34.931 -21.061 -18.348  0.00  0.00    +0.053 C 
ATOM     16  C   UNL     1      34.315 -21.824 -17.357  0.00  0.00    +0.006 C 
ATOM     17  C   UNL     1      36.261 -20.668 -18.201  0.00  0.00    +0.006 C 
BRANCH  15  20
ATOM     18  O   UNL     1      34.690 -19.946 -20.409  0.00  0.00    -0.270 OA
ATOM     19  N   UNL     1      32.890 -21.163 -19.676  0.00  0.00    -0.325 N 
ATOM     20  C   UNL     1      34.185 -20.675 -19.536  0.00  0.00    +0.243 C 
ATOM     21  H   UNL     1      32.356 -20.923 -20.467  0.00  0.00    +0.145 HD
ATOM     22  H   UNL     1      32.508 -21.749 -18.983  0.00  0.00    +0.145 HD
ENDBRANCH  15  20
ENDBRANCH   3  12
BRANCH   5  24
ATOM     23  O   UNL     1      35.793 -23.724  -9.184  0.00  0.00    -0.099 OA
ATOM     24  N   UNL     1      35.560 -24.433 -10.174  0.00  0.00    -0.030 NA
ENDBRANCH   5  24
BRANCH   4  25
ATOM     25  O   UNL     1      33.713 -23.863 -12.193  0.00  0.00    -0.453 OA
BRANCH  25  26
ATOM     26  C   UNL     1      33.045 -24.489 -13.271  0.00  0.00    +0.208 C 
BRANCH  26  27
ATOM     27  C   UNL     1      31.666 -23.850 -13.424  0.00  0.00    +0.044 C 
ATOM     28  C   UNL     1      31.754 -22.565 -14.257  0.00  0.00    +0.004 C 
ATOM     29  C   UNL     1      30.676 -24.841 -14.050  0.00  0.00    +0.004 C 
ATOM     30  C   UNL     1      30.378 -21.935 -14.469  0.00  0.00    +0.000 C 
ATOM     31  C   UNL     1      29.302 -24.208 -14.262  0.00  0.00    +0.000 C 
ATOM     32  C   UNL     1      29.395 -22.926 -15.084  0.00  0.00    +0.000 C 
ENDBRANCH  26  27
ENDBRANCH  25  26
ENDBRANCH   4  25
TORSDOF 6
ENDMDL
MODEL 3
REMARK VINA RESULT:     -11.6      2.760      6.004
REMARK  Name = 5289411
REMARK  6 active torsions:
REMARK  status: ('A' for Active; 'I' for Inactive)
REMARK    1  A    between atoms: N_3  and  C_9
REMARK    2  A    between atoms: C_4  and  O_25
REMARK    3  A    between atoms: C_5  and  N_24
REMARK    4  A    between atoms: C_12  and  C_17
REMARK    5  A    between atoms: O_25  and  C_26
REMARK    6  A    between atoms: C_26  and  C_27
REMARK                            x       y       z     vdW  Elec       q    Type
REMARK                         _______ _______ _______ _____ _____    ______ ____
ROOT
ATOM      1  N   UNL     1      34.558 -22.697 -14.977  0.00  0.00    -0.293 NA
ATOM      2  N   UNL     1      35.389 -23.404 -12.828  0.00  0.00    -0.316 NA
ATOM      3  N   UNL     1      33.092 -23.450 -13.307  0.00  0.00    -0.238 N 
ATOM      4  C   UNL     1      35.831 -22.440 -15.341  0.00  0.00    +0.292 C 
ATOM      5  C   UNL     1      36.920 -22.634 -14.518  0.00  0.00    +0.261 C 
ATOM      6  C   UNL     1      36.637 -23.124 -13.259  0.00  0.00    +0.196 C 
ATOM      7  C   UNL     1      34.411 -23.170 -13.724  0.00  0.00    +0.207 C 
ATOM      8  H   UNL     1      33.033 -23.793 -12.385  0.00  0.00    +0.166 HD
ATOM      9  N   UNL     1      37.704 -23.351 -12.354  0.00  0.00    -0.334 N 
ATOM     10  H   UNL     1      37.518 -23.700 -11.452  0.00  0.00    +0.144 HD
ATOM     11  H   UNL     1      38.630 -23.161 -12.628  0.00  0.00    +0.144 HD
ENDROOT
BRANCH   3  12
ATOM     12  C   UNL     1      31.846 -23.338 -13.949  0.00  0.00    +0.058 C 
ATOM     13  C   UNL     1      31.174 -24.483 -14.383  0.00  0.00    +0.015 C 
ATOM     14  C   UNL     1      31.277 -22.080 -14.158  0.00  0.00    +0.015 C 
ATOM     15  C   UNL     1      29.373 -23.113 -15.228  0.00  0.00    +0.053 C 
ATOM     16  C   UNL     1      29.939 -24.370 -15.021  0.00  0.00    +0.006 C 
ATOM     17  C   UNL     1      30.041 -21.967 -14.797  0.00  0.00    +0.006 C 
BRANCH  15  20
ATOM     18  O   UNL     1      27.766 -23.759 -16.824  0.00  0.00    -0.270 OA
ATOM     19  N   UNL     1      27.210 -22.011 -15.448  0.00  0.00    -0.325 N 
ATOM     20  C   UNL     1      28.086 -22.996 -15.895  0.00  0.00    +0.243 C 
ATOM     21  H   UNL     1      26.331 -21.904 -15.875  0.00  0.00    +0.145 HD
ATOM     22  H   UNL     1      27.472 -21.423 -14.703  0.00  0.00    +0.145 HD
ENDBRANCH  15  20
ENDBRANCH   3  12
BRANCH   5  24
ATOM     23  O   UNL     1      38.971 -23.323 -14.852  0.00  0.00    -0.099 OA
ATOM     24  N   UNL     1      38.199 -22.356 -14.937  0.00  0.00    -0.030 NA
ENDBRANCH   5  24
BRANCH   4  25
ATOM     25  O   UNL     1      36.000 -21.956 -16.615  0.00  0.00    -0.453 OA
BRANCH  25  26
ATOM     26  C   UNL     1      34.869 -21.976 -17.466  0.00  0.00    +0.208 C 
BRANCH  26  27
ATOM     27  C   UNL     1      35.224 -21.246 -18.760  0.00  0.00    +0.044 C 
ATOM     28  C   UNL     1      34.070 -20.335 -19.200  0.00  0.00    +0.004 C 
ATOM     29  C   UNL     1      36.520 -20.444 -18.593  0.00  0.00    +0.004 C 
ATOM     30  C   UNL     1      34.421 -19.553 -20.465  0.00  0.00    +0.000 C 
ATOM     31  C   UNL     1      36.868 -19.662 -19.857  0.00  0.00    +0.000 C 
ATOM     32  C   UNL     1      35.715 -18.764 -20.296  0.00  0.00    +0.000 C 
ENDBRANCH  26  27
ENDBRANCH  25  26
ENDBRANCH   4  25
TORSDOF 6
ENDMDL
MODEL 4
REMARK VINA RESULT:     -11.6      2.917      7.030
REMARK  Name = 5289411
REMARK  6 active torsions:
REMARK  status: ('A' for Active; 'I' for Inactive)
REMARK    1  A    between atoms: N_3  and  C_9
REMARK    2  A    between atoms: C_4  and  O_25
REMARK    3  A    between atoms: C_5  and  N_24
REMARK    4  A    between atoms: C_12  and  C_17
REMARK    5  A    between atoms: O_25  and  C_26
REMARK    6  A    between atoms: C_26  and  C_27
REMARK                            x       y       z     vdW  Elec       q    Type
REMARK                         _______ _______ _______ _____ _____    ______ ____
ROOT
ATOM      1  N   UNL     1      33.022 -22.977 -15.371  0.00  0.00    -0.293 NA
ATOM      2  N   UNL     1      31.357 -23.848 -13.861  0.00  0.00    -0.316 NA
ATOM      3  N   UNL     1      33.643 -24.205 -13.471  0.00  0.00    -0.238 N 
ATOM      4  C   UNL     1      32.021 -22.461 -16.114  0.00  0.00    +0.292 C 
ATOM      5  C   UNL     1      30.685 -22.593 -15.802  0.00  0.00    +0.261 C 
ATOM      6  C   UNL     1      30.408 -23.304 -14.652  0.00  0.00    +0.196 C 
ATOM      7  C   UNL     1      32.624 -23.650 -14.274  0.00  0.00    +0.207 C 
ATOM      8  H   UNL     1      33.306 -24.688 -12.681  0.00  0.00    +0.166 HD
ATOM      9  N   UNL     1      29.057 -23.484 -14.263  0.00  0.00    -0.334 N 
ATOM     10  H   UNL     1      28.843 -23.988 -13.445  0.00  0.00    +0.144 HD
ATOM     11  H   UNL     1      28.333 -23.103 -14.811  0.00  0.00    +0.144 HD
ENDROOT
BRANCH   3  12
ATOM     12  C   UNL     1      35.046 -24.205 -13.577  0.00  0.00    +0.058 C 
ATOM     13  C   UNL     1      35.810 -23.360 -12.769  0.00  0.00    +0.015 C 
ATOM     14  C   UNL     1      35.679 -25.047 -14.493  0.00  0.00    +0.015 C 
ATOM     15  C   UNL     1      37.831 -24.202 -13.792  0.00  0.00    +0.053 C 
ATOM     16  C   UNL     1      37.201 -23.359 -12.876  0.00  0.00    +0.006 C 
ATOM     17  C   UNL     1      37.070 -25.046 -14.601  0.00  0.00    +0.006 C 
BRANCH  15  20
ATOM     18  O   UNL     1      40.005 -23.916 -12.933  0.00  0.00    -0.270 OA
ATOM     19  N   UNL     1      39.837 -24.542 -15.132  0.00  0.00    -0.325 N 
ATOM     20  C   UNL     1      39.281 -24.199 -13.904  0.00  0.00    +0.243 C 
ATOM     21  H   UNL     1      40.815 -24.551 -15.245  0.00  0.00    +0.145 HD
ATOM     22  H   UNL     1      39.252 -24.776 -15.888  0.00  0.00    +0.145 HD
ENDBRANCH  15  20
ENDBRANCH   3  12
BRANCH   5  24
ATOM     23  O   UNL     1      28.911 -22.886 -17.050  0.00  0.00    -0.099 OA
ATOM     24  N   UNL     1      29.702 -22.048 -16.593  0.00  0.00    -0.030 NA
ENDBRANCH   5  24
BRANCH   4  25
ATOM     25  O   UNL     1      32.408 -21.773 -17.237  0.00  0.00    -0.453 OA
BRANCH  25  26
ATOM     26  C   UNL     1      33.629 -22.159 -17.841  0.00  0.00    +0.208 C 
BRANCH  26  27
ATOM     27  C   UNL     1      34.287 -20.919 -18.442  0.00  0.00    +0.044 C 
ATOM     28  C   UNL     1      35.728 -21.225 -18.870  0.00  0.00    +0.004 C 
ATOM     29  C   UNL     1      33.467 -20.390 -19.626  0.00  0.00    +0.004 C 
ATOM     30  C   UNL     1      36.391 -20.014 -19.524  0.00  0.00    +0.000 C 
ATOM     31  C   UNL     1      34.132 -19.181 -20.278  0.00  0.00    +0.000 C 
ATOM     32  C   UNL     1      35.568 -19.487 -20.694  0.00  0.00    +0.000 C 
ENDBRANCH  26  27
ENDBRANCH  25  26
ENDBRANCH   4  25
TORSDOF 6
ENDMDL
MODEL 5
REMARK VINA RESULT:     -11.5      1.849      6.580
REMARK  Name = 5289411
REMARK  6 active torsions:
REMARK  status: ('A' for Active; 'I' for Inactive)
REMARK    1  A    between atoms: N_3  and  C_9
REMARK    2  A    between atoms: C_4  and  O_25
REMARK    3  A    between atoms: C_5  and  N_24
REMARK    4  A    between atoms: C_12  and  C_17
REMARK    5  A    between atoms: O_25  and  C_26
REMARK    6  A    between atoms: C_26  and  C_27
REMARK                            x       y       z     vdW  Elec       q    Type
REMARK                         _______ _______ _______ _____ _____    ______ ____
ROOT
ATOM      1  N   UNL     1      34.921 -22.025 -17.012  0.00  0.00    -0.293 NA
ATOM      2  N   UNL     1      36.265 -20.532 -18.343  0.00  0.00    -0.316 NA
ATOM      3  N   UNL     1      37.131 -21.527 -16.403  0.00  0.00    -0.238 N 
ATOM      4  C   UNL     1      33.912 -21.834 -17.887  0.00  0.00    +0.292 C 
ATOM      5  C   UNL     1      34.000 -21.020 -18.996  0.00  0.00    +0.261 C 
ATOM      6  C   UNL     1      35.214 -20.387 -19.177  0.00  0.00    +0.196 C 
ATOM      7  C   UNL     1      36.053 -21.352 -17.297  0.00  0.00    +0.207 C 
ATOM      8  H   UNL     1      37.937 -21.016 -16.650  0.00  0.00    +0.166 HD
ATOM      9  N   UNL     1      35.384 -19.533 -20.296  0.00  0.00    -0.334 N 
ATOM     10  H   UNL     1      36.243 -19.074 -20.439  0.00  0.00    +0.144 HD
ATOM     11  H   UNL     1      34.643 -19.399 -20.929  0.00  0.00    +0.144 HD
ENDROOT
BRANCH   3  12
ATOM     12  C   UNL     1      37.282 -22.287 -15.229  0.00  0.00    +0.058 C 
ATOM     13  C   UNL     1      36.306 -22.236 -14.230  0.00  0.00    +0.015 C 
ATOM     14  C   UNL     1      38.408 -23.094 -15.056  0.00  0.00    +0.015 C 
ATOM     15  C   UNL     1      37.583 -23.793 -12.896  0.00  0.00    +0.053 C 
ATOM     16  C   UNL     1      36.457 -22.988 -13.065  0.00  0.00    +0.006 C 
ATOM     17  C   UNL     1      38.559 -23.847 -13.891  0.00  0.00    +0.006 C 
BRANCH  15  20
ATOM     18  O   UNL     1      37.998 -24.036 -10.590  0.00  0.00    -0.270 OA
ATOM     19  N   UNL     1      37.572 -25.955 -11.771  0.00  0.00    -0.325 N 
ATOM     20  C   UNL     1      37.739 -24.576 -11.680  0.00  0.00    +0.243 C 
ATOM     21  H   UNL     1      37.671 -26.517 -10.969  0.00  0.00    +0.145 HD
ATOM     22  H   UNL     1      37.355 -26.368 -12.638  0.00  0.00    +0.145 HD
ENDBRANCH  15  20
ENDBRANCH   3  12
BRANCH   5  24
ATOM     23  O   UNL     1      32.422 -19.735 -19.800  0.00  0.00    -0.099 OA
ATOM     24  N   UNL     1      32.943 -20.858 -19.858  0.00  0.00    -0.030 NA
ENDBRANCH   5  24
BRANCH   4  25
ATOM     25  O   UNL     1      32.750 -22.511 -17.612  0.00  0.00    -0.453 OA
BRANCH  25  26
ATOM     26  C   UNL     1      31.989 -22.062 -16.507  0.00  0.00    +0.208 C 
BRANCH  26  27
ATOM     27  C   UNL     1      31.915 -23.189 -15.479  0.00  0.00    +0.044 C 
ATOM     28  C   UNL     1      32.642 -22.791 -14.187  0.00  0.00    +0.004 C 
ATOM     29  C   UNL     1      30.456 -23.565 -15.190  0.00  0.00    +0.004 C 
ATOM     30  C   UNL     1      32.537 -23.882 -13.123  0.00  0.00    +0.000 C 
ATOM     31  C   UNL     1      30.354 -24.654 -14.124  0.00  0.00    +0.000 C 
ATOM     32  C   UNL     1      31.086 -24.258 -12.846  0.00  0.00    +0.000 C 
ENDBRANCH  26  27
ENDBRANCH  25  26
ENDBRANCH   4  25
TORSDOF 6
ENDMDL
MODEL 6
REMARK VINA RESULT:     -11.1      2.523      5.211
REMARK  Name = 5289411
REMARK  6 active torsions:
REMARK  status: ('A' for Active; 'I' for Inactive)
REMARK    1  A    between atoms: N_3  and  C_9
REMARK    2  A    between atoms: C_4  and  O_25
REMARK    3  A    between atoms: C_5  and  N_24
REMARK    4  A    between atoms: C_12  and  C_17
REMARK    5  A    between atoms: O_25  and  C_26
REMARK    6  A    between atoms: C_26  and  C_27
REMARK                            x       y       z     vdW  Elec       q    Type
REMARK                         _______ _______ _______ _____ _____    ______ ____
ROOT
ATOM      1  N   UNL     1      34.477 -21.987 -16.140  0.00  0.00    -0.293 NA
ATOM      2  N   UNL     1      32.314 -23.041 -16.003  0.00  0.00    -0.316 NA
ATOM      3  N   UNL     1      32.915 -21.762 -17.876  0.00  0.00    -0.238 N 
ATOM      4  C   UNL     1      34.764 -22.507 -14.929  0.00  0.00    +0.292 C 
ATOM      5  C   UNL     1      33.893 -23.291 -14.203  0.00  0.00    +0.261 C 
ATOM      6  C   UNL     1      32.669 -23.528 -14.795  0.00  0.00    +0.196 C 
ATOM      7  C   UNL     1      33.252 -22.289 -16.611  0.00  0.00    +0.207 C 
ATOM      8  H   UNL     1      32.010 -22.008 -18.179  0.00  0.00    +0.166 HD
ATOM      9  N   UNL     1      31.718 -24.326 -14.111  0.00  0.00    -0.334 N 
ATOM     10  H   UNL     1      30.840 -24.505 -14.519  0.00  0.00    +0.144 HD
ATOM     11  H   UNL     1      31.935 -24.702 -13.228  0.00  0.00    +0.144 HD
ENDROOT
BRANCH   3  12
ATOM     12  C   UNL     1      33.617 -20.955 -18.789  0.00  0.00    +0.058 C 
ATOM     13  C   UNL     1      35.010 -21.033 -18.867  0.00  0.00    +0.015 C 
ATOM     14  C   UNL     1      32.925 -20.071 -19.619  0.00  0.00    +0.015 C 
ATOM     15  C   UNL     1      35.011 -19.349 -20.600  0.00  0.00    +0.053 C 
ATOM     16  C   UNL     1      35.706 -20.231 -19.772  0.00  0.00    +0.006 C 
ATOM     17  C   UNL     1      33.621 -19.269 -20.524  0.00  0.00    +0.006 C 
BRANCH  15  20
ATOM     18  O   UNL     1      36.766 -17.899 -21.204  0.00  0.00    -0.270 OA
ATOM     19  N   UNL     1      35.256 -18.433 -22.845  0.00  0.00    -0.325 N 
ATOM     20  C   UNL     1      35.738 -18.512 -21.541  0.00  0.00    +0.243 C 
ATOM     21  H   UNL     1      35.723 -17.877 -23.509  0.00  0.00    +0.145 HD
ATOM     22  H   UNL     1      34.449 -18.935 -23.101  0.00  0.00    +0.145 HD
ENDBRANCH  15  20
ENDBRANCH   3  12
BRANCH   5  24
ATOM     23  O   UNL     1      33.790 -23.135 -12.022  0.00  0.00    -0.099 OA
ATOM     24  N   UNL     1      34.233 -23.797 -12.972  0.00  0.00    -0.030 NA
ENDBRANCH   5  24
BRANCH   4  25
ATOM     25  O   UNL     1      36.009 -22.209 -14.433  0.00  0.00    -0.453 OA
BRANCH  25  26
ATOM     26  C   UNL     1      37.122 -22.752 -15.118  0.00  0.00    +0.208 C 
BRANCH  26  27
ATOM     27  C   UNL     1      37.834 -23.731 -14.186  0.00  0.00    +0.044 C 
ATOM     28  C   UNL     1      37.720 -23.269 -12.727  0.00  0.00    +0.004 C 
ATOM     29  C   UNL     1      37.272 -25.148 -14.356  0.00  0.00    +0.004 C 
ATOM     30  C   UNL     1      38.379 -24.260 -11.769  0.00  0.00    +0.000 C 
ATOM     31  C   UNL     1      37.931 -26.136 -13.396  0.00  0.00    +0.000 C 
ATOM     32  C   UNL     1      37.823 -25.669 -11.948  0.00  0.00    +0.000 C 
ENDBRANCH  26  27
ENDBRANCH  25  26
ENDBRANCH   4  25
TORSDOF 6
ENDMDL
MODEL 7
REMARK VINA RESULT:     -11.0      2.788      5.412
REMARK  Name = 5289411
REMARK  6 active torsions:
REMARK  status: ('A' for Active; 'I' for Inactive)
REMARK    1  A    between atoms: N_3  and  C_9
REMARK    2  A    between atoms: C_4  and  O_25
REMARK    3  A    between atoms: C_5  and  N_24
REMARK    4  A    between atoms: C_12  and  C_17
REMARK    5  A    between atoms: O_25  and  C_26
REMARK    6  A    between atoms: C_26  and  C_27
REMARK                            x       y       z     vdW  Elec       q    Type
REMARK                         _______ _______ _______ _____ _____    ______ ____
ROOT
ATOM      1  N   UNL     1      33.348 -22.480 -15.620  0.00  0.00    -0.293 NA
ATOM      2  N   UNL     1      31.081 -23.174 -16.055  0.00  0.00    -0.316 NA
ATOM      3  N   UNL     1      32.294 -21.952 -17.648  0.00  0.00    -0.238 N 
ATOM      4  C   UNL     1      33.258 -23.076 -14.414  0.00  0.00    +0.292 C 
ATOM      5  C   UNL     1      32.132 -23.731 -13.962  0.00  0.00    +0.261 C 
ATOM      6  C   UNL     1      31.062 -23.749 -14.834  0.00  0.00    +0.196 C 
ATOM      7  C   UNL     1      32.238 -22.565 -16.379  0.00  0.00    +0.207 C 
ATOM      8  H   UNL     1      31.461 -22.039 -18.167  0.00  0.00    +0.166 HD
ATOM      9  N   UNL     1      29.867 -24.404 -14.442  0.00  0.00    -0.334 N 
ATOM     10  H   UNL     1      29.095 -24.426 -15.053  0.00  0.00    +0.144 HD
ATOM     11  H   UNL     1      29.810 -24.837 -13.560  0.00  0.00    +0.144 HD
ENDROOT
BRANCH   3  12
ATOM     12  C   UNL     1      33.306 -21.241 -18.319  0.00  0.00    +0.058 C 
ATOM     13  C   UNL     1      32.971 -20.277 -19.273  0.00  0.00    +0.015 C 
ATOM     14  C   UNL     1      34.649 -21.498 -18.035  0.00  0.00    +0.015 C 
ATOM     15  C   UNL     1      35.315 -19.832 -19.653  0.00  0.00    +0.053 C 
ATOM     16  C   UNL     1      33.975 -19.573 -19.939  0.00  0.00    +0.006 C 
ATOM     17  C   UNL     1      35.653 -20.794 -18.701  0.00  0.00    +0.006 C 
BRANCH  15  20
ATOM     18  O   UNL     1      37.554 -19.194 -20.010  0.00  0.00    -0.270 OA
ATOM     19  N   UNL     1      35.986 -18.298 -21.423  0.00  0.00    -0.325 N 
ATOM     20  C   UNL     1      36.361 -19.099 -20.349  0.00  0.00    +0.243 C 
ATOM     21  H   UNL     1      36.667 -17.787 -21.918  0.00  0.00    +0.145 HD
ATOM     22  H   UNL     1      35.040 -18.242 -21.688  0.00  0.00    +0.145 HD
ENDBRANCH  15  20
ENDBRANCH   3  12
BRANCH   5  24
ATOM     23  O   UNL     1      31.155 -23.926 -12.013  0.00  0.00    -0.099 OA
ATOM     24  N   UNL     1      32.090 -24.323 -12.723  0.00  0.00    -0.030 NA
ENDBRANCH   5  24
BRANCH   4  25
ATOM     25  O   UNL     1      34.380 -22.998 -13.626  0.00  0.00    -0.453 OA
BRANCH  25  26
ATOM     26  C   UNL     1      35.632 -23.020 -14.285  0.00  0.00    +0.208 C 
BRANCH  26  27
ATOM     27  C   UNL     1      36.556 -23.981 -13.539  0.00  0.00    +0.044 C 
ATOM     28  C   UNL     1      37.040 -25.099 -14.472  0.00  0.00    +0.004 C 
ATOM     29  C   UNL     1      37.743 -23.227 -12.927  0.00  0.00    +0.004 C 
ATOM     30  C   UNL     1      38.009 -26.044 -13.764  0.00  0.00    +0.000 C 
ATOM     31  C   UNL     1      38.710 -24.175 -12.221  0.00  0.00    +0.000 C 
ATOM     32  C   UNL     1      39.183 -25.289 -13.149  0.00  0.00    +0.000 C 
ENDBRANCH  26  27
ENDBRANCH  25  26
ENDBRANCH   4  25
TORSDOF 6
ENDMDL
MODEL 8
REMARK VINA RESULT:     -10.7      2.520      5.298
REMARK  Name = 5289411
REMARK  6 active torsions:
REMARK  status: ('A' for Active; 'I' for Inactive)
REMARK    1  A    between atoms: N_3  and  C_9
REMARK    2  A    between atoms: C_4  and  O_25
REMARK    3  A    between atoms: C_5  and  N_24
REMARK    4  A    between atoms: C_12  and  C_17
REMARK    5  A    between atoms: O_25  and  C_26
REMARK    6  A    between atoms: C_26  and  C_27
REMARK                            x       y       z     vdW  Elec       q    Type
REMARK                         _______ _______ _______ _____ _____    ______ ____
ROOT
ATOM      1  N   UNL     1      35.231 -23.379 -13.989  0.00  0.00    -0.293 NA
ATOM      2  N   UNL     1      35.751 -23.994 -11.717  0.00  0.00    -0.316 NA
ATOM      3  N   UNL     1      33.526 -23.741 -12.418  0.00  0.00    -0.238 N 
ATOM      4  C   UNL     1      36.555 -23.352 -14.243  0.00  0.00    +0.292 C 
ATOM      5  C   UNL     1      37.525 -23.628 -13.303  0.00  0.00    +0.261 C 
ATOM      6  C   UNL     1      37.060 -23.947 -12.043  0.00  0.00    +0.196 C 
ATOM      7  C   UNL     1      34.904 -23.702 -12.723  0.00  0.00    +0.207 C 
ATOM      8  H   UNL     1      33.334 -23.981 -11.482  0.00  0.00    +0.166 HD
ATOM      9  N   UNL     1      37.996 -24.244 -11.020  0.00  0.00    -0.334 N 
ATOM     10  H   UNL     1      37.680 -24.473 -10.116  0.00  0.00    +0.144 HD
ATOM     11  H   UNL     1      38.960 -24.222 -11.214  0.00  0.00    +0.144 HD
ENDROOT
BRANCH   3  12
ATOM     12  C   UNL     1      32.374 -23.504 -13.189  0.00  0.00    +0.058 C 
ATOM     13  C   UNL     1      32.202 -22.278 -13.835  0.00  0.00    +0.015 C 
ATOM     14  C   UNL     1      31.395 -24.493 -13.308  0.00  0.00    +0.015 C 
ATOM     15  C   UNL     1      30.082 -23.033 -14.715  0.00  0.00    +0.053 C 
ATOM     16  C   UNL     1      31.057 -22.043 -14.598  0.00  0.00    +0.006 C 
ATOM     17  C   UNL     1      30.251 -24.259 -14.071  0.00  0.00    +0.006 C 
BRANCH  15  20
ATOM     18  O   UNL     1      28.322 -21.680 -15.501  0.00  0.00    -0.270 OA
ATOM     19  N   UNL     1      28.409 -23.828 -16.298  0.00  0.00    -0.325 N 
ATOM     20  C   UNL     1      28.889 -22.787 -15.509  0.00  0.00    +0.243 C 
ATOM     21  H   UNL     1      27.603 -23.697 -16.849  0.00  0.00    +0.145 HD
ATOM     22  H   UNL     1      28.875 -24.694 -16.305  0.00  0.00    +0.145 HD
ENDBRANCH  15  20
ENDBRANCH   3  12
BRANCH   5  24
ATOM     23  O   UNL     1      39.409 -24.699 -13.610  0.00  0.00    -0.099 OA
ATOM     24  N   UNL     1      38.863 -23.586 -13.613  0.00  0.00    -0.030 NA
ENDBRANCH   5  24
BRANCH   4  25
ATOM     25  O   UNL     1      36.908 -23.023 -15.529  0.00  0.00    -0.453 OA
BRANCH  25  26
ATOM     26  C   UNL     1      37.158 -21.657 -15.799  0.00  0.00    +0.208 C 
BRANCH  26  27
ATOM     27  C   UNL     1      36.108 -21.157 -16.788  0.00  0.00    +0.044 C 
ATOM     28  C   UNL     1      36.733 -20.923 -18.170  0.00  0.00    +0.004 C 
ATOM     29  C   UNL     1      34.935 -22.142 -16.879  0.00  0.00    +0.004 C 
ATOM     30  C   UNL     1      35.690 -20.473 -19.192  0.00  0.00    +0.000 C 
ATOM     31  C   UNL     1      33.896 -21.691 -17.902  0.00  0.00    +0.000 C 
ATOM     32  C   UNL     1      34.523 -21.451 -19.272  0.00  0.00    +0.000 C 
ENDBRANCH  26  27
ENDBRANCH  25  26
ENDBRANCH   4  25
TORSDOF 6
ENDMDL
MODEL 9
REMARK VINA RESULT:     -10.3      7.492     12.520
REMARK  Name = 5289411
REMARK  6 active torsions:
REMARK  status: ('A' for Active; 'I' for Inactive)
REMARK    1  A    between atoms: N_3  and  C_9
REMARK    2  A    between atoms: C_4  and  O_25
REMARK    3  A    between atoms: C_5  and  N_24
REMARK    4  A    between atoms: C_12  and  C_17
REMARK    5  A    between atoms: O_25  and  C_26
REMARK    6  A    between atoms: C_26  and  C_27
REMARK                            x       y       z     vdW  Elec       q    Type
REMARK                         _______ _______ _______ _____ _____    ______ ____
ROOT
ATOM      1  N   UNL     1      34.471 -14.833 -22.337  0.00  0.00    -0.293 NA
ATOM      2  N   UNL     1      34.524 -14.970 -24.742  0.00  0.00    -0.316 NA
ATOM      3  N   UNL     1      35.091 -16.821 -23.417  0.00  0.00    -0.238 N 
ATOM      4  C   UNL     1      34.075 -13.549 -22.458  0.00  0.00    +0.292 C 
ATOM      5  C   UNL     1      33.885 -12.914 -23.666  0.00  0.00    +0.261 C 
ATOM      6  C   UNL     1      34.127 -13.681 -24.788  0.00  0.00    +0.196 C 
ATOM      7  C   UNL     1      34.675 -15.475 -23.503  0.00  0.00    +0.207 C 
ATOM      8  H   UNL     1      35.229 -17.250 -24.293  0.00  0.00    +0.166 HD
ATOM      9  N   UNL     1      33.953 -13.099 -26.069  0.00  0.00    -0.334 N 
ATOM     10  H   UNL     1      34.121 -13.633 -26.879  0.00  0.00    +0.144 HD
ATOM     11  H   UNL     1      33.663 -12.162 -26.148  0.00  0.00    +0.144 HD
ENDROOT
BRANCH   3  12
ATOM     12  C   UNL     1      35.348 -17.671 -22.326  0.00  0.00    +0.058 C 
ATOM     13  C   UNL     1      36.565 -17.589 -21.644  0.00  0.00    +0.015 C 
ATOM     14  C   UNL     1      34.388 -18.601 -21.921  0.00  0.00    +0.015 C 
ATOM     15  C   UNL     1      35.858 -19.361 -20.161  0.00  0.00    +0.053 C 
ATOM     16  C   UNL     1      36.819 -18.433 -20.563  0.00  0.00    +0.006 C 
ATOM     17  C   UNL     1      34.642 -19.445 -20.840  0.00  0.00    +0.006 C 
BRANCH  15  20
ATOM     18  O   UNL     1      36.981 -19.956 -18.178  0.00  0.00    -0.270 OA
ATOM     19  N   UNL     1      35.377 -21.410 -18.934  0.00  0.00    -0.325 N 
ATOM     20  C   UNL     1      36.125 -20.241 -19.035  0.00  0.00    +0.243 C 
ATOM     21  H   UNL     1      35.530 -22.030 -18.185  0.00  0.00    +0.145 HD
ATOM     22  H   UNL     1      34.694 -21.616 -19.612  0.00  0.00    +0.145 HD
ENDBRANCH  15  20
ENDBRANCH   3  12
BRANCH   5  24
ATOM     23  O   UNL     1      34.396 -10.814 -24.011  0.00  0.00    -0.099 OA
ATOM     24  N   UNL     1      33.480 -11.603 -23.736  0.00  0.00    -0.030 NA
ENDBRANCH   5  24
BRANCH   4  25
ATOM     25  O   UNL     1      33.863 -12.879 -21.278  0.00  0.00    -0.453 OA
BRANCH  25  26
ATOM     26  C   UNL     1      32.727 -13.251 -20.521  0.00  0.00    +0.208 C 
BRANCH  26  27
ATOM     27  C   UNL     1      31.938 -11.989 -20.177  0.00  0.00    +0.044 C 
ATOM     28  C   UNL     1      31.934 -11.751 -18.661  0.00  0.00    +0.004 C 
ATOM     29  C   UNL     1      32.508 -10.774 -20.919  0.00  0.00    +0.004 C 
ATOM     30  C   UNL     1      31.196 -10.465 -18.294  0.00  0.00    +0.000 C 
ATOM     31  C   UNL     1      31.769  -9.489 -20.550  0.00  0.00    +0.000 C 
ATOM     32  C   UNL     1      31.760  -9.261 -19.042  0.00  0.00    +0.000 C 
ENDBRANCH  26  27
ENDBRANCH  25  26
ENDBRANCH   4  25
TORSDOF 6
ENDMDL
