MODEL 1
REMARK VINA RESULT:     -12.8      0.000      0.000
REMARK  Name = 24767976
REMARK  5 active torsions:
REMARK  status: ('A' for Active; 'I' for Inactive)
REMARK    1  A    between atoms: C_1  and  N_9
REMARK    2  A    between atoms: C_2  and  O_19
REMARK    3  A    between atoms: C_10  and  C_14
REMARK    4  A    between atoms: O_19  and  C_27
REMARK    5  A    between atoms: C_31  and  C_33
REMARK                            x       y       z     vdW  Elec       q    Type
REMARK                         _______ _______ _______ _____ _____    ______ ____
ROOT
ATOM      1  C   UNL     1      35.609 -20.876 -18.329  0.00  0.00    +0.050 C 
ATOM      2  C   UNL     1      35.930 -19.198 -20.036  0.00  0.00    +0.148 C 
ATOM      3  C   UNL     1      34.267 -20.985 -18.688  0.00  0.00    -0.008 C 
ATOM      4  C   UNL     1      36.442 -19.982 -19.003  0.00  0.00    +0.052 C 
ATOM      5  C   UNL     1      33.755 -20.200 -19.722  0.00  0.00    +0.000 C 
ATOM      6  C   UNL     1      34.587 -19.306 -20.396  0.00  0.00    +0.037 C 
ATOM      7  C   UNL     1      33.352 -21.934 -17.984  0.00  0.00    +0.032 C 
ENDROOT
BRANCH   1   9
ATOM      8  O   UNL     1      37.597 -20.174 -16.197  0.00  0.00    -0.268 OA
ATOM      9  N   UNL     1      36.140 -21.655 -17.298  0.00  0.00    -0.279 N 
ATOM     10  C   UNL     1      37.071 -21.274 -16.324  0.00  0.00    +0.265 C 
ATOM     11  H   UNL     1      35.821 -22.585 -17.250  0.00  0.00    +0.155 HD
BRANCH  10  14
ATOM     12  N   UNL     1      36.642 -22.937 -14.459  0.00  0.00    -0.206 N 
ATOM     13  N   UNL     1      37.245 -23.877 -13.712  0.00  0.00    -0.182 NA
ATOM     14  C   UNL     1      37.467 -22.344 -15.370  0.00  0.00    +0.124 C 
ATOM     15  C   UNL     1      38.695 -22.937 -15.207  0.00  0.00    +0.037 C 
ATOM     16  C   UNL     1      38.499 -23.873 -14.173  0.00  0.00    +0.078 C 
ATOM     17  C   UNL     1      35.243 -22.652 -14.242  0.00  0.00    +0.140 C 
ATOM     18  C   UNL     1      39.494 -24.790 -13.594  0.00  0.00    +0.054 C 
ENDBRANCH  10  14
ENDBRANCH   1   9
BRANCH   2  19
ATOM     19  O   UNL     1      36.761 -18.305 -20.709  0.00  0.00    -0.435 OA
BRANCH  19  27
ATOM     20  N   UNL     1      34.027 -14.047 -22.399  0.00  0.00    -0.373 NA
ATOM     21  N   UNL     1      34.747 -15.458 -20.829  0.00  0.00    -0.173 N 
ATOM     22  N   UNL     1      35.389 -16.506 -20.242  0.00  0.00    -0.138 NA
ATOM     23  C   UNL     1      33.536 -13.678 -21.173  0.00  0.00    +0.187 C 
ATOM     24  C   UNL     1      33.965 -14.533 -20.187  0.00  0.00    +0.193 C 
ATOM     25  C   UNL     1      34.754 -15.122 -22.172  0.00  0.00    +0.204 C 
ATOM     26  C   UNL     1      35.506 -15.949 -23.041  0.00  0.00    +0.054 C 
ATOM     27  C   UNL     1      36.056 -17.220 -21.090  0.00  0.00    +0.245 C 
ATOM     28  C   UNL     1      36.169 -17.002 -22.548  0.00  0.00    +0.063 C 
ATOM     29  O   UNL     1      32.276 -12.561 -18.678  0.00  0.00    -0.275 OA
ATOM     30  N   UNL     1      32.721 -12.585 -20.996  0.00  0.00    -0.261 N 
ATOM     31  C   UNL     1      32.150 -12.096 -19.803  0.00  0.00    +0.227 C 
ATOM     32  H   UNL     1      32.507 -12.077 -21.810  0.00  0.00    +0.157 HD
BRANCH  31  33
ATOM     33  C   UNL     1      31.307 -10.871 -19.975  0.00  0.00    +0.077 C 
ATOM     34  C   UNL     1      31.894  -9.530 -19.644  0.00  0.00    +0.010 C 
ATOM     35  C   UNL     1      30.843 -10.128 -18.756  0.00  0.00    +0.010 C 
ENDBRANCH  31  33
ENDBRANCH  19  27
ENDBRANCH   2  19
TORSDOF 5
ENDMDL
MODEL 2
REMARK VINA RESULT:     -12.7      2.397      2.750
REMARK  Name = 24767976
REMARK  5 active torsions:
REMARK  status: ('A' for Active; 'I' for Inactive)
REMARK    1  A    between atoms: C_1  and  N_9
REMARK    2  A    between atoms: C_2  and  O_19
REMARK    3  A    between atoms: C_10  and  C_14
REMARK    4  A    between atoms: O_19  and  C_27
REMARK    5  A    between atoms: C_31  and  C_33
REMARK                            x       y       z     vdW  Elec       q    Type
REMARK                         _______ _______ _______ _____ _____    ______ ____
ROOT
ATOM      1  C   UNL     1      35.106 -20.953 -18.469  0.00  0.00    +0.050 C 
ATOM      2  C   UNL     1      35.320 -19.563 -20.433  0.00  0.00    +0.148 C 
ATOM      3  C   UNL     1      33.718 -20.920 -18.596  0.00  0.00    -0.008 C 
ATOM      4  C   UNL     1      35.908 -20.274 -19.387  0.00  0.00    +0.052 C 
ATOM      5  C   UNL     1      33.131 -20.208 -19.642  0.00  0.00    +0.000 C 
ATOM      6  C   UNL     1      33.932 -19.530 -20.561  0.00  0.00    +0.037 C 
ATOM      7  C   UNL     1      32.835 -21.636 -17.626  0.00  0.00    +0.032 C 
ENDROOT
BRANCH   1   9
ATOM      8  O   UNL     1      37.324 -20.153 -16.616  0.00  0.00    -0.268 OA
ATOM      9  N   UNL     1      35.714 -21.660 -17.428  0.00  0.00    -0.279 N 
ATOM     10  C   UNL     1      36.751 -21.237 -16.590  0.00  0.00    +0.265 C 
ATOM     11  H   UNL     1      35.370 -22.569 -17.266  0.00  0.00    +0.155 HD
BRANCH  10  14
ATOM     12  N   UNL     1      36.414 -22.836 -14.652  0.00  0.00    -0.206 N 
ATOM     13  N   UNL     1      37.070 -23.702 -13.861  0.00  0.00    -0.182 NA
ATOM     14  C   UNL     1      37.207 -22.235 -15.586  0.00  0.00    +0.124 C 
ATOM     15  C   UNL     1      38.468 -22.744 -15.393  0.00  0.00    +0.037 C 
ATOM     16  C   UNL     1      38.323 -23.642 -14.318  0.00  0.00    +0.078 C 
ATOM     17  C   UNL     1      34.999 -22.628 -14.452  0.00  0.00    +0.140 C 
ATOM     18  C   UNL     1      39.370 -24.469 -13.695  0.00  0.00    +0.054 C 
ENDBRANCH  10  14
ENDBRANCH   1   9
BRANCH   2  19
ATOM     19  O   UNL     1      36.120 -18.886 -21.350  0.00  0.00    -0.435 OA
BRANCH  19  27
ATOM     20  N   UNL     1      34.620 -13.768 -21.458  0.00  0.00    -0.373 NA
ATOM     21  N   UNL     1      35.149 -15.710 -22.420  0.00  0.00    -0.173 N 
ATOM     22  N   UNL     1      35.524 -17.012 -22.561  0.00  0.00    -0.138 NA
ATOM     23  C   UNL     1      34.534 -13.658 -22.823  0.00  0.00    +0.187 C 
ATOM     24  C   UNL     1      34.857 -14.842 -23.439  0.00  0.00    +0.193 C 
ATOM     25  C   UNL     1      34.992 -15.012 -21.234  0.00  0.00    +0.204 C 
ATOM     26  C   UNL     1      35.244 -15.715 -20.032  0.00  0.00    +0.054 C 
ATOM     27  C   UNL     1      35.739 -17.595 -21.426  0.00  0.00    +0.245 C 
ATOM     28  C   UNL     1      35.618 -16.999 -20.079  0.00  0.00    +0.063 C 
ATOM     29  O   UNL     1      34.236 -13.028 -25.751  0.00  0.00    -0.275 OA
ATOM     30  N   UNL     1      34.169 -12.492 -23.453  0.00  0.00    -0.261 N 
ATOM     31  C   UNL     1      34.042 -12.240 -24.835  0.00  0.00    +0.227 C 
ATOM     32  H   UNL     1      33.970 -11.732 -22.862  0.00  0.00    +0.157 HD
BRANCH  31  33
ATOM     33  C   UNL     1      33.619 -10.845 -25.176  0.00  0.00    +0.077 C 
ATOM     34  C   UNL     1      34.670  -9.791 -25.371  0.00  0.00    +0.010 C 
ATOM     35  C   UNL     1      33.793  -9.760 -24.154  0.00  0.00    +0.010 C 
ENDBRANCH  31  33
ENDBRANCH  19  27
ENDBRANCH   2  19
TORSDOF 5
ENDMDL
MODEL 3
REMARK VINA RESULT:     -12.6      2.240      2.456
REMARK  Name = 24767976
REMARK  5 active torsions:
REMARK  status: ('A' for Active; 'I' for Inactive)
REMARK    1  A    between atoms: C_1  and  N_9
REMARK    2  A    between atoms: C_2  and  O_19
REMARK    3  A    between atoms: C_10  and  C_14
REMARK    4  A    between atoms: O_19  and  C_27
REMARK    5  A    between atoms: C_31  and  C_33
REMARK                            x       y       z     vdW  Elec       q    Type
REMARK                         _______ _______ _______ _____ _____    ______ ____
ROOT
ATOM      1  C   UNL     1      35.220 -21.186 -18.022  0.00  0.00    +0.050 C 
ATOM      2  C   UNL     1      35.756 -19.708 -19.856  0.00  0.00    +0.148 C 
ATOM      3  C   UNL     1      33.865 -21.085 -18.336  0.00  0.00    -0.008 C 
ATOM      4  C   UNL     1      36.166 -20.497 -18.782  0.00  0.00    +0.052 C 
ATOM      5  C   UNL     1      33.455 -20.294 -19.411  0.00  0.00    +0.000 C 
ATOM      6  C   UNL     1      34.401 -19.605 -20.170  0.00  0.00    +0.037 C 
ATOM      7  C   UNL     1      32.830 -21.811 -17.539  0.00  0.00    +0.032 C 
ENDROOT
BRANCH   1   9
ATOM      8  O   UNL     1      37.365 -20.686 -15.988  0.00  0.00    -0.268 OA
ATOM      9  N   UNL     1      35.650 -21.973 -16.951  0.00  0.00    -0.279 N 
ATOM     10  C   UNL     1      36.662 -21.690 -16.027  0.00  0.00    +0.265 C 
ATOM     11  H   UNL     1      35.184 -22.833 -16.832  0.00  0.00    +0.155 HD
BRANCH  10  14
ATOM     12  N   UNL     1      35.956 -23.327 -14.225  0.00  0.00    -0.206 N 
ATOM     13  N   UNL     1      36.439 -24.256 -13.383  0.00  0.00    -0.182 NA
ATOM     14  C   UNL     1      36.909 -22.746 -15.010  0.00  0.00    +0.124 C 
ATOM     15  C   UNL     1      38.097 -23.337 -14.657  0.00  0.00    +0.037 C 
ATOM     16  C   UNL     1      37.747 -24.258 -13.652  0.00  0.00    +0.078 C 
ATOM     17  C   UNL     1      34.540 -23.039 -14.223  0.00  0.00    +0.140 C 
ATOM     18  C   UNL     1      38.643 -25.168 -12.917  0.00  0.00    +0.054 C 
ENDBRANCH  10  14
ENDBRANCH   1   9
BRANCH   2  19
ATOM     19  O   UNL     1      36.700 -19.019 -20.614  0.00  0.00    -0.435 OA
BRANCH  19  27
ATOM     20  N   UNL     1      34.199 -15.939 -24.180  0.00  0.00    -0.373 NA
ATOM     21  N   UNL     1      35.343 -16.280 -22.295  0.00  0.00    -0.173 N 
ATOM     22  N   UNL     1      36.012 -16.924 -21.299  0.00  0.00    -0.138 NA
ATOM     23  C   UNL     1      34.409 -14.747 -23.533  0.00  0.00    +0.187 C 
ATOM     24  C   UNL     1      35.112 -14.931 -22.367  0.00  0.00    +0.193 C 
ATOM     25  C   UNL     1      34.769 -16.851 -23.419  0.00  0.00    +0.204 C 
ATOM     26  C   UNL     1      34.882 -18.255 -23.559  0.00  0.00    +0.054 C 
ATOM     27  C   UNL     1      36.079 -18.202 -21.488  0.00  0.00    +0.245 C 
ATOM     28  C   UNL     1      35.524 -18.967 -22.625  0.00  0.00    +0.063 C 
ATOM     29  O   UNL     1      34.667 -11.961 -22.424  0.00  0.00    -0.275 OA
ATOM     30  N   UNL     1      33.957 -13.545 -24.023  0.00  0.00    -0.261 N 
ATOM     31  C   UNL     1      34.100 -12.257 -23.468  0.00  0.00    +0.227 C 
ATOM     32  H   UNL     1      33.468 -13.589 -24.876  0.00  0.00    +0.157 HD
BRANCH  31  33
ATOM     33  C   UNL     1      33.480 -11.160 -24.276  0.00  0.00    +0.077 C 
ATOM     34  C   UNL     1      34.324 -10.426 -25.277  0.00  0.00    +0.010 C 
ATOM     35  C   UNL     1      33.892  -9.740 -24.014  0.00  0.00    +0.010 C 
ENDBRANCH  31  33
ENDBRANCH  19  27
ENDBRANCH   2  19
TORSDOF 5
ENDMDL
MODEL 4
REMARK VINA RESULT:     -12.1      2.279     10.753
REMARK  Name = 24767976
REMARK  5 active torsions:
REMARK  status: ('A' for Active; 'I' for Inactive)
REMARK    1  A    between atoms: C_1  and  N_9
REMARK    2  A    between atoms: C_2  and  O_19
REMARK    3  A    between atoms: C_10  and  C_14
REMARK    4  A    between atoms: O_19  and  C_27
REMARK    5  A    between atoms: C_31  and  C_33
REMARK                            x       y       z     vdW  Elec       q    Type
REMARK                         _______ _______ _______ _____ _____    ______ ____
ROOT
ATOM      1  C   UNL     1      35.265 -18.432 -20.632  0.00  0.00    +0.050 C 
ATOM      2  C   UNL     1      34.343 -20.373 -19.528  0.00  0.00    +0.148 C 
ATOM      3  C   UNL     1      36.548 -18.959 -20.489  0.00  0.00    -0.008 C 
ATOM      4  C   UNL     1      34.162 -19.139 -20.151  0.00  0.00    +0.052 C 
ATOM      5  C   UNL     1      36.729 -20.194 -19.865  0.00  0.00    +0.000 C 
ATOM      6  C   UNL     1      35.626 -20.901 -19.385  0.00  0.00    +0.037 C 
ATOM      7  C   UNL     1      37.747 -18.224 -20.994  0.00  0.00    +0.032 C 
ENDROOT
BRANCH   1   9
ATOM      8  O   UNL     1      35.382 -15.654 -19.510  0.00  0.00    -0.268 OA
ATOM      9  N   UNL     1      35.063 -17.197 -21.254  0.00  0.00    -0.279 N 
ATOM     10  C   UNL     1      35.130 -15.923 -20.680  0.00  0.00    +0.265 C 
ATOM     11  H   UNL     1      34.846 -17.228 -22.214  0.00  0.00    +0.155 HD
BRANCH  10  14
ATOM     12  N   UNL     1      34.787 -14.874 -22.962  0.00  0.00    -0.206 N 
ATOM     13  N   UNL     1      34.501 -13.708 -23.564  0.00  0.00    -0.182 NA
ATOM     14  C   UNL     1      34.836 -14.793 -21.601  0.00  0.00    +0.124 C 
ATOM     15  C   UNL     1      34.564 -13.483 -21.292  0.00  0.00    +0.037 C 
ATOM     16  C   UNL     1      34.366 -12.862 -22.540  0.00  0.00    +0.078 C 
ATOM     17  C   UNL     1      35.006 -16.052 -23.769  0.00  0.00    +0.140 C 
ATOM     18  C   UNL     1      34.042 -11.448 -22.797  0.00  0.00    +0.054 C 
ENDBRANCH  10  14
ENDBRANCH   1   9
BRANCH   2  19
ATOM     19  O   UNL     1      33.243 -21.079 -19.048  0.00  0.00    -0.435 OA
BRANCH  19  27
ATOM     20  N   UNL     1      34.224 -23.300 -14.298  0.00  0.00    -0.373 NA
ATOM     21  N   UNL     1      34.843 -22.381 -16.234  0.00  0.00    -0.173 N 
ATOM     22  N   UNL     1      34.760 -21.803 -17.465  0.00  0.00    -0.138 NA
ATOM     23  C   UNL     1      35.592 -23.245 -14.378  0.00  0.00    +0.187 C 
ATOM     24  C   UNL     1      35.999 -22.683 -15.564  0.00  0.00    +0.193 C 
ATOM     25  C   UNL     1      33.789 -22.775 -15.426  0.00  0.00    +0.204 C 
ATOM     26  C   UNL     1      32.481 -22.560 -15.920  0.00  0.00    +0.054 C 
ATOM     27  C   UNL     1      33.538 -21.635 -17.856  0.00  0.00    +0.245 C 
ATOM     28  C   UNL     1      32.307 -21.996 -17.121  0.00  0.00    +0.063 C 
ATOM     29  O   UNL     1      38.596 -23.298 -14.185  0.00  0.00    -0.275 OA
ATOM     30  N   UNL     1      36.415 -23.706 -13.378  0.00  0.00    -0.261 N 
ATOM     31  C   UNL     1      37.825 -23.711 -13.329  0.00  0.00    +0.227 C 
ATOM     32  H   UNL     1      35.960 -24.082 -12.591  0.00  0.00    +0.157 HD
BRANCH  31  33
ATOM     33  C   UNL     1      38.400 -24.292 -12.075  0.00  0.00    +0.077 C 
ATOM     34  C   UNL     1      37.904 -25.624 -11.594  0.00  0.00    +0.010 C 
ATOM     35  C   UNL     1      37.540 -24.374 -10.848  0.00  0.00    +0.010 C 
ENDBRANCH  31  33
ENDBRANCH  19  27
ENDBRANCH   2  19
TORSDOF 5
ENDMDL
MODEL 5
REMARK VINA RESULT:     -12.0      1.041      1.416
REMARK  Name = 24767976
REMARK  5 active torsions:
REMARK  status: ('A' for Active; 'I' for Inactive)
REMARK    1  A    between atoms: C_1  and  N_9
REMARK    2  A    between atoms: C_2  and  O_19
REMARK    3  A    between atoms: C_10  and  C_14
REMARK    4  A    between atoms: O_19  and  C_27
REMARK    5  A    between atoms: C_31  and  C_33
REMARK                            x       y       z     vdW  Elec       q    Type
REMARK                         _______ _______ _______ _____ _____    ______ ____
ROOT
ATOM      1  C   UNL     1      35.446 -21.223 -17.708  0.00  0.00    +0.050 C 
ATOM      2  C   UNL     1      36.024 -19.733 -19.519  0.00  0.00    +0.148 C 
ATOM      3  C   UNL     1      34.152 -21.337 -18.214  0.00  0.00    -0.008 C 
ATOM      4  C   UNL     1      36.382 -20.421 -18.361  0.00  0.00    +0.052 C 
ATOM      5  C   UNL     1      33.793 -20.649 -19.374  0.00  0.00    +0.000 C 
ATOM      6  C   UNL     1      34.730 -19.847 -20.027  0.00  0.00    +0.037 C 
ATOM      7  C   UNL     1      33.128 -22.189 -17.536  0.00  0.00    +0.032 C 
ENDROOT
BRANCH   1   9
ATOM      8  O   UNL     1      37.707 -20.709 -15.807  0.00  0.00    -0.268 OA
ATOM      9  N   UNL     1      35.824 -21.905 -16.549  0.00  0.00    -0.279 N 
ATOM     10  C   UNL     1      36.895 -21.621 -15.694  0.00  0.00    +0.265 C 
ATOM     11  H   UNL     1      35.270 -22.682 -16.304  0.00  0.00    +0.155 HD
BRANCH  10  14
ATOM     12  N   UNL     1      38.127 -23.377 -14.343  0.00  0.00    -0.206 N 
ATOM     13  N   UNL     1      38.032 -24.123 -13.230  0.00  0.00    -0.182 NA
ATOM     14  C   UNL     1      37.059 -22.554 -14.547  0.00  0.00    +0.124 C 
ATOM     15  C   UNL     1      36.206 -22.777 -13.494  0.00  0.00    +0.037 C 
ATOM     16  C   UNL     1      36.857 -23.752 -12.715  0.00  0.00    +0.078 C 
ATOM     17  C   UNL     1      39.295 -23.507 -15.184  0.00  0.00    +0.140 C 
ATOM     18  C   UNL     1      36.384 -24.360 -11.460  0.00  0.00    +0.054 C 
ENDBRANCH  10  14
ENDBRANCH   1   9
BRANCH   2  19
ATOM     19  O   UNL     1      36.959 -18.932 -20.171  0.00  0.00    -0.435 OA
BRANCH  19  27
ATOM     20  N   UNL     1      34.608 -14.723 -22.455  0.00  0.00    -0.373 NA
ATOM     21  N   UNL     1      35.122 -16.015 -20.711  0.00  0.00    -0.173 N 
ATOM     22  N   UNL     1      35.657 -17.034 -19.982  0.00  0.00    -0.138 NA
ATOM     23  C   UNL     1      34.043 -14.218 -21.311  0.00  0.00    +0.187 C 
ATOM     24  C   UNL     1      34.345 -14.998 -20.221  0.00  0.00    +0.193 C 
ATOM     25  C   UNL     1      35.254 -15.806 -22.073  0.00  0.00    +0.204 C 
ATOM     26  C   UNL     1      36.025 -16.745 -22.799  0.00  0.00    +0.054 C 
ATOM     27  C   UNL     1      36.348 -17.855 -20.704  0.00  0.00    +0.245 C 
ATOM     28  C   UNL     1      36.587 -17.779 -22.161  0.00  0.00    +0.063 C 
ATOM     29  O   UNL     1      32.655 -12.815 -19.040  0.00  0.00    -0.275 OA
ATOM     30  N   UNL     1      33.279 -13.076 -21.301  0.00  0.00    -0.261 N 
ATOM     31  C   UNL     1      32.643 -12.451 -20.208  0.00  0.00    +0.227 C 
ATOM     32  H   UNL     1      33.159 -12.636 -22.172  0.00  0.00    +0.157 HD
BRANCH  31  33
ATOM     33  C   UNL     1      31.886 -11.207 -20.558  0.00  0.00    +0.077 C 
ATOM     34  C   UNL     1      31.963 -10.024 -19.638  0.00  0.00    +0.010 C 
ATOM     35  C   UNL     1      30.696 -10.822 -19.731  0.00  0.00    +0.010 C 
ENDBRANCH  31  33
ENDBRANCH  19  27
ENDBRANCH   2  19
TORSDOF 5
ENDMDL
MODEL 6
REMARK VINA RESULT:     -11.9      3.582     12.305
REMARK  Name = 24767976
REMARK  5 active torsions:
REMARK  status: ('A' for Active; 'I' for Inactive)
REMARK    1  A    between atoms: C_1  and  N_9
REMARK    2  A    between atoms: C_2  and  O_19
REMARK    3  A    between atoms: C_10  and  C_14
REMARK    4  A    between atoms: O_19  and  C_27
REMARK    5  A    between atoms: C_31  and  C_33
REMARK                            x       y       z     vdW  Elec       q    Type
REMARK                         _______ _______ _______ _____ _____    ______ ____
ROOT
ATOM      1  C   UNL     1      32.416 -10.014 -21.593  0.00  0.00    +0.050 C 
ATOM      2  C   UNL     1      33.463 -11.880 -22.715  0.00  0.00    +0.148 C 
ATOM      3  C   UNL     1      31.791 -10.895 -20.711  0.00  0.00    -0.008 C 
ATOM      4  C   UNL     1      33.252 -10.507 -22.595  0.00  0.00    +0.052 C 
ATOM      5  C   UNL     1      32.002 -12.269 -20.831  0.00  0.00    +0.000 C 
ATOM      6  C   UNL     1      32.838 -12.761 -21.833  0.00  0.00    +0.037 C 
ATOM      7  C   UNL     1      30.890 -10.395 -19.628  0.00  0.00    +0.032 C 
ENDROOT
BRANCH   1   9
ATOM      8  O   UNL     1      34.277  -7.739 -22.184  0.00  0.00    -0.268 OA
ATOM      9  N   UNL     1      32.218  -8.635 -21.488  0.00  0.00    -0.279 N 
ATOM     10  C   UNL     1      33.127  -7.611 -21.779  0.00  0.00    +0.265 C 
ATOM     11  H   UNL     1      31.331  -8.349 -21.170  0.00  0.00    +0.155 HD
BRANCH  10  14
ATOM     12  N   UNL     1      32.352  -5.691 -20.316  0.00  0.00    -0.206 N 
ATOM     13  N   UNL     1      31.913  -4.422 -20.371  0.00  0.00    -0.182 NA
ATOM     14  C   UNL     1      32.628  -6.231 -21.538  0.00  0.00    +0.124 C 
ATOM     15  C   UNL     1      32.350  -5.247 -22.455  0.00  0.00    +0.037 C 
ATOM     16  C   UNL     1      31.914  -4.156 -21.679  0.00  0.00    +0.078 C 
ATOM     17  C   UNL     1      32.486  -6.338 -19.032  0.00  0.00    +0.140 C 
ATOM     18  C   UNL     1      31.486  -2.830 -22.157  0.00  0.00    +0.054 C 
ENDBRANCH  10  14
ENDBRANCH   1   9
BRANCH   2  19
ATOM     19  O   UNL     1      34.297 -12.372 -23.716  0.00  0.00    -0.435 OA
BRANCH  19  27
ATOM     20  N   UNL     1      34.715 -17.681 -23.406  0.00  0.00    -0.373 NA
ATOM     21  N   UNL     1      34.975 -15.612 -22.613  0.00  0.00    -0.173 N 
ATOM     22  N   UNL     1      34.938 -14.252 -22.539  0.00  0.00    -0.138 NA
ATOM     23  C   UNL     1      35.293 -17.721 -22.162  0.00  0.00    +0.187 C 
ATOM     24  C   UNL     1      35.464 -16.457 -21.652  0.00  0.00    +0.193 C 
ATOM     25  C   UNL     1      34.530 -16.401 -23.661  0.00  0.00    +0.204 C 
ATOM     26  C   UNL     1      33.977 -15.737 -24.781  0.00  0.00    +0.054 C 
ATOM     27  C   UNL     1      34.422 -13.709 -23.593  0.00  0.00    +0.245 C 
ATOM     28  C   UNL     1      33.903 -14.400 -24.792  0.00  0.00    +0.063 C 
ATOM     29  O   UNL     1      36.561 -18.215 -19.478  0.00  0.00    -0.275 OA
ATOM     30  N   UNL     1      35.641 -18.897 -21.542  0.00  0.00    -0.261 N 
ATOM     31  C   UNL     1      36.237 -19.083 -20.277  0.00  0.00    +0.227 C 
ATOM     32  H   UNL     1      35.450 -19.719 -22.047  0.00  0.00    +0.157 HD
BRANCH  31  33
ATOM     33  C   UNL     1      36.479 -20.514 -19.909  0.00  0.00    +0.077 C 
ATOM     34  C   UNL     1      35.419 -21.263 -19.156  0.00  0.00    +0.010 C 
ATOM     35  C   UNL     1      36.693 -20.870 -18.467  0.00  0.00    +0.010 C 
ENDBRANCH  31  33
ENDBRANCH  19  27
ENDBRANCH   2  19
TORSDOF 5
ENDMDL
MODEL 7
REMARK VINA RESULT:     -11.6      3.169      4.356
REMARK  Name = 24767976
REMARK  5 active torsions:
REMARK  status: ('A' for Active; 'I' for Inactive)
REMARK    1  A    between atoms: C_1  and  N_9
REMARK    2  A    between atoms: C_2  and  O_19
REMARK    3  A    between atoms: C_10  and  C_14
REMARK    4  A    between atoms: O_19  and  C_27
REMARK    5  A    between atoms: C_31  and  C_33
REMARK                            x       y       z     vdW  Elec       q    Type
REMARK                         _______ _______ _______ _____ _____    ______ ____
ROOT
ATOM      1  C   UNL     1      34.982 -20.521 -18.731  0.00  0.00    +0.050 C 
ATOM      2  C   UNL     1      35.392 -19.452 -20.857  0.00  0.00    +0.148 C 
ATOM      3  C   UNL     1      36.355 -20.599 -18.504  0.00  0.00    -0.008 C 
ATOM      4  C   UNL     1      34.499 -19.948 -19.907  0.00  0.00    +0.052 C 
ATOM      5  C   UNL     1      37.248 -20.102 -19.455  0.00  0.00    +0.000 C 
ATOM      6  C   UNL     1      36.766 -19.529 -20.632  0.00  0.00    +0.037 C 
ATOM      7  C   UNL     1      36.900 -21.208 -17.252  0.00  0.00    +0.032 C 
ENDROOT
BRANCH   1   9
ATOM      8  O   UNL     1      33.917 -23.295 -18.326  0.00  0.00    -0.268 OA
ATOM      9  N   UNL     1      34.072 -21.011 -17.790  0.00  0.00    -0.279 N 
ATOM     10  C   UNL     1      33.606 -22.323 -17.645  0.00  0.00    +0.265 C 
ATOM     11  H   UNL     1      33.713 -20.352 -17.152  0.00  0.00    +0.155 HD
BRANCH  10  14
ATOM     12  N   UNL     1      32.893 -22.986 -15.305  0.00  0.00    -0.206 N 
ATOM     13  N   UNL     1      31.814 -23.085 -14.510  0.00  0.00    -0.182 NA
ATOM     14  C   UNL     1      32.612 -22.530 -16.560  0.00  0.00    +0.124 C 
ATOM     15  C   UNL     1      31.255 -22.315 -16.586  0.00  0.00    +0.037 C 
ATOM     16  C   UNL     1      30.817 -22.673 -15.297  0.00  0.00    +0.078 C 
ATOM     17  C   UNL     1      34.190 -23.354 -14.786  0.00  0.00    +0.140 C 
ATOM     18  C   UNL     1      29.441 -22.636 -14.775  0.00  0.00    +0.054 C 
ENDBRANCH  10  14
ENDBRANCH   1   9
BRANCH   2  19
ATOM     19  O   UNL     1      34.911 -18.880 -22.033  0.00  0.00    -0.435 OA
BRANCH  19  27
ATOM     20  N   UNL     1      34.968 -13.582 -21.416  0.00  0.00    -0.373 NA
ATOM     21  N   UNL     1      34.700 -15.446 -22.612  0.00  0.00    -0.173 N 
ATOM     22  N   UNL     1      34.644 -16.769 -22.930  0.00  0.00    -0.138 NA
ATOM     23  C   UNL     1      34.635 -13.269 -22.710  0.00  0.00    +0.187 C 
ATOM     24  C   UNL     1      34.466 -14.402 -23.468  0.00  0.00    +0.193 C 
ATOM     25  C   UNL     1      35.002 -14.899 -21.376  0.00  0.00    +0.204 C 
ATOM     26  C   UNL     1      35.285 -15.799 -20.322  0.00  0.00    +0.054 C 
ATOM     27  C   UNL     1      34.913 -17.537 -21.924  0.00  0.00    +0.245 C 
ATOM     28  C   UNL     1      35.253 -17.118 -20.547  0.00  0.00    +0.063 C 
ATOM     29  O   UNL     1      33.929 -12.193 -25.431  0.00  0.00    -0.275 OA
ATOM     30  N   UNL     1      34.500 -11.974 -23.151  0.00  0.00    -0.261 N 
ATOM     31  C   UNL     1      34.167 -11.513 -24.441  0.00  0.00    +0.227 C 
ATOM     32  H   UNL     1      34.657 -11.276 -22.476  0.00  0.00    +0.157 HD
BRANCH  31  33
ATOM     33  C   UNL     1      34.104 -10.023 -24.571  0.00  0.00    +0.077 C 
ATOM     34  C   UNL     1      35.371  -9.259 -24.825  0.00  0.00    +0.010 C 
ATOM     35  C   UNL     1      34.696  -9.171 -23.488  0.00  0.00    +0.010 C 
ENDBRANCH  31  33
ENDBRANCH  19  27
ENDBRANCH   2  19
TORSDOF 5
ENDMDL
MODEL 8
REMARK VINA RESULT:     -11.5      2.355     10.515
REMARK  Name = 24767976
REMARK  5 active torsions:
REMARK  status: ('A' for Active; 'I' for Inactive)
REMARK    1  A    between atoms: C_1  and  N_9
REMARK    2  A    between atoms: C_2  and  O_19
REMARK    3  A    between atoms: C_10  and  C_14
REMARK    4  A    between atoms: O_19  and  C_27
REMARK    5  A    between atoms: C_31  and  C_33
REMARK                            x       y       z     vdW  Elec       q    Type
REMARK                         _______ _______ _______ _____ _____    ______ ____
ROOT
ATOM      1  C   UNL     1      34.657 -15.886 -23.336  0.00  0.00    +0.050 C 
ATOM      2  C   UNL     1      35.752 -17.791 -22.335  0.00  0.00    +0.148 C 
ATOM      3  C   UNL     1      34.179 -16.699 -24.363  0.00  0.00    -0.008 C 
ATOM      4  C   UNL     1      35.444 -16.432 -22.322  0.00  0.00    +0.052 C 
ATOM      5  C   UNL     1      34.487 -18.060 -24.375  0.00  0.00    +0.000 C 
ATOM      6  C   UNL     1      35.274 -18.606 -23.361  0.00  0.00    +0.037 C 
ATOM      7  C   UNL     1      33.334 -16.141 -25.462  0.00  0.00    +0.032 C 
ENDROOT
BRANCH   1   9
ATOM      8  O   UNL     1      34.642 -13.956 -21.041  0.00  0.00    -0.268 OA
ATOM      9  N   UNL     1      34.358 -14.521 -23.305  0.00  0.00    -0.279 N 
ATOM     10  C   UNL     1      34.366 -13.663 -22.200  0.00  0.00    +0.265 C 
ATOM     11  H   UNL     1      34.110 -14.113 -24.167  0.00  0.00    +0.155 HD
BRANCH  10  14
ATOM     12  N   UNL     1      32.981 -11.570 -21.843  0.00  0.00    -0.206 N 
ATOM     13  N   UNL     1      32.821 -10.312 -22.286  0.00  0.00    -0.182 NA
ATOM     14  C   UNL     1      33.971 -12.257 -22.482  0.00  0.00    +0.124 C 
ATOM     15  C   UNL     1      34.495 -11.388 -23.408  0.00  0.00    +0.037 C 
ATOM     16  C   UNL     1      33.748 -10.206 -23.241  0.00  0.00    +0.078 C 
ATOM     17  C   UNL     1      32.131 -12.059 -20.782  0.00  0.00    +0.140 C 
ATOM     18  C   UNL     1      33.894  -8.942 -23.983  0.00  0.00    +0.054 C 
ENDBRANCH  10  14
ENDBRANCH   1   9
BRANCH   2  19
ATOM     19  O   UNL     1      36.538 -18.337 -21.322  0.00  0.00    -0.435 OA
BRANCH  19  27
ATOM     20  N   UNL     1      33.377 -21.314 -18.224  0.00  0.00    -0.373 NA
ATOM     21  N   UNL     1      35.351 -20.472 -18.831  0.00  0.00    -0.173 N 
ATOM     22  N   UNL     1      36.286 -19.762 -19.523  0.00  0.00    -0.138 NA
ATOM     23  C   UNL     1      34.363 -21.769 -17.385  0.00  0.00    +0.187 C 
ATOM     24  C   UNL     1      35.590 -21.264 -17.738  0.00  0.00    +0.193 C 
ATOM     25  C   UNL     1      33.992 -20.533 -19.089  0.00  0.00    +0.204 C 
ATOM     26  C   UNL     1      33.509 -19.785 -20.188  0.00  0.00    +0.054 C 
ATOM     27  C   UNL     1      35.778 -19.101 -20.513  0.00  0.00    +0.245 C 
ATOM     28  C   UNL     1      34.359 -19.058 -20.924  0.00  0.00    +0.063 C 
ATOM     29  O   UNL     1      36.228 -22.970 -15.351  0.00  0.00    -0.275 OA
ATOM     30  N   UNL     1      34.111 -22.621 -16.335  0.00  0.00    -0.261 N 
ATOM     31  C   UNL     1      35.020 -23.162 -15.403  0.00  0.00    +0.227 C 
ATOM     32  H   UNL     1      33.172 -22.889 -16.220  0.00  0.00    +0.157 HD
BRANCH  31  33
ATOM     33  C   UNL     1      34.399 -24.062 -14.380  0.00  0.00    +0.077 C 
ATOM     34  C   UNL     1      33.364 -23.501 -13.449  0.00  0.00    +0.010 C 
ATOM     35  C   UNL     1      34.727 -23.854 -12.931  0.00  0.00    +0.010 C 
ENDBRANCH  31  33
ENDBRANCH  19  27
ENDBRANCH   2  19
TORSDOF 5
ENDMDL
MODEL 9
REMARK VINA RESULT:     -11.3      2.832      3.367
REMARK  Name = 24767976
REMARK  5 active torsions:
REMARK  status: ('A' for Active; 'I' for Inactive)
REMARK    1  A    between atoms: C_1  and  N_9
REMARK    2  A    between atoms: C_2  and  O_19
REMARK    3  A    between atoms: C_10  and  C_14
REMARK    4  A    between atoms: O_19  and  C_27
REMARK    5  A    between atoms: C_31  and  C_33
REMARK                            x       y       z     vdW  Elec       q    Type
REMARK                         _______ _______ _______ _____ _____    ______ ____
ROOT
ATOM      1  C   UNL     1      35.030 -21.292 -17.876  0.00  0.00    +0.050 C 
ATOM      2  C   UNL     1      35.494 -20.030 -19.882  0.00  0.00    +0.148 C 
ATOM      3  C   UNL     1      33.671 -21.288 -18.187  0.00  0.00    -0.008 C 
ATOM      4  C   UNL     1      35.942 -20.663 -18.724  0.00  0.00    +0.052 C 
ATOM      5  C   UNL     1      33.223 -20.654 -19.346  0.00  0.00    +0.000 C 
ATOM      6  C   UNL     1      34.135 -20.024 -20.194  0.00  0.00    +0.037 C 
ATOM      7  C   UNL     1      32.672 -21.954 -17.297  0.00  0.00    +0.032 C 
ENDROOT
BRANCH   1   9
ATOM      8  O   UNL     1      37.428 -20.694 -16.177  0.00  0.00    -0.268 OA
ATOM      9  N   UNL     1      35.499 -21.923 -16.720  0.00  0.00    -0.279 N 
ATOM     10  C   UNL     1      36.630 -21.601 -15.963  0.00  0.00    +0.265 C 
ATOM     11  H   UNL     1      34.968 -22.689 -16.400  0.00  0.00    +0.155 HD
BRANCH  10  14
ATOM     12  N   UNL     1      38.036 -23.177 -14.560  0.00  0.00    -0.206 N 
ATOM     13  N   UNL     1      38.013 -23.903 -13.430  0.00  0.00    -0.182 NA
ATOM     14  C   UNL     1      36.885 -22.483 -14.792  0.00  0.00    +0.124 C 
ATOM     15  C   UNL     1      36.051 -22.775 -13.741  0.00  0.00    +0.037 C 
ATOM     16  C   UNL     1      36.799 -23.653 -12.933  0.00  0.00    +0.078 C 
ATOM     17  C   UNL     1      39.219 -23.196 -15.389  0.00  0.00    +0.140 C 
ATOM     18  C   UNL     1      36.383 -24.280 -11.667  0.00  0.00    +0.054 C 
ENDBRANCH  10  14
ENDBRANCH   1   9
BRANCH   2  19
ATOM     19  O   UNL     1      36.404 -19.401 -20.728  0.00  0.00    -0.435 OA
BRANCH  19  27
ATOM     20  N   UNL     1      34.673 -14.463 -21.766  0.00  0.00    -0.373 NA
ATOM     21  N   UNL     1      35.289 -16.524 -22.357  0.00  0.00    -0.173 N 
ATOM     22  N   UNL     1      35.723 -17.811 -22.259  0.00  0.00    -0.138 NA
ATOM     23  C   UNL     1      34.581 -14.611 -23.126  0.00  0.00    +0.187 C 
ATOM     24  C   UNL     1      34.957 -15.873 -23.516  0.00  0.00    +0.193 C 
ATOM     25  C   UNL     1      35.101 -15.626 -21.319  0.00  0.00    +0.204 C 
ATOM     26  C   UNL     1      35.387 -16.083 -20.010  0.00  0.00    +0.054 C 
ATOM     27  C   UNL     1      35.965 -18.164 -21.038  0.00  0.00    +0.245 C 
ATOM     28  C   UNL     1      35.818 -17.336 -19.822  0.00  0.00    +0.063 C 
ATOM     29  O   UNL     1      34.252 -14.548 -26.118  0.00  0.00    -0.275 OA
ATOM     30  N   UNL     1      34.163 -13.599 -23.958  0.00  0.00    -0.261 N 
ATOM     31  C   UNL     1      34.024 -13.613 -25.361  0.00  0.00    +0.227 C 
ATOM     32  H   UNL     1      33.930 -12.752 -23.515  0.00  0.00    +0.157 HD
BRANCH  31  33
ATOM     33  C   UNL     1      33.537 -12.325 -25.950  0.00  0.00    +0.077 C 
ATOM     34  C   UNL     1      34.509 -11.445 -26.682  0.00  0.00    +0.010 C 
ATOM     35  C   UNL     1      33.984 -11.030 -25.339  0.00  0.00    +0.010 C 
ENDBRANCH  31  33
ENDBRANCH  19  27
ENDBRANCH   2  19
TORSDOF 5
ENDMDL
