MODEL 1
REMARK VINA RESULT:     -10.9      0.000      0.000
REMARK  Name = 6433122
REMARK  5 active torsions:
REMARK  status: ('A' for Active; 'I' for Inactive)
REMARK    1  A    between atoms: N_2  and  C_22
REMARK    2  A    between atoms: C_8  and  C_11
REMARK    3  A    between atoms: C_16  and  C_21
REMARK    4  A    between atoms: C_22  and  C_23
REMARK    5  A    between atoms: C_23  and  C_25
REMARK                            x       y       z     vdW  Elec       q    Type
REMARK                         _______ _______ _______ _____ _____    ______ ____
ROOT
ATOM      1  O   UNL     1      34.945 -19.058 -23.060  0.00  0.00    -0.270 OA
ATOM      2  N   UNL     1      35.250 -14.294 -21.584  0.00  0.00    +0.389 N 
ATOM      3  N   UNL     1      35.298 -17.153 -21.750  0.00  0.00    -0.280 N 
ATOM      4  C   UNL     1      35.080 -14.969 -22.878  0.00  0.00    -0.055 C 
ATOM      5  C   UNL     1      34.682 -15.111 -20.501  0.00  0.00    -0.055 C 
ATOM      6  C   UNL     1      35.763 -16.335 -22.867  0.00  0.00    +0.071 C 
ATOM      7  C   UNL     1      35.345 -16.488 -20.442  0.00  0.00    +0.071 C 
ATOM      8  C   UNL     1      34.923 -18.480 -21.973  0.00  0.00    +0.250 C 
ATOM      9  H   UNL     1      36.248 -14.177 -21.410  0.00  0.00    -0.080 HD
ENDROOT
BRANCH   8  11
ATOM     10  N   UNL     1      36.743 -19.741 -19.852  0.00  0.00    -0.311 N 
ATOM     11  C   UNL     1      34.468 -19.275 -20.825  0.00  0.00    +0.067 C 
ATOM     12  C   UNL     1      35.368 -19.812 -19.904  0.00  0.00    +0.053 C 
ATOM     13  C   UNL     1      34.954 -20.570 -18.806  0.00  0.00    +0.024 C 
ATOM     14  C   UNL     1      33.108 -19.511 -20.627  0.00  0.00    +0.006 C 
ATOM     15  C   UNL     1      33.577 -20.800 -18.622  0.00  0.00    +0.002 C 
ATOM     16  C   UNL     1      36.127 -20.948 -18.094  0.00  0.00    +0.084 C 
ATOM     17  C   UNL     1      32.666 -20.264 -19.540  0.00  0.00    +0.000 C 
ATOM     18  C   UNL     1      37.210 -20.423 -18.761  0.00  0.00    +0.072 C 
ATOM     19  H   UNL     1      37.307 -19.266 -20.503  0.00  0.00    +0.152 HD
BRANCH  16  21
ATOM     20  N   UNL     1      36.279 -22.366 -15.928  0.00  0.00    -0.191 NA
ATOM     21  C   UNL     1      36.211 -21.727 -16.904  0.00  0.00    +0.102 C 
ENDBRANCH  16  21
ENDBRANCH   8  11
BRANCH   2  22
ATOM     22  C   UNL     1      34.629 -12.971 -21.609  0.00  0.00    -0.072 C 
BRANCH  22  23
ATOM     23  C   UNL     1      33.119 -13.078 -21.830  0.00  0.00    +0.004 C 
BRANCH  23  25
ATOM     24  F   UNL     1      30.276  -9.711 -18.343  0.00  0.00    -0.204 F 
ATOM     25  C   UNL     1      32.357 -12.175 -20.894  0.00  0.00    -0.024 C 
ATOM     26  C   UNL     1      32.333 -12.464 -19.539  0.00  0.00    -0.002 C 
ATOM     27  C   UNL     1      31.692 -11.071 -21.406  0.00  0.00    -0.002 C 
ATOM     28  C   UNL     1      31.627 -11.627 -18.673  0.00  0.00    +0.029 C 
ATOM     29  C   UNL     1      30.987 -10.235 -20.541  0.00  0.00    +0.029 C 
ATOM     30  C   UNL     1      30.954 -10.513 -19.174  0.00  0.00    +0.140 C 
ENDBRANCH  23  25
ENDBRANCH  22  23
ENDBRANCH   2  22
TORSDOF 5
ENDMDL
MODEL 2
REMARK VINA RESULT:     -10.8      3.767      8.800
REMARK  Name = 6433122
REMARK  5 active torsions:
REMARK  status: ('A' for Active; 'I' for Inactive)
REMARK    1  A    between atoms: N_2  and  C_22
REMARK    2  A    between atoms: C_8  and  C_11
REMARK    3  A    between atoms: C_16  and  C_21
REMARK    4  A    between atoms: C_22  and  C_23
REMARK    5  A    between atoms: C_23  and  C_25
REMARK                            x       y       z     vdW  Elec       q    Type
REMARK                         _______ _______ _______ _____ _____    ______ ____
ROOT
ATOM      1  O   UNL     1      37.451 -17.949 -20.986  0.00  0.00    -0.270 OA
ATOM      2  N   UNL     1      33.828 -20.916 -19.245  0.00  0.00    +0.389 N 
ATOM      3  N   UNL     1      35.473 -19.186 -20.827  0.00  0.00    -0.280 N 
ATOM      4  C   UNL     1      35.194 -20.587 -18.814  0.00  0.00    -0.055 C 
ATOM      5  C   UNL     1      33.233 -19.785 -19.972  0.00  0.00    -0.055 C 
ATOM      6  C   UNL     1      36.070 -20.246 -20.018  0.00  0.00    +0.071 C 
ATOM      7  C   UNL     1      34.071 -19.414 -21.196  0.00  0.00    +0.071 C 
ATOM      8  C   UNL     1      36.258 -18.108 -21.242  0.00  0.00    +0.250 C 
ATOM      9  H   UNL     1      33.872 -21.717 -19.874  0.00  0.00    -0.080 HD
ENDROOT
BRANCH   8  11
ATOM     10  N   UNL     1      35.239 -15.409 -20.205  0.00  0.00    -0.311 N 
ATOM     11  C   UNL     1      35.626 -17.065 -22.061  0.00  0.00    +0.067 C 
ATOM     12  C   UNL     1      35.191 -15.861 -21.504  0.00  0.00    +0.053 C 
ATOM     13  C   UNL     1      34.589 -14.858 -22.267  0.00  0.00    +0.024 C 
ATOM     14  C   UNL     1      35.447 -17.257 -23.430  0.00  0.00    +0.006 C 
ATOM     15  C   UNL     1      34.415 -15.069 -23.649  0.00  0.00    +0.002 C 
ATOM     16  C   UNL     1      34.280 -13.789 -21.380  0.00  0.00    +0.084 C 
ATOM     17  C   UNL     1      34.850 -16.273 -24.216  0.00  0.00    +0.000 C 
ATOM     18  C   UNL     1      34.691 -14.157 -20.119  0.00  0.00    +0.072 C 
ATOM     19  H   UNL     1      35.614 -15.911 -19.446  0.00  0.00    +0.152 HD
BRANCH  16  21
ATOM     20  N   UNL     1      33.146 -11.529 -21.955  0.00  0.00    -0.191 NA
ATOM     21  C   UNL     1      33.657 -12.547 -21.696  0.00  0.00    +0.102 C 
ENDBRANCH  16  21
ENDBRANCH   8  11
BRANCH   2  22
ATOM     22  C   UNL     1      33.000 -21.279 -18.095  0.00  0.00    -0.072 C 
BRANCH  22  23
ATOM     23  C   UNL     1      33.655 -22.395 -17.279  0.00  0.00    +0.004 C 
BRANCH  23  25
ATOM     24  F   UNL     1      31.029 -23.179 -12.373  0.00  0.00    -0.204 F 
ATOM     25  C   UNL     1      32.951 -22.606 -15.963  0.00  0.00    -0.024 C 
ATOM     26  C   UNL     1      31.577 -22.433 -15.892  0.00  0.00    -0.002 C 
ATOM     27  C   UNL     1      33.689 -22.968 -14.847  0.00  0.00    -0.002 C 
ATOM     28  C   UNL     1      30.925 -22.628 -14.673  0.00  0.00    +0.029 C 
ATOM     29  C   UNL     1      33.037 -23.163 -13.629  0.00  0.00    +0.029 C 
ATOM     30  C   UNL     1      31.655 -22.993 -13.542  0.00  0.00    +0.140 C 
ENDBRANCH  23  25
ENDBRANCH  22  23
ENDBRANCH   2  22
TORSDOF 5
ENDMDL
MODEL 3
REMARK VINA RESULT:     -10.8      1.562      2.571
REMARK  Name = 6433122
REMARK  5 active torsions:
REMARK  status: ('A' for Active; 'I' for Inactive)
REMARK    1  A    between atoms: N_2  and  C_22
REMARK    2  A    between atoms: C_8  and  C_11
REMARK    3  A    between atoms: C_16  and  C_21
REMARK    4  A    between atoms: C_22  and  C_23
REMARK    5  A    between atoms: C_23  and  C_25
REMARK                            x       y       z     vdW  Elec       q    Type
REMARK                         _______ _______ _______ _____ _____    ______ ____
ROOT
ATOM      1  O   UNL     1      34.202 -18.280 -23.950  0.00  0.00    -0.270 OA
ATOM      2  N   UNL     1      34.257 -13.335 -23.236  0.00  0.00    +0.389 N 
ATOM      3  N   UNL     1      34.881 -16.129 -23.332  0.00  0.00    -0.280 N 
ATOM      4  C   UNL     1      33.409 -14.263 -23.998  0.00  0.00    -0.055 C 
ATOM      5  C   UNL     1      34.829 -14.010 -22.062  0.00  0.00    -0.055 C 
ATOM      6  C   UNL     1      34.215 -15.476 -24.457  0.00  0.00    +0.071 C 
ATOM      7  C   UNL     1      35.658 -15.228 -22.474  0.00  0.00    +0.071 C 
ATOM      8  C   UNL     1      34.801 -17.517 -23.192  0.00  0.00    +0.250 C 
ATOM      9  H   UNL     1      35.023 -13.031 -23.837  0.00  0.00    -0.080 HD
ENDROOT
BRANCH   8  11
ATOM     10  N   UNL     1      33.501 -19.384 -21.137  0.00  0.00    -0.311 N 
ATOM     11  C   UNL     1      35.488 -18.140 -22.054  0.00  0.00    +0.067 C 
ATOM     12  C   UNL     1      34.818 -18.980 -21.165  0.00  0.00    +0.053 C 
ATOM     13  C   UNL     1      35.455 -19.583 -20.077  0.00  0.00    +0.024 C 
ATOM     14  C   UNL     1      36.845 -17.903 -21.835  0.00  0.00    +0.006 C 
ATOM     15  C   UNL     1      36.826 -19.331 -19.871  0.00  0.00    +0.002 C 
ATOM     16  C   UNL     1      34.476 -20.361 -19.399  0.00  0.00    +0.084 C 
ATOM     17  C   UNL     1      37.507 -18.490 -20.759  0.00  0.00    +0.000 C 
ATOM     18  C   UNL     1      33.285 -20.219 -20.073  0.00  0.00    +0.072 C 
ATOM     19  H   UNL     1      32.815 -19.113 -21.788  0.00  0.00    +0.152 HD
BRANCH  16  21
ATOM     20  N   UNL     1      34.797 -21.809 -17.272  0.00  0.00    -0.191 NA
ATOM     21  C   UNL     1      34.652 -21.156 -18.230  0.00  0.00    +0.102 C 
ENDBRANCH  16  21
ENDBRANCH   8  11
BRANCH   2  22
ATOM     22  C   UNL     1      33.494 -12.156 -22.830  0.00  0.00    -0.072 C 
BRANCH  22  23
ATOM     23  C   UNL     1      32.502 -12.502 -21.719  0.00  0.00    +0.004 C 
BRANCH  23  25
ATOM     24  F   UNL     1      31.615  -8.125 -18.308  0.00  0.00    -0.204 F 
ATOM     25  C   UNL     1      32.263 -11.328 -20.804  0.00  0.00    -0.024 C 
ATOM     26  C   UNL     1      32.279 -10.044 -21.327  0.00  0.00    -0.002 C 
ATOM     27  C   UNL     1      32.034 -11.552 -19.455  0.00  0.00    -0.002 C 
ATOM     28  C   UNL     1      32.058  -8.957 -20.480  0.00  0.00    +0.029 C 
ATOM     29  C   UNL     1      31.813 -10.466 -18.608  0.00  0.00    +0.029 C 
ATOM     30  C   UNL     1      31.826  -9.168 -19.120  0.00  0.00    +0.140 C 
ENDBRANCH  23  25
ENDBRANCH  22  23
ENDBRANCH   2  22
TORSDOF 5
ENDMDL
MODEL 4
REMARK VINA RESULT:     -10.8      3.082      5.790
REMARK  Name = 6433122
REMARK  5 active torsions:
REMARK  status: ('A' for Active; 'I' for Inactive)
REMARK    1  A    between atoms: N_2  and  C_22
REMARK    2  A    between atoms: C_8  and  C_11
REMARK    3  A    between atoms: C_16  and  C_21
REMARK    4  A    between atoms: C_22  and  C_23
REMARK    5  A    between atoms: C_23  and  C_25
REMARK                            x       y       z     vdW  Elec       q    Type
REMARK                         _______ _______ _______ _____ _____    ______ ____
ROOT
ATOM      1  O   UNL     1      33.088 -22.068 -16.847  0.00  0.00    -0.270 OA
ATOM      2  N   UNL     1      35.282 -19.622 -20.611  0.00  0.00    +0.389 N 
ATOM      3  N   UNL     1      34.672 -21.351 -18.411  0.00  0.00    -0.280 N 
ATOM      4  C   UNL     1      33.901 -19.750 -20.123  0.00  0.00    -0.055 C 
ATOM      5  C   UNL     1      36.234 -19.777 -19.502  0.00  0.00    -0.055 C 
ATOM      6  C   UNL     1      33.687 -21.110 -19.462  0.00  0.00    +0.071 C 
ATOM      7  C   UNL     1      36.066 -21.134 -18.816  0.00  0.00    +0.071 C 
ATOM      8  C   UNL     1      34.252 -21.823 -17.165  0.00  0.00    +0.250 C 
ATOM      9  H   UNL     1      35.454 -20.363 -21.290  0.00  0.00    -0.080 HD
ENDROOT
BRANCH   8  11
ATOM     10  N   UNL     1      33.759 -23.187 -14.464  0.00  0.00    -0.311 N 
ATOM     11  C   UNL     1      35.270 -22.062 -16.134  0.00  0.00    +0.067 C 
ATOM     12  C   UNL     1      34.957 -22.693 -14.929  0.00  0.00    +0.053 C 
ATOM     13  C   UNL     1      35.912 -22.929 -13.938  0.00  0.00    +0.024 C 
ATOM     14  C   UNL     1      36.589 -21.660 -16.340  0.00  0.00    +0.006 C 
ATOM     15  C   UNL     1      37.240 -22.515 -14.162  0.00  0.00    +0.002 C 
ATOM     16  C   UNL     1      35.245 -23.583 -12.863  0.00  0.00    +0.084 C 
ATOM     17  C   UNL     1      37.563 -21.882 -15.369  0.00  0.00    +0.000 C 
ATOM     18  C   UNL     1      33.923 -23.727 -13.216  0.00  0.00    +0.072 C 
ATOM     19  H   UNL     1      32.908 -23.158 -14.957  0.00  0.00    +0.152 HD
BRANCH  16  21
ATOM     20  N   UNL     1      36.264 -24.385 -10.618  0.00  0.00    -0.191 NA
ATOM     21  C   UNL     1      35.805 -24.023 -11.630  0.00  0.00    +0.102 C 
ENDBRANCH  16  21
ENDBRANCH   8  11
BRANCH   2  22
ATOM     22  C   UNL     1      35.474 -18.334 -21.277  0.00  0.00    -0.072 C 
BRANCH  22  23
ATOM     23  C   UNL     1      35.595 -17.202 -20.256  0.00  0.00    +0.004 C 
BRANCH  23  25
ATOM     24  F   UNL     1      34.358 -12.220 -22.542  0.00  0.00    -0.204 F 
ATOM     25  C   UNL     1      35.263 -15.866 -20.869  0.00  0.00    -0.024 C 
ATOM     26  C   UNL     1      35.358 -15.705 -22.243  0.00  0.00    -0.002 C 
ATOM     27  C   UNL     1      34.868 -14.820 -20.049  0.00  0.00    -0.002 C 
ATOM     28  C   UNL     1      35.051 -14.468 -22.810  0.00  0.00    +0.029 C 
ATOM     29  C   UNL     1      34.560 -13.583 -20.616  0.00  0.00    +0.029 C 
ATOM     30  C   UNL     1      34.652 -13.407 -21.997  0.00  0.00    +0.140 C 
ENDBRANCH  23  25
ENDBRANCH  22  23
ENDBRANCH   2  22
TORSDOF 5
ENDMDL
MODEL 5
REMARK VINA RESULT:     -10.7      6.003     11.380
REMARK  Name = 6433122
REMARK  5 active torsions:
REMARK  status: ('A' for Active; 'I' for Inactive)
REMARK    1  A    between atoms: N_2  and  C_22
REMARK    2  A    between atoms: C_8  and  C_11
REMARK    3  A    between atoms: C_16  and  C_21
REMARK    4  A    between atoms: C_22  and  C_23
REMARK    5  A    between atoms: C_23  and  C_25
REMARK                            x       y       z     vdW  Elec       q    Type
REMARK                         _______ _______ _______ _____ _____    ______ ____
ROOT
ATOM      1  O   UNL     1      32.793 -22.900 -17.287  0.00  0.00    -0.270 OA
ATOM      2  N   UNL     1      34.909 -23.306 -12.779  0.00  0.00    +0.389 N 
ATOM      3  N   UNL     1      34.024 -22.425 -15.357  0.00  0.00    -0.280 N 
ATOM      4  C   UNL     1      33.890 -24.065 -13.518  0.00  0.00    -0.055 C 
ATOM      5  C   UNL     1      35.853 -22.672 -13.712  0.00  0.00    -0.055 C 
ATOM      6  C   UNL     1      33.120 -23.150 -14.468  0.00  0.00    +0.071 C 
ATOM      7  C   UNL     1      35.127 -21.734 -14.678  0.00  0.00    +0.071 C 
ATOM      8  C   UNL     1      33.755 -22.375 -16.727  0.00  0.00    +0.250 C 
ATOM      9  H   UNL     1      34.442 -22.573 -12.246  0.00  0.00    -0.080 HD
ENDROOT
BRANCH   8  11
ATOM     10  N   UNL     1      32.950 -20.677 -19.149  0.00  0.00    -0.311 N 
ATOM     11  C   UNL     1      34.681 -21.630 -17.590  0.00  0.00    +0.067 C 
ATOM     12  C   UNL     1      34.226 -20.879 -18.675  0.00  0.00    +0.053 C 
ATOM     13  C   UNL     1      35.092 -20.164 -19.505  0.00  0.00    +0.024 C 
ATOM     14  C   UNL     1      36.052 -21.656 -17.338  0.00  0.00    +0.006 C 
ATOM     15  C   UNL     1      36.475 -20.202 -19.238  0.00  0.00    +0.002 C 
ATOM     16  C   UNL     1      34.290 -19.525 -20.492  0.00  0.00    +0.084 C 
ATOM     17  C   UNL     1      36.939 -20.952 -18.151  0.00  0.00    +0.000 C 
ATOM     18  C   UNL     1      32.978 -19.860 -20.247  0.00  0.00    +0.072 C 
ATOM     19  H   UNL     1      32.134 -21.062 -18.755  0.00  0.00    +0.152 HD
BRANCH  16  21
ATOM     20  N   UNL     1      35.080 -17.998 -22.433  0.00  0.00    -0.191 NA
ATOM     21  C   UNL     1      34.724 -18.686 -21.559  0.00  0.00    +0.102 C 
ENDBRANCH  16  21
ENDBRANCH   8  11
BRANCH   2  22
ATOM     22  C   UNL     1      35.620 -24.175 -11.843  0.00  0.00    -0.072 C 
BRANCH  22  23
ATOM     23  C   UNL     1      36.987 -23.592 -11.482  0.00  0.00    +0.004 C 
BRANCH  23  25
ATOM     24  F   UNL     1      41.121 -26.094 -14.351  0.00  0.00    -0.204 F 
ATOM     25  C   UNL     1      38.096 -24.263 -12.252  0.00  0.00    -0.024 C 
ATOM     26  C   UNL     1      37.870 -25.503 -12.829  0.00  0.00    -0.002 C 
ATOM     27  C   UNL     1      39.323 -23.628 -12.370  0.00  0.00    -0.002 C 
ATOM     28  C   UNL     1      38.896 -26.124 -13.542  0.00  0.00    +0.029 C 
ATOM     29  C   UNL     1      40.349 -24.249 -13.082  0.00  0.00    +0.029 C 
ATOM     30  C   UNL     1      40.136 -25.497 -13.669  0.00  0.00    +0.140 C 
ENDBRANCH  23  25
ENDBRANCH  22  23
ENDBRANCH   2  22
TORSDOF 5
ENDMDL
MODEL 6
REMARK VINA RESULT:     -10.7      4.392     10.100
REMARK  Name = 6433122
REMARK  5 active torsions:
REMARK  status: ('A' for Active; 'I' for Inactive)
REMARK    1  A    between atoms: N_2  and  C_22
REMARK    2  A    between atoms: C_8  and  C_11
REMARK    3  A    between atoms: C_16  and  C_21
REMARK    4  A    between atoms: C_22  and  C_23
REMARK    5  A    between atoms: C_23  and  C_25
REMARK                            x       y       z     vdW  Elec       q    Type
REMARK                         _______ _______ _______ _____ _____    ______ ____
ROOT
ATOM      1  O   UNL     1      33.717 -11.284 -25.700  0.00  0.00    -0.270 OA
ATOM      2  N   UNL     1      34.595 -14.756 -22.216  0.00  0.00    +0.389 N 
ATOM      3  N   UNL     1      33.896 -12.369 -23.637  0.00  0.00    -0.280 N 
ATOM      4  C   UNL     1      34.515 -14.758 -23.684  0.00  0.00    -0.055 C 
ATOM      5  C   UNL     1      35.042 -13.444 -21.728  0.00  0.00    -0.055 C 
ATOM      6  C   UNL     1      33.546 -13.683 -24.172  0.00  0.00    +0.071 C 
ATOM      7  C   UNL     1      34.093 -12.333 -22.183  0.00  0.00    +0.071 C 
ATOM      8  C   UNL     1      33.947 -11.265 -24.491  0.00  0.00    +0.250 C 
ATOM      9  H   UNL     1      33.664 -14.939 -21.843  0.00  0.00    -0.080 HD
ENDROOT
BRANCH   8  11
ATOM     10  N   UNL     1      32.194  -9.649 -22.565  0.00  0.00    -0.311 N 
ATOM     11  C   UNL     1      34.294  -9.959 -23.917  0.00  0.00    +0.067 C 
ATOM     12  C   UNL     1      33.434  -9.291 -23.045  0.00  0.00    +0.053 C 
ATOM     13  C   UNL     1      33.748  -8.049 -22.488  0.00  0.00    +0.024 C 
ATOM     14  C   UNL     1      35.508  -9.351 -24.235  0.00  0.00    +0.006 C 
ATOM     15  C   UNL     1      34.978  -7.449 -22.821  0.00  0.00    +0.002 C 
ATOM     16  C   UNL     1      32.654  -7.676 -21.658  0.00  0.00    +0.084 C 
ATOM     17  C   UNL     1      35.847  -8.112 -23.694  0.00  0.00    +0.000 C 
ATOM     18  C   UNL     1      31.714  -8.679 -21.726  0.00  0.00    +0.072 C 
ATOM     19  H   UNL     1      31.721 -10.482 -22.791  0.00  0.00    +0.152 HD
BRANCH  16  21
ATOM     20  N   UNL     1      32.399  -5.516 -20.246  0.00  0.00    -0.191 NA
ATOM     21  C   UNL     1      32.514  -6.490 -20.882  0.00  0.00    +0.102 C 
ENDBRANCH  16  21
ENDBRANCH   8  11
BRANCH   2  22
ATOM     22  C   UNL     1      35.494 -15.811 -21.749  0.00  0.00    -0.072 C 
BRANCH  22  23
ATOM     23  C   UNL     1      35.031 -17.183 -22.242  0.00  0.00    +0.004 C 
BRANCH  23  25
ATOM     24  F   UNL     1      36.050 -21.194 -18.440  0.00  0.00    -0.204 F 
ATOM     25  C   UNL     1      35.304 -18.259 -21.222  0.00  0.00    -0.024 C 
ATOM     26  C   UNL     1      36.589 -18.415 -20.725  0.00  0.00    -0.002 C 
ATOM     27  C   UNL     1      34.266 -19.075 -20.799  0.00  0.00    -0.002 C 
ATOM     28  C   UNL     1      36.841 -19.410 -19.781  0.00  0.00    +0.029 C 
ATOM     29  C   UNL     1      34.518 -20.070 -19.855  0.00  0.00    +0.029 C 
ATOM     30  C   UNL     1      35.806 -20.238 -19.345  0.00  0.00    +0.140 C 
ENDBRANCH  23  25
ENDBRANCH  22  23
ENDBRANCH   2  22
TORSDOF 5
ENDMDL
MODEL 7
REMARK VINA RESULT:     -10.7      3.904      6.427
REMARK  Name = 6433122
REMARK  5 active torsions:
REMARK  status: ('A' for Active; 'I' for Inactive)
REMARK    1  A    between atoms: N_2  and  C_22
REMARK    2  A    between atoms: C_8  and  C_11
REMARK    3  A    between atoms: C_16  and  C_21
REMARK    4  A    between atoms: C_22  and  C_23
REMARK    5  A    between atoms: C_23  and  C_25
REMARK                            x       y       z     vdW  Elec       q    Type
REMARK                         _______ _______ _______ _____ _____    ______ ____
ROOT
ATOM      1  O   UNL     1      33.044 -22.291 -16.673  0.00  0.00    -0.270 OA
ATOM      2  N   UNL     1      35.151 -19.696 -20.386  0.00  0.00    +0.389 N 
ATOM      3  N   UNL     1      34.605 -21.484 -18.216  0.00  0.00    -0.280 N 
ATOM      4  C   UNL     1      33.775 -19.890 -19.908  0.00  0.00    -0.055 C 
ATOM      5  C   UNL     1      36.104 -19.827 -19.274  0.00  0.00    -0.055 C 
ATOM      6  C   UNL     1      33.616 -21.268 -19.270  0.00  0.00    +0.071 C 
ATOM      7  C   UNL     1      35.990 -21.201 -18.609  0.00  0.00    +0.071 C 
ATOM      8  C   UNL     1      34.198 -21.993 -16.980  0.00  0.00    +0.250 C 
ATOM      9  H   UNL     1      35.359 -20.418 -21.075  0.00  0.00    -0.080 HD
ENDROOT
BRANCH   8  11
ATOM     10  N   UNL     1      33.709 -23.256 -14.230  0.00  0.00    -0.311 N 
ATOM     11  C   UNL     1      35.220 -22.204 -15.947  0.00  0.00    +0.067 C 
ATOM     12  C   UNL     1      34.909 -22.789 -14.719  0.00  0.00    +0.053 C 
ATOM     13  C   UNL     1      35.868 -22.999 -13.725  0.00  0.00    +0.024 C 
ATOM     14  C   UNL     1      36.541 -21.821 -16.175  0.00  0.00    +0.006 C 
ATOM     15  C   UNL     1      37.197 -22.605 -13.972  0.00  0.00    +0.002 C 
ATOM     16  C   UNL     1      35.201 -23.609 -12.625  0.00  0.00    +0.084 C 
ATOM     17  C   UNL     1      37.519 -22.018 -15.201  0.00  0.00    +0.000 C 
ATOM     18  C   UNL     1      33.876 -23.754 -12.966  0.00  0.00    +0.072 C 
ATOM     19  H   UNL     1      32.856 -23.237 -14.720  0.00  0.00    +0.152 HD
BRANCH  16  21
ATOM     20  N   UNL     1      36.225 -24.340 -10.358  0.00  0.00    -0.191 NA
ATOM     21  C   UNL     1      35.764 -24.011 -11.380  0.00  0.00    +0.102 C 
ENDBRANCH  16  21
ENDBRANCH   8  11
BRANCH   2  22
ATOM     22  C   UNL     1      35.292 -18.391 -21.031  0.00  0.00    -0.072 C 
BRANCH  22  23
ATOM     23  C   UNL     1      35.291 -18.529 -22.554  0.00  0.00    +0.004 C 
BRANCH  23  25
ATOM     24  F   UNL     1      33.912 -13.695 -25.065  0.00  0.00    -0.204 F 
ATOM     25  C   UNL     1      34.921 -17.232 -23.227  0.00  0.00    -0.024 C 
ATOM     26  C   UNL     1      34.223 -17.263 -24.425  0.00  0.00    -0.002 C 
ATOM     27  C   UNL     1      35.285 -16.031 -22.638  0.00  0.00    -0.002 C 
ATOM     28  C   UNL     1      33.881 -16.062 -25.048  0.00  0.00    +0.029 C 
ATOM     29  C   UNL     1      34.942 -14.832 -23.260  0.00  0.00    +0.029 C 
ATOM     30  C   UNL     1      34.240 -14.846 -24.466  0.00  0.00    +0.140 C 
ENDBRANCH  23  25
ENDBRANCH  22  23
ENDBRANCH   2  22
TORSDOF 5
ENDMDL
MODEL 8
REMARK VINA RESULT:     -10.6      3.985      9.170
REMARK  Name = 6433122
REMARK  5 active torsions:
REMARK  status: ('A' for Active; 'I' for Inactive)
REMARK    1  A    between atoms: N_2  and  C_22
REMARK    2  A    between atoms: C_8  and  C_11
REMARK    3  A    between atoms: C_16  and  C_21
REMARK    4  A    between atoms: C_22  and  C_23
REMARK    5  A    between atoms: C_23  and  C_25
REMARK                            x       y       z     vdW  Elec       q    Type
REMARK                         _______ _______ _______ _____ _____    ______ ____
ROOT
ATOM      1  O   UNL     1      37.442 -18.048 -20.597  0.00  0.00    -0.270 OA
ATOM      2  N   UNL     1      33.814 -21.172 -19.169  0.00  0.00    +0.389 N 
ATOM      3  N   UNL     1      35.371 -19.120 -20.421  0.00  0.00    -0.280 N 
ATOM      4  C   UNL     1      35.268 -21.110 -18.964  0.00  0.00    -0.055 C 
ATOM      5  C   UNL     1      33.262 -19.820 -19.339  0.00  0.00    -0.055 C 
ATOM      6  C   UNL     1      35.950 -20.434 -20.152  0.00  0.00    +0.071 C 
ATOM      7  C   UNL     1      33.908 -19.106 -20.528  0.00  0.00    +0.071 C 
ATOM      8  C   UNL     1      36.212 -18.023 -20.623  0.00  0.00    +0.250 C 
ATOM      9  H   UNL     1      33.630 -21.705 -20.018  0.00  0.00    -0.080 HD
ENDROOT
BRANCH   8  11
ATOM     10  N   UNL     1      35.449 -16.970 -23.399  0.00  0.00    -0.311 N 
ATOM     11  C   UNL     1      35.595 -16.718 -20.898  0.00  0.00    +0.067 C 
ATOM     12  C   UNL     1      35.279 -16.319 -22.197  0.00  0.00    +0.053 C 
ATOM     13  C   UNL     1      34.692 -15.083 -22.479  0.00  0.00    +0.024 C 
ATOM     14  C   UNL     1      35.307 -15.841 -19.854  0.00  0.00    +0.006 C 
ATOM     15  C   UNL     1      34.408 -14.208 -21.411  0.00  0.00    +0.002 C 
ATOM     16  C   UNL     1      34.514 -15.017 -23.889  0.00  0.00    +0.084 C 
ATOM     17  C   UNL     1      34.721 -14.602 -20.105  0.00  0.00    +0.000 C 
ATOM     18  C   UNL     1      34.990 -16.191 -24.427  0.00  0.00    +0.072 C 
ATOM     19  H   UNL     1      35.842 -17.866 -23.504  0.00  0.00    +0.152 HD
BRANCH  16  21
ATOM     20  N   UNL     1      33.494 -13.074 -25.271  0.00  0.00    -0.191 NA
ATOM     21  C   UNL     1      33.954 -13.950 -24.648  0.00  0.00    +0.102 C 
ENDBRANCH  16  21
ENDBRANCH   8  11
BRANCH   2  22
ATOM     22  C   UNL     1      33.166 -21.853 -18.048  0.00  0.00    -0.072 C 
BRANCH  22  23
ATOM     23  C   UNL     1      34.182 -22.209 -16.962  0.00  0.00    +0.004 C 
BRANCH  23  25
ATOM     24  F   UNL     1      31.688 -24.479 -12.467  0.00  0.00    -0.204 F 
ATOM     25  C   UNL     1      33.513 -22.818 -15.757  0.00  0.00    -0.024 C 
ATOM     26  C   UNL     1      32.133 -22.955 -15.740  0.00  0.00    -0.002 C 
ATOM     27  C   UNL     1      34.289 -23.231 -14.684  0.00  0.00    -0.002 C 
ATOM     28  C   UNL     1      31.514 -23.519 -14.624  0.00  0.00    +0.029 C 
ATOM     29  C   UNL     1      33.670 -23.795 -13.569  0.00  0.00    +0.029 C 
ATOM     30  C   UNL     1      32.283 -23.939 -13.538  0.00  0.00    +0.140 C 
ENDBRANCH  23  25
ENDBRANCH  22  23
ENDBRANCH   2  22
TORSDOF 5
ENDMDL
MODEL 9
REMARK VINA RESULT:     -10.3      2.145      2.993
REMARK  Name = 6433122
REMARK  5 active torsions:
REMARK  status: ('A' for Active; 'I' for Inactive)
REMARK    1  A    between atoms: N_2  and  C_22
REMARK    2  A    between atoms: C_8  and  C_11
REMARK    3  A    between atoms: C_16  and  C_21
REMARK    4  A    between atoms: C_22  and  C_23
REMARK    5  A    between atoms: C_23  and  C_25
REMARK                            x       y       z     vdW  Elec       q    Type
REMARK                         _______ _______ _______ _____ _____    ______ ____
ROOT
ATOM      1  O   UNL     1      35.424 -18.288 -23.036  0.00  0.00    -0.270 OA
ATOM      2  N   UNL     1      34.411 -13.860 -20.954  0.00  0.00    +0.389 N 
ATOM      3  N   UNL     1      35.436 -16.462 -21.576  0.00  0.00    -0.280 N 
ATOM      4  C   UNL     1      34.122 -14.485 -22.253  0.00  0.00    -0.055 C 
ATOM      5  C   UNL     1      34.523 -14.884 -19.905  0.00  0.00    -0.055 C 
ATOM      6  C   UNL     1      35.223 -15.475 -22.631  0.00  0.00    +0.071 C 
ATOM      7  C   UNL     1      35.624 -15.894 -20.235  0.00  0.00    +0.071 C 
ATOM      8  C   UNL     1      35.518 -17.817 -21.903  0.00  0.00    +0.250 C 
ATOM      9  H   UNL     1      35.303 -13.371 -21.023  0.00  0.00    -0.080 HD
ENDROOT
BRANCH   8  11
ATOM     10  N   UNL     1      33.327 -19.397 -20.452  0.00  0.00    -0.311 N 
ATOM     11  C   UNL     1      35.741 -18.781 -20.817  0.00  0.00    +0.067 C 
ATOM     12  C   UNL     1      34.682 -19.458 -20.211  0.00  0.00    +0.053 C 
ATOM     13  C   UNL     1      34.874 -20.378 -19.178  0.00  0.00    +0.024 C 
ATOM     14  C   UNL     1      37.032 -19.044 -20.364  0.00  0.00    +0.006 C 
ATOM     15  C   UNL     1      36.186 -20.631 -18.732  0.00  0.00    +0.002 C 
ATOM     16  C   UNL     1      33.589 -20.867 -18.810  0.00  0.00    +0.084 C 
ATOM     17  C   UNL     1      37.255 -19.957 -19.334  0.00  0.00    +0.000 C 
ATOM     18  C   UNL     1      32.658 -20.244 -19.610  0.00  0.00    +0.072 C 
ATOM     19  H   UNL     1      32.901 -18.827 -21.132  0.00  0.00    +0.152 HD
BRANCH  16  21
ATOM     20  N   UNL     1      33.020 -22.608 -16.974  0.00  0.00    -0.191 NA
ATOM     21  C   UNL     1      33.277 -21.823 -17.801  0.00  0.00    +0.102 C 
ENDBRANCH  16  21
ENDBRANCH   8  11
BRANCH   2  22
ATOM     22  C   UNL     1      33.377 -12.885 -20.611  0.00  0.00    -0.072 C 
BRANCH  22  23
ATOM     23  C   UNL     1      32.615 -12.433 -21.858  0.00  0.00    +0.004 C 
BRANCH  23  25
ATOM     24  F   UNL     1      33.887  -7.139 -23.249  0.00  0.00    -0.204 F 
ATOM     25  C   UNL     1      32.956 -11.013 -22.231  0.00  0.00    -0.024 C 
ATOM     26  C   UNL     1      32.274  -9.968 -21.627  0.00  0.00    -0.002 C 
ATOM     27  C   UNL     1      33.947 -10.776 -23.171  0.00  0.00    -0.002 C 
ATOM     28  C   UNL     1      32.590  -8.654 -21.972  0.00  0.00    +0.029 C 
ATOM     29  C   UNL     1      34.264  -9.462 -23.516  0.00  0.00    +0.029 C 
ATOM     30  C   UNL     1      33.585  -8.400 -22.917  0.00  0.00    +0.140 C 
ENDBRANCH  23  25
ENDBRANCH  22  23
ENDBRANCH   2  22
TORSDOF 5
ENDMDL
