MODEL 1
REMARK VINA RESULT:     -12.1      0.000      0.000
REMARK  Name = 20055414
REMARK  5 active torsions:
REMARK  status: ('A' for Active; 'I' for Inactive)
REMARK    1  A    between atoms: N_1  and  C_18
REMARK    2  A    between atoms: N_2  and  C_8
REMARK    3  A    between atoms: C_11  and  C_17
REMARK    4  A    between atoms: C_18  and  C_19
REMARK    5  A    between atoms: C_19  and  C_30
REMARK                            x       y       z     vdW  Elec       q    Type
REMARK                         _______ _______ _______ _____ _____    ______ ____
ROOT
ATOM      1  N   UNL     1      34.440 -22.363 -17.039  0.00  0.00    +0.390 N 
ATOM      2  N   UNL     1      35.282 -20.449 -18.986  0.00  0.00    -0.312 N 
ATOM      3  C   UNL     1      35.607 -21.509 -16.786  0.00  0.00    -0.055 C 
ATOM      4  C   UNL     1      33.449 -21.631 -17.837  0.00  0.00    -0.055 C 
ATOM      5  C   UNL     1      36.266 -21.074 -18.097  0.00  0.00    +0.068 C 
ATOM      6  C   UNL     1      34.036 -21.202 -19.183  0.00  0.00    +0.068 C 
ATOM      7  H   UNL     1      34.742 -23.185 -17.562  0.00  0.00    -0.080 HD
ENDROOT
BRANCH   2   8
ATOM      8  C   UNL     1      35.713 -19.610 -20.019  0.00  0.00    +0.048 C 
ATOM      9  C   UNL     1      34.905 -19.408 -21.138  0.00  0.00    +0.018 C 
ATOM     10  C   UNL     1      36.952 -18.974 -19.930  0.00  0.00    +0.015 C 
ATOM     11  C   UNL     1      35.336 -18.572 -22.167  0.00  0.00    +0.073 C 
ATOM     12  C   UNL     1      37.382 -18.137 -20.959  0.00  0.00    +0.001 C 
ATOM     13  C   UNL     1      36.575 -17.936 -22.078  0.00  0.00    +0.004 C 
BRANCH  11  17
ATOM     14  F   UNL     1      34.424 -17.055 -23.777  0.00  0.00    -0.166 F 
ATOM     15  F   UNL     1      34.875 -19.063 -24.462  0.00  0.00    -0.166 F 
ATOM     16  F   UNL     1      33.176 -18.721 -23.149  0.00  0.00    -0.166 F 
ATOM     17  C   UNL     1      34.473 -18.356 -23.364  0.00  0.00    +0.419 C 
ENDBRANCH  11  17
ENDBRANCH   2   8
BRANCH   1  18
ATOM     18  C   UNL     1      33.853 -22.814 -15.778  0.00  0.00    -0.069 C 
BRANCH  18  19
ATOM     19  C   UNL     1      34.879 -22.829 -14.624  0.00  0.00    +0.043 C 
BRANCH  19  30
ATOM     20  N   UNL     1      36.692 -24.272 -13.745  0.00  0.00    -0.302 N 
ATOM     21  N   UNL     1      36.511 -26.073 -14.951  0.00  0.00    -0.134 NA
ATOM     22  N   UNL     1      35.537 -25.147 -15.337  0.00  0.00    -0.134 NA
ATOM     23  C   UNL     1      38.543 -24.488 -12.323  0.00  0.00    +0.030 C 
ATOM     24  C   UNL     1      38.334 -25.830 -13.115  0.00  0.00    +0.061 C 
ATOM     25  C   UNL     1      39.910 -23.957 -12.776  0.00  0.00    +0.002 C 
ATOM     26  C   UNL     1      39.631 -26.056 -13.885  0.00  0.00    +0.008 C 
ATOM     27  C   UNL     1      37.361 -23.553 -12.688  0.00  0.00    +0.109 C 
ATOM     28  C   UNL     1      40.202 -24.660 -14.094  0.00  0.00    +0.001 C 
ATOM     29  C   UNL     1      37.191 -25.506 -13.988  0.00  0.00    +0.143 A 
ATOM     30  C   UNL     1      35.674 -24.066 -14.588  0.00  0.00    +0.141 A 
ENDBRANCH  19  30
ENDBRANCH  18  19
ENDBRANCH   1  18
TORSDOF 5
ENDMDL
MODEL 2
REMARK VINA RESULT:     -11.9      1.404      2.340
REMARK  Name = 20055414
REMARK  5 active torsions:
REMARK  status: ('A' for Active; 'I' for Inactive)
REMARK    1  A    between atoms: N_1  and  C_18
REMARK    2  A    between atoms: N_2  and  C_8
REMARK    3  A    between atoms: C_11  and  C_17
REMARK    4  A    between atoms: C_18  and  C_19
REMARK    5  A    between atoms: C_19  and  C_30
REMARK                            x       y       z     vdW  Elec       q    Type
REMARK                         _______ _______ _______ _____ _____    ______ ____
ROOT
ATOM      1  N   UNL     1      34.400 -21.526 -17.768  0.00  0.00    +0.390 N 
ATOM      2  N   UNL     1      34.753 -19.707 -19.944  0.00  0.00    -0.312 N 
ATOM      3  C   UNL     1      33.306 -21.278 -18.716  0.00  0.00    -0.055 C 
ATOM      4  C   UNL     1      35.691 -21.440 -18.462  0.00  0.00    -0.055 C 
ATOM      5  C   UNL     1      33.427 -19.889 -19.346  0.00  0.00    +0.068 C 
ATOM      6  C   UNL     1      35.891 -20.056 -19.082  0.00  0.00    +0.068 C 
ATOM      7  H   UNL     1      34.370 -20.813 -17.040  0.00  0.00    -0.080 HD
ENDROOT
BRANCH   2   8
ATOM      8  C   UNL     1      34.946 -18.726 -20.922  0.00  0.00    +0.048 C 
ATOM      9  C   UNL     1      34.488 -18.937 -22.223  0.00  0.00    +0.018 C 
ATOM     10  C   UNL     1      35.597 -17.535 -20.597  0.00  0.00    +0.015 C 
ATOM     11  C   UNL     1      34.680 -17.959 -23.197  0.00  0.00    +0.073 C 
ATOM     12  C   UNL     1      35.789 -16.557 -21.572  0.00  0.00    +0.001 C 
ATOM     13  C   UNL     1      35.331 -16.768 -22.872  0.00  0.00    +0.004 C 
BRANCH  11  17
ATOM     14  F   UNL     1      34.648 -19.344 -25.147  0.00  0.00    -0.166 F 
ATOM     15  F   UNL     1      32.830 -18.255 -24.684  0.00  0.00    -0.166 F 
ATOM     16  F   UNL     1      34.567 -17.191 -25.444  0.00  0.00    -0.166 F 
ATOM     17  C   UNL     1      34.191 -18.185 -24.588  0.00  0.00    +0.419 C 
ENDBRANCH  11  17
ENDBRANCH   2   8
BRANCH   1  18
ATOM     18  C   UNL     1      34.243 -22.834 -17.134  0.00  0.00    -0.069 C 
BRANCH  18  19
ATOM     19  C   UNL     1      34.434 -22.770 -15.603  0.00  0.00    +0.043 C 
BRANCH  19  30
ATOM     20  N   UNL     1      36.539 -23.809 -14.807  0.00  0.00    -0.302 N 
ATOM     21  N   UNL     1      37.919 -22.128 -14.745  0.00  0.00    -0.134 NA
ATOM     22  N   UNL     1      36.664 -21.692 -15.183  0.00  0.00    -0.134 NA
ATOM     23  C   UNL     1      37.624 -25.718 -13.989  0.00  0.00    +0.030 C 
ATOM     24  C   UNL     1      38.647 -24.527 -14.058  0.00  0.00    +0.061 C 
ATOM     25  C   UNL     1      37.511 -26.072 -12.500  0.00  0.00    +0.002 C 
ATOM     26  C   UNL     1      39.151 -24.338 -12.631  0.00  0.00    +0.008 C 
ATOM     27  C   UNL     1      36.295 -25.217 -14.612  0.00  0.00    +0.109 C 
ATOM     28  C   UNL     1      38.015 -24.847 -11.752  0.00  0.00    +0.001 C 
ATOM     29  C   UNL     1      37.802 -23.412 -14.525  0.00  0.00    +0.143 A 
ATOM     30  C   UNL     1      35.850 -22.734 -15.209  0.00  0.00    +0.141 A 
ENDBRANCH  19  30
ENDBRANCH  18  19
ENDBRANCH   1  18
TORSDOF 5
ENDMDL
MODEL 3
REMARK VINA RESULT:     -11.8      0.887      1.095
REMARK  Name = 20055414
REMARK  5 active torsions:
REMARK  status: ('A' for Active; 'I' for Inactive)
REMARK    1  A    between atoms: N_1  and  C_18
REMARK    2  A    between atoms: N_2  and  C_8
REMARK    3  A    between atoms: C_11  and  C_17
REMARK    4  A    between atoms: C_18  and  C_19
REMARK    5  A    between atoms: C_19  and  C_30
REMARK                            x       y       z     vdW  Elec       q    Type
REMARK                         _______ _______ _______ _____ _____    ______ ____
ROOT
ATOM      1  N   UNL     1      34.456 -21.994 -17.724  0.00  0.00    +0.390 N 
ATOM      2  N   UNL     1      34.903 -19.862 -19.573  0.00  0.00    -0.312 N 
ATOM      3  C   UNL     1      35.700 -21.216 -17.676  0.00  0.00    -0.055 C 
ATOM      4  C   UNL     1      33.345 -21.132 -18.146  0.00  0.00    -0.055 C 
ATOM      5  C   UNL     1      36.037 -20.629 -19.048  0.00  0.00    +0.068 C 
ATOM      6  C   UNL     1      33.603 -20.545 -19.535  0.00  0.00    +0.068 C 
ATOM      7  H   UNL     1      34.566 -22.746 -18.403  0.00  0.00    -0.080 HD
ENDROOT
BRANCH   2   8
ATOM      8  C   UNL     1      35.114 -18.905 -20.571  0.00  0.00    +0.048 C 
ATOM      9  C   UNL     1      34.631 -19.123 -21.862  0.00  0.00    +0.018 C 
ATOM     10  C   UNL     1      35.809 -17.731 -20.276  0.00  0.00    +0.015 C 
ATOM     11  C   UNL     1      34.842 -18.169 -22.855  0.00  0.00    +0.073 C 
ATOM     12  C   UNL     1      36.021 -16.777 -21.271  0.00  0.00    +0.001 C 
ATOM     13  C   UNL     1      35.537 -16.995 -22.561  0.00  0.00    +0.004 C 
BRANCH  11  17
ATOM     14  F   UNL     1      32.966 -18.521 -24.298  0.00  0.00    -0.166 F 
ATOM     15  F   UNL     1      34.636 -17.400 -25.111  0.00  0.00    -0.166 F 
ATOM     16  F   UNL     1      34.820 -19.544 -24.795  0.00  0.00    -0.166 F 
ATOM     17  C   UNL     1      34.326 -18.402 -24.235  0.00  0.00    +0.419 C 
ENDBRANCH  11  17
ENDBRANCH   2   8
BRANCH   1  18
ATOM     18  C   UNL     1      34.175 -22.592 -16.420  0.00  0.00    -0.069 C 
BRANCH  18  19
ATOM     19  C   UNL     1      35.367 -22.466 -15.447  0.00  0.00    +0.043 C 
BRANCH  19  30
ATOM     20  N   UNL     1      36.857 -23.927 -14.109  0.00  0.00    -0.302 N 
ATOM     21  N   UNL     1      36.334 -25.922 -14.802  0.00  0.00    -0.134 NA
ATOM     22  N   UNL     1      35.564 -24.971 -15.478  0.00  0.00    -0.134 NA
ATOM     23  C   UNL     1      38.620 -24.091 -12.573  0.00  0.00    +0.030 C 
ATOM     24  C   UNL     1      38.158 -25.534 -12.991  0.00  0.00    +0.061 C 
ATOM     25  C   UNL     1      40.068 -23.968 -13.068  0.00  0.00    +0.002 C 
ATOM     26  C   UNL     1      39.390 -26.199 -13.594  0.00  0.00    +0.008 C 
ATOM     27  C   UNL     1      37.647 -23.086 -13.244  0.00  0.00    +0.109 C 
ATOM     28  C   UNL     1      40.225 -25.044 -14.133  0.00  0.00    +0.001 C 
ATOM     29  C   UNL     1      37.106 -25.252 -13.986  0.00  0.00    +0.143 A 
ATOM     30  C   UNL     1      35.905 -23.772 -15.036  0.00  0.00    +0.141 A 
ENDBRANCH  19  30
ENDBRANCH  18  19
ENDBRANCH   1  18
TORSDOF 5
ENDMDL
MODEL 4
REMARK VINA RESULT:     -11.4      2.456      3.408
REMARK  Name = 20055414
REMARK  5 active torsions:
REMARK  status: ('A' for Active; 'I' for Inactive)
REMARK    1  A    between atoms: N_1  and  C_18
REMARK    2  A    between atoms: N_2  and  C_8
REMARK    3  A    between atoms: C_11  and  C_17
REMARK    4  A    between atoms: C_18  and  C_19
REMARK    5  A    between atoms: C_19  and  C_30
REMARK                            x       y       z     vdW  Elec       q    Type
REMARK                         _______ _______ _______ _____ _____    ______ ____
ROOT
ATOM      1  N   UNL     1      35.785 -21.135 -18.554  0.00  0.00    +0.390 N 
ATOM      2  N   UNL     1      35.503 -18.814 -20.197  0.00  0.00    -0.312 N 
ATOM      3  C   UNL     1      36.833 -20.106 -18.575  0.00  0.00    -0.055 C 
ATOM      4  C   UNL     1      34.469 -20.510 -18.738  0.00  0.00    -0.055 C 
ATOM      5  C   UNL     1      36.836 -19.350 -19.905  0.00  0.00    +0.068 C 
ATOM      6  C   UNL     1      34.393 -19.769 -20.074  0.00  0.00    +0.068 C 
ATOM      7  H   UNL     1      35.950 -21.786 -19.321  0.00  0.00    -0.080 HD
ENDROOT
BRANCH   2   8
ATOM      8  C   UNL     1      35.362 -17.756 -21.101  0.00  0.00    +0.048 C 
ATOM      9  C   UNL     1      35.129 -16.462 -20.632  0.00  0.00    +0.018 C 
ATOM     10  C   UNL     1      35.454 -17.994 -22.473  0.00  0.00    +0.015 C 
ATOM     11  C   UNL     1      34.989 -15.409 -21.534  0.00  0.00    +0.073 C 
ATOM     12  C   UNL     1      35.314 -16.939 -23.375  0.00  0.00    +0.001 C 
ATOM     13  C   UNL     1      35.081 -15.647 -22.906  0.00  0.00    +0.004 C 
BRANCH  11  17
ATOM     14  F   UNL     1      35.438 -13.721 -19.899  0.00  0.00    -0.166 F 
ATOM     15  F   UNL     1      35.073 -13.051 -21.931  0.00  0.00    -0.166 F 
ATOM     16  F   UNL     1      33.428 -13.808 -20.726  0.00  0.00    -0.166 F 
ATOM     17  C   UNL     1      34.740 -14.027 -21.033  0.00  0.00    +0.419 C 
ENDBRANCH  11  17
ENDBRANCH   2   8
BRANCH   1  18
ATOM     18  C   UNL     1      35.828 -21.885 -17.300  0.00  0.00    -0.069 C 
BRANCH  18  19
ATOM     19  C   UNL     1      36.718 -21.203 -16.238  0.00  0.00    +0.043 C 
BRANCH  19  30
ATOM     20  N   UNL     1      36.879 -22.861 -14.403  0.00  0.00    -0.302 N 
ATOM     21  N   UNL     1      38.964 -23.474 -14.480  0.00  0.00    -0.134 NA
ATOM     22  N   UNL     1      38.715 -22.523 -15.474  0.00  0.00    -0.134 NA
ATOM     23  C   UNL     1      35.838 -23.923 -12.591  0.00  0.00    +0.030 C 
ATOM     24  C   UNL     1      37.313 -24.449 -12.725  0.00  0.00    +0.061 C 
ATOM     25  C   UNL     1      35.781 -23.215 -11.231  0.00  0.00    +0.002 C 
ATOM     26  C   UNL     1      37.987 -24.120 -11.398  0.00  0.00    +0.008 C 
ATOM     27  C   UNL     1      35.577 -22.979 -13.794  0.00  0.00    +0.109 C 
ATOM     28  C   UNL     1      37.228 -22.909 -10.871  0.00  0.00    +0.001 C 
ATOM     29  C   UNL     1      37.831 -23.649 -13.852  0.00  0.00    +0.143 A 
ATOM     30  C   UNL     1      37.443 -22.171 -15.400  0.00  0.00    +0.141 A 
ENDBRANCH  19  30
ENDBRANCH  18  19
ENDBRANCH   1  18
TORSDOF 5
ENDMDL
MODEL 5
REMARK VINA RESULT:     -11.2      2.339      3.161
REMARK  Name = 20055414
REMARK  5 active torsions:
REMARK  status: ('A' for Active; 'I' for Inactive)
REMARK    1  A    between atoms: N_1  and  C_18
REMARK    2  A    between atoms: N_2  and  C_8
REMARK    3  A    between atoms: C_11  and  C_17
REMARK    4  A    between atoms: C_18  and  C_19
REMARK    5  A    between atoms: C_19  and  C_30
REMARK                            x       y       z     vdW  Elec       q    Type
REMARK                         _______ _______ _______ _____ _____    ______ ____
ROOT
ATOM      1  N   UNL     1      35.544 -21.195 -18.572  0.00  0.00    +0.390 N 
ATOM      2  N   UNL     1      35.382 -18.842 -20.184  0.00  0.00    -0.312 N 
ATOM      3  C   UNL     1      36.619 -20.195 -18.538  0.00  0.00    -0.055 C 
ATOM      4  C   UNL     1      34.253 -20.533 -18.791  0.00  0.00    -0.055 C 
ATOM      5  C   UNL     1      36.689 -19.418 -19.854  0.00  0.00    +0.068 C 
ATOM      6  C   UNL     1      34.244 -19.769 -20.117  0.00  0.00    +0.068 C 
ATOM      7  H   UNL     1      35.720 -21.839 -19.344  0.00  0.00    -0.080 HD
ENDROOT
BRANCH   2   8
ATOM      8  C   UNL     1      35.301 -17.766 -21.074  0.00  0.00    +0.048 C 
ATOM      9  C   UNL     1      35.070 -16.477 -20.593  0.00  0.00    +0.018 C 
ATOM     10  C   UNL     1      35.453 -17.982 -22.444  0.00  0.00    +0.015 C 
ATOM     11  C   UNL     1      34.989 -15.406 -21.482  0.00  0.00    +0.073 C 
ATOM     12  C   UNL     1      35.373 -16.910 -23.333  0.00  0.00    +0.001 C 
ATOM     13  C   UNL     1      35.141 -15.622 -22.852  0.00  0.00    +0.004 C 
BRANCH  11  17
ATOM     14  F   UNL     1      35.365 -13.765 -19.782  0.00  0.00    -0.166 F 
ATOM     15  F   UNL     1      35.162 -13.044 -21.817  0.00  0.00    -0.166 F 
ATOM     16  F   UNL     1      33.417 -13.780 -20.749  0.00  0.00    -0.166 F 
ATOM     17  C   UNL     1      34.741 -14.028 -20.968  0.00  0.00    +0.419 C 
ENDBRANCH  11  17
ENDBRANCH   2   8
BRANCH   1  18
ATOM     18  C   UNL     1      35.522 -21.967 -17.330  0.00  0.00    -0.069 C 
BRANCH  18  19
ATOM     19  C   UNL     1      36.734 -21.656 -16.424  0.00  0.00    +0.043 C 
BRANCH  19  30
ATOM     20  N   UNL     1      37.547 -22.899 -14.441  0.00  0.00    -0.302 N 
ATOM     21  N   UNL     1      35.853 -22.808 -13.079  0.00  0.00    -0.134 NA
ATOM     22  N   UNL     1      35.541 -22.137 -14.266  0.00  0.00    -0.134 NA
ATOM     23  C   UNL     1      39.235 -24.205 -13.472  0.00  0.00    +0.030 C 
ATOM     24  C   UNL     1      38.055 -24.036 -12.447  0.00  0.00    +0.061 C 
ATOM     25  C   UNL     1      39.297 -25.708 -13.777  0.00  0.00    +0.002 C 
ATOM     26  C   UNL     1      37.582 -25.451 -12.133  0.00  0.00    +0.008 C 
ATOM     27  C   UNL     1      38.896 -23.333 -14.709  0.00  0.00    +0.109 C 
ATOM     28  C   UNL     1      37.938 -26.261 -13.373  0.00  0.00    +0.001 C 
ATOM     29  C   UNL     1      37.072 -23.256 -13.225  0.00  0.00    +0.143 A 
ATOM     30  C   UNL     1      36.588 -22.212 -15.071  0.00  0.00    +0.141 A 
ENDBRANCH  19  30
ENDBRANCH  18  19
ENDBRANCH   1  18
TORSDOF 5
ENDMDL
MODEL 6
REMARK VINA RESULT:     -11.2      1.983      2.957
REMARK  Name = 20055414
REMARK  5 active torsions:
REMARK  status: ('A' for Active; 'I' for Inactive)
REMARK    1  A    between atoms: N_1  and  C_18
REMARK    2  A    between atoms: N_2  and  C_8
REMARK    3  A    between atoms: C_11  and  C_17
REMARK    4  A    between atoms: C_18  and  C_19
REMARK    5  A    between atoms: C_19  and  C_30
REMARK                            x       y       z     vdW  Elec       q    Type
REMARK                         _______ _______ _______ _____ _____    ______ ____
ROOT
ATOM      1  N   UNL     1      34.585 -21.317 -17.955  0.00  0.00    +0.390 N 
ATOM      2  N   UNL     1      34.770 -19.564 -20.203  0.00  0.00    -0.312 N 
ATOM      3  C   UNL     1      33.436 -21.131 -18.850  0.00  0.00    -0.055 C 
ATOM      4  C   UNL     1      35.834 -21.220 -18.720  0.00  0.00    -0.055 C 
ATOM      5  C   UNL     1      33.482 -19.762 -19.530  0.00  0.00    +0.068 C 
ATOM      6  C   UNL     1      35.961 -19.852 -19.394  0.00  0.00    +0.068 C 
ATOM      7  H   UNL     1      34.573 -20.581 -17.249  0.00  0.00    -0.080 HD
ENDROOT
BRANCH   2   8
ATOM      8  C   UNL     1      34.882 -18.611 -21.222  0.00  0.00    +0.048 C 
ATOM      9  C   UNL     1      34.844 -17.251 -20.913  0.00  0.00    +0.018 C 
ATOM     10  C   UNL     1      35.031 -19.021 -22.547  0.00  0.00    +0.015 C 
ATOM     11  C   UNL     1      34.956 -16.303 -21.928  0.00  0.00    +0.073 C 
ATOM     12  C   UNL     1      35.143 -18.071 -23.563  0.00  0.00    +0.001 C 
ATOM     13  C   UNL     1      35.106 -16.713 -23.254  0.00  0.00    +0.004 C 
BRANCH  11  17
ATOM     14  F   UNL     1      35.670 -14.076 -22.435  0.00  0.00    -0.166 F 
ATOM     15  F   UNL     1      33.660 -14.311 -21.653  0.00  0.00    -0.166 F 
ATOM     16  F   UNL     1      35.373 -14.583 -20.341  0.00  0.00    -0.166 F 
ATOM     17  C   UNL     1      34.915 -14.849 -21.599  0.00  0.00    +0.419 C 
ENDBRANCH  11  17
ENDBRANCH   2   8
BRANCH   1  18
ATOM     18  C   UNL     1      34.499 -22.607 -17.272  0.00  0.00    -0.069 C 
BRANCH  18  19
ATOM     19  C   UNL     1      34.707 -22.479 -15.747  0.00  0.00    +0.043 C 
BRANCH  19  30
ATOM     20  N   UNL     1      36.688 -23.680 -14.866  0.00  0.00    -0.302 N 
ATOM     21  N   UNL     1      38.251 -22.170 -14.948  0.00  0.00    -0.134 NA
ATOM     22  N   UNL     1      37.050 -21.632 -15.421  0.00  0.00    -0.134 NA
ATOM     23  C   UNL     1      37.556 -25.625 -13.888  0.00  0.00    +0.030 C 
ATOM     24  C   UNL     1      38.708 -24.568 -14.058  0.00  0.00    +0.061 C 
ATOM     25  C   UNL     1      37.418 -25.836 -12.374  0.00  0.00    +0.002 C 
ATOM     26  C   UNL     1      39.244 -24.318 -12.652  0.00  0.00    +0.008 C 
ATOM     27  C   UNL     1      36.287 -25.029 -14.550  0.00  0.00    +0.109 C 
ATOM     28  C   UNL     1      38.066 -24.617 -11.733  0.00  0.00    +0.001 C 
ATOM     29  C   UNL     1      37.990 -23.408 -14.619  0.00  0.00    +0.143 A 
ATOM     30  C   UNL     1      36.122 -22.572 -15.358  0.00  0.00    +0.141 A 
ENDBRANCH  19  30
ENDBRANCH  18  19
ENDBRANCH   1  18
TORSDOF 5
ENDMDL
MODEL 7
REMARK VINA RESULT:     -11.2      6.974     12.773
REMARK  Name = 20055414
REMARK  5 active torsions:
REMARK  status: ('A' for Active; 'I' for Inactive)
REMARK    1  A    between atoms: N_1  and  C_18
REMARK    2  A    between atoms: N_2  and  C_8
REMARK    3  A    between atoms: C_11  and  C_17
REMARK    4  A    between atoms: C_18  and  C_19
REMARK    5  A    between atoms: C_19  and  C_30
REMARK                            x       y       z     vdW  Elec       q    Type
REMARK                         _______ _______ _______ _____ _____    ______ ____
ROOT
ATOM      1  N   UNL     1      34.835 -14.644 -22.800  0.00  0.00    +0.390 N 
ATOM      2  N   UNL     1      35.240 -17.083 -21.369  0.00  0.00    -0.312 N 
ATOM      3  C   UNL     1      34.650 -15.938 -23.468  0.00  0.00    -0.055 C 
ATOM      4  C   UNL     1      34.445 -14.751 -21.389  0.00  0.00    -0.055 C 
ATOM      5  C   UNL     1      35.502 -17.025 -22.810  0.00  0.00    +0.068 C 
ATOM      6  C   UNL     1      35.292 -15.797 -20.662  0.00  0.00    +0.068 C 
ATOM      7  H   UNL     1      35.821 -14.387 -22.850  0.00  0.00    -0.080 HD
ENDROOT
BRANCH   2   8
ATOM      8  C   UNL     1      35.559 -18.241 -20.651  0.00  0.00    +0.048 C 
ATOM      9  C   UNL     1      34.550 -19.126 -20.268  0.00  0.00    +0.018 C 
ATOM     10  C   UNL     1      36.887 -18.512 -20.318  0.00  0.00    +0.015 C 
ATOM     11  C   UNL     1      34.869 -20.279 -19.553  0.00  0.00    +0.073 C 
ATOM     12  C   UNL     1      37.205 -19.666 -19.602  0.00  0.00    +0.001 C 
ATOM     13  C   UNL     1      36.197 -20.549 -19.220  0.00  0.00    +0.004 C 
BRANCH  11  17
ATOM     14  F   UNL     1      34.165 -22.537 -19.194  0.00  0.00    -0.166 F 
ATOM     15  F   UNL     1      33.351 -21.030 -17.864  0.00  0.00    -0.166 F 
ATOM     16  F   UNL     1      32.681 -21.128 -19.931  0.00  0.00    -0.166 F 
ATOM     17  C   UNL     1      33.791 -21.224 -19.143  0.00  0.00    +0.419 C 
ENDBRANCH  11  17
ENDBRANCH   2   8
BRANCH   1  18
ATOM     18  C   UNL     1      34.057 -13.604 -23.471  0.00  0.00    -0.069 C 
BRANCH  18  19
ATOM     19  C   UNL     1      34.529 -12.182 -23.094  0.00  0.00    +0.043 C 
BRANCH  19  30
ATOM     20  N   UNL     1      33.176 -10.124 -22.823  0.00  0.00    -0.302 N 
ATOM     21  N   UNL     1      31.801 -10.651 -21.221  0.00  0.00    -0.134 NA
ATOM     22  N   UNL     1      32.646 -11.732 -21.492  0.00  0.00    -0.134 NA
ATOM     23  C   UNL     1      32.827  -7.885 -23.422  0.00  0.00    +0.030 C 
ATOM     24  C   UNL     1      31.761  -8.309 -22.347  0.00  0.00    +0.061 C 
ATOM     25  C   UNL     1      33.663  -6.785 -22.753  0.00  0.00    +0.002 C 
ATOM     26  C   UNL     1      31.964  -7.358 -21.172  0.00  0.00    +0.008 C 
ATOM     27  C   UNL     1      33.643  -9.154 -23.782  0.00  0.00    +0.109 C 
ATOM     28  C   UNL     1      33.429  -6.949 -21.258  0.00  0.00    +0.001 C 
ATOM     29  C   UNL     1      32.155  -9.698 -22.043  0.00  0.00    +0.143 A 
ATOM     30  C   UNL     1      33.467 -11.380 -22.467  0.00  0.00    +0.141 A 
ENDBRANCH  19  30
ENDBRANCH  18  19
ENDBRANCH   1  18
TORSDOF 5
ENDMDL
MODEL 8
REMARK VINA RESULT:     -11.1      1.708      2.576
REMARK  Name = 20055414
REMARK  5 active torsions:
REMARK  status: ('A' for Active; 'I' for Inactive)
REMARK    1  A    between atoms: N_1  and  C_18
REMARK    2  A    between atoms: N_2  and  C_8
REMARK    3  A    between atoms: C_11  and  C_17
REMARK    4  A    between atoms: C_18  and  C_19
REMARK    5  A    between atoms: C_19  and  C_30
REMARK                            x       y       z     vdW  Elec       q    Type
REMARK                         _______ _______ _______ _____ _____    ______ ____
ROOT
ATOM      1  N   UNL     1      35.650 -21.352 -18.210  0.00  0.00    +0.390 N 
ATOM      2  N   UNL     1      35.384 -19.217 -20.091  0.00  0.00    -0.312 N 
ATOM      3  C   UNL     1      36.705 -20.339 -18.341  0.00  0.00    -0.055 C 
ATOM      4  C   UNL     1      34.339 -20.740 -18.459  0.00  0.00    -0.055 C 
ATOM      5  C   UNL     1      36.713 -19.729 -19.744  0.00  0.00    +0.068 C 
ATOM      6  C   UNL     1      34.267 -20.145 -19.866  0.00  0.00    +0.068 C 
ATOM      7  H   UNL     1      35.809 -22.082 -18.904  0.00  0.00    -0.080 HD
ENDROOT
BRANCH   2   8
ATOM      8  C   UNL     1      35.251 -18.260 -21.103  0.00  0.00    +0.048 C 
ATOM      9  C   UNL     1      34.744 -18.629 -22.350  0.00  0.00    +0.018 C 
ATOM     10  C   UNL     1      35.624 -16.937 -20.865  0.00  0.00    +0.015 C 
ATOM     11  C   UNL     1      34.612 -17.674 -23.357  0.00  0.00    +0.073 C 
ATOM     12  C   UNL     1      35.491 -15.983 -21.874  0.00  0.00    +0.001 C 
ATOM     13  C   UNL     1      34.985 -16.351 -23.120  0.00  0.00    +0.004 C 
BRANCH  11  17
ATOM     14  F   UNL     1      32.747 -18.403 -24.668  0.00  0.00    -0.166 F 
ATOM     15  F   UNL     1      34.174 -17.084 -25.634  0.00  0.00    -0.166 F 
ATOM     16  F   UNL     1      34.714 -19.150 -25.219  0.00  0.00    -0.166 F 
ATOM     17  C   UNL     1      34.072 -18.068 -24.690  0.00  0.00    +0.419 C 
ENDBRANCH  11  17
ENDBRANCH   2   8
BRANCH   1  18
ATOM     18  C   UNL     1      35.688 -21.964 -16.883  0.00  0.00    -0.069 C 
BRANCH  18  19
ATOM     19  C   UNL     1      36.752 -21.318 -15.969  0.00  0.00    +0.043 C 
BRANCH  19  30
ATOM     20  N   UNL     1      36.927 -22.992 -14.150  0.00  0.00    -0.302 N 
ATOM     21  N   UNL     1      38.996 -23.649 -14.289  0.00  0.00    -0.134 NA
ATOM     22  N   UNL     1      38.741 -22.685 -15.269  0.00  0.00    -0.134 NA
ATOM     23  C   UNL     1      35.914 -24.045 -12.317  0.00  0.00    +0.030 C 
ATOM     24  C   UNL     1      37.374 -24.601 -12.496  0.00  0.00    +0.061 C 
ATOM     25  C   UNL     1      35.910 -23.346 -10.951  0.00  0.00    +0.002 C 
ATOM     26  C   UNL     1      38.090 -24.296 -11.185  0.00  0.00    +0.008 C 
ATOM     27  C   UNL     1      35.640 -23.087 -13.506  0.00  0.00    +0.109 C 
ATOM     28  C   UNL     1      37.373 -23.073 -10.630  0.00  0.00    +0.001 C 
ATOM     29  C   UNL     1      37.877 -23.805 -13.631  0.00  0.00    +0.143 A 
ATOM     30  C   UNL     1      37.478 -22.307 -15.158  0.00  0.00    +0.141 A 
ENDBRANCH  19  30
ENDBRANCH  18  19
ENDBRANCH   1  18
TORSDOF 5
ENDMDL
MODEL 9
REMARK VINA RESULT:     -11.1      1.835      3.075
REMARK  Name = 20055414
REMARK  5 active torsions:
REMARK  status: ('A' for Active; 'I' for Inactive)
REMARK    1  A    between atoms: N_1  and  C_18
REMARK    2  A    between atoms: N_2  and  C_8
REMARK    3  A    between atoms: C_11  and  C_17
REMARK    4  A    between atoms: C_18  and  C_19
REMARK    5  A    between atoms: C_19  and  C_30
REMARK                            x       y       z     vdW  Elec       q    Type
REMARK                         _______ _______ _______ _____ _____    ______ ____
ROOT
ATOM      1  N   UNL     1      36.264 -20.220 -18.544  0.00  0.00    +0.390 N 
ATOM      2  N   UNL     1      35.505 -18.977 -21.002  0.00  0.00    -0.312 N 
ATOM      3  C   UNL     1      35.122 -20.729 -19.314  0.00  0.00    -0.055 C 
ATOM      4  C   UNL     1      37.286 -19.694 -19.457  0.00  0.00    -0.055 C 
ATOM      5  C   UNL     1      34.491 -19.623 -20.162  0.00  0.00    +0.068 C 
ATOM      6  C   UNL     1      36.728 -18.552 -20.308  0.00  0.00    +0.068 C 
ATOM      7  H   UNL     1      35.941 -19.464 -17.940  0.00  0.00    -0.080 HD
ENDROOT
BRANCH   2   8
ATOM      8  C   UNL     1      35.112 -18.262 -22.138  0.00  0.00    +0.048 C 
ATOM      9  C   UNL     1      35.049 -16.869 -22.100  0.00  0.00    +0.018 C 
ATOM     10  C   UNL     1      34.782 -18.943 -23.311  0.00  0.00    +0.015 C 
ATOM     11  C   UNL     1      34.657 -16.158 -23.234  0.00  0.00    +0.073 C 
ATOM     12  C   UNL     1      34.390 -18.231 -24.445  0.00  0.00    +0.001 C 
ATOM     13  C   UNL     1      34.328 -16.839 -24.406  0.00  0.00    +0.004 C 
BRANCH  11  17
ATOM     14  F   UNL     1      33.590 -14.187 -22.396  0.00  0.00    -0.166 F 
ATOM     15  F   UNL     1      35.731 -14.082 -22.725  0.00  0.00    -0.166 F 
ATOM     16  F   UNL     1      34.374 -14.119 -24.423  0.00  0.00    -0.166 F 
ATOM     17  C   UNL     1      34.589 -14.669 -23.193  0.00  0.00    +0.419 C 
ENDBRANCH  11  17
ENDBRANCH   2   8
BRANCH   1  18
ATOM     18  C   UNL     1      36.823 -21.273 -17.698  0.00  0.00    -0.069 C 
BRANCH  18  19
ATOM     19  C   UNL     1      36.423 -21.109 -16.215  0.00  0.00    +0.043 C 
BRANCH  19  30
ATOM     20  N   UNL     1      36.736 -22.870 -14.499  0.00  0.00    -0.302 N 
ATOM     21  N   UNL     1      35.207 -24.329 -15.013  0.00  0.00    -0.134 NA
ATOM     22  N   UNL     1      35.155 -23.257 -15.909  0.00  0.00    -0.134 NA
ATOM     23  C   UNL     1      38.003 -23.691 -12.707  0.00  0.00    +0.030 C 
ATOM     24  C   UNL     1      36.823 -24.685 -13.009  0.00  0.00    +0.061 C 
ATOM     25  C   UNL     1      39.286 -24.485 -12.989  0.00  0.00    +0.002 C 
ATOM     26  C   UNL     1      37.486 -26.019 -13.334  0.00  0.00    +0.008 C 
ATOM     27  C   UNL     1      37.816 -22.462 -13.634  0.00  0.00    +0.109 C 
ATOM     28  C   UNL     1      38.859 -25.645 -13.878  0.00  0.00    +0.001 C 
ATOM     29  C   UNL     1      36.177 -24.060 -14.179  0.00  0.00    +0.143 A 
ATOM     30  C   UNL     1      36.095 -22.390 -15.571  0.00  0.00    +0.141 A 
ENDBRANCH  19  30
ENDBRANCH  18  19
ENDBRANCH   1  18
TORSDOF 5
ENDMDL
