MODEL 1
REMARK VINA RESULT:     -11.6      0.000      0.000
REMARK  Name = 54689025
REMARK  9 active torsions:
REMARK  status: ('A' for Active; 'I' for Inactive)
REMARK    1  A    between atoms: C_1  and  C_21
REMARK    2  A    between atoms: C_4  and  N_8
REMARK    3  A    between atoms: C_9  and  C_11
REMARK    4  A    between atoms: C_11  and  N_13
REMARK    5  A    between atoms: C_14  and  O_16
REMARK    6  A    between atoms: O_16  and  C_17
REMARK    7  A    between atoms: C_21  and  C_24
REMARK    8  A    between atoms: C_21  and  C_35
REMARK    9  A    between atoms: C_25  and  O_33
REMARK                            x       y       z     vdW  Elec       q    Type
REMARK                         _______ _______ _______ _____ _____    ______ ____
ROOT
ATOM      1  C   UNL     1      34.874 -19.540 -20.344  0.00  0.00    -0.017 C 
ATOM      2  C   UNL     1      35.243 -20.326 -19.253  0.00  0.00    +0.011 C 
ATOM      3  C   UNL     1      33.525 -19.346 -20.640  0.00  0.00    -0.004 C 
ATOM      4  C   UNL     1      34.263 -20.917 -18.456  0.00  0.00    +0.050 C 
ATOM      5  C   UNL     1      32.545 -19.938 -19.844  0.00  0.00    +0.001 C 
ATOM      6  C   UNL     1      32.913 -20.723 -18.752  0.00  0.00    +0.015 C 
ENDROOT
BRANCH   4   8
ATOM      7  O   UNL     1      36.767 -20.895 -16.797  0.00  0.00    -0.273 OA
ATOM      8  N   UNL     1      34.631 -21.704 -17.364  0.00  0.00    -0.283 N 
ATOM      9  C   UNL     1      35.820 -21.655 -16.619  0.00  0.00    +0.246 C 
ATOM     10  H   UNL     1      33.973 -22.378 -17.079  0.00  0.00    +0.155 HD
BRANCH   9  11
ATOM     11  C   UNL     1      35.810 -22.691 -15.510  0.00  0.00    +0.179 C 
BRANCH  11  13
ATOM     12  O   UNL     1      37.682 -22.176 -13.350  0.00  0.00    -0.226 OA
ATOM     13  N   UNL     1      37.120 -23.246 -15.332  0.00  0.00    -0.262 N 
ATOM     14  C   UNL     1      37.953 -22.945 -14.267  0.00  0.00    +0.402 C 
ATOM     15  H   UNL     1      37.449 -23.880 -16.010  0.00  0.00    +0.153 HD
BRANCH  14  16
ATOM     16  O   UNL     1      39.129 -23.632 -14.383  0.00  0.00    -0.442 OA
BRANCH  16  17
ATOM     17  C   UNL     1      39.185 -24.890 -13.702  0.00  0.00    +0.138 C 
ATOM     18  C   UNL     1      38.828 -24.666 -12.234  0.00  0.00    +0.044 C 
ATOM     19  C   UNL     1      40.612 -25.420 -13.833  0.00  0.00    +0.044 C 
ATOM     20  C   UNL     1      38.194 -25.846 -14.365  0.00  0.00    +0.044 C 
ENDBRANCH  16  17
ENDBRANCH  14  16
ENDBRANCH  11  13
ENDBRANCH   9  11
ENDBRANCH   4   8
BRANCH   1  21
ATOM     21  C   UNL     1      35.942 -18.896 -21.211  0.00  0.00    +0.054 C 
BRANCH  21  24
ATOM     22  O   UNL     1      34.658 -16.435 -23.785  0.00  0.00    -0.421 OA
ATOM     23  O   UNL     1      35.173 -18.649 -23.866  0.00  0.00    -0.245 OA
ATOM     24  C   UNL     1      35.466 -17.578 -21.760  0.00  0.00    +0.091 A 
ATOM     25  C   UNL     1      35.363 -16.430 -21.063  0.00  0.00    +0.139 A 
ATOM     26  C   UNL     1      35.097 -17.618 -23.205  0.00  0.00    +0.345 A 
ATOM     27  C   UNL     1      34.896 -15.200 -21.705  0.00  0.00    +0.068 A 
ATOM     28  C   UNL     1      34.556 -15.239 -23.054  0.00  0.00    +0.152 A 
ATOM     29  C   UNL     1      34.771 -13.976 -21.034  0.00  0.00    +0.006 C 
ATOM     30  C   UNL     1      34.103 -14.112 -23.741  0.00  0.00    +0.038 C 
ATOM     31  C   UNL     1      34.317 -12.836 -21.708  0.00  0.00    +0.000 C 
ATOM     32  C   UNL     1      33.985 -12.904 -23.060  0.00  0.00    +0.003 C 
BRANCH  25  33
ATOM     33  O   UNL     1      35.671 -16.296 -19.726  0.00  0.00    -0.506 OA
ATOM     34  H   UNL     1      36.538 -16.482 -19.424  0.00  0.00    +0.292 HD
ENDBRANCH  25  33
ENDBRANCH  21  24
BRANCH  21  35
ATOM     35  C   UNL     1      37.293 -18.708 -20.492  0.00  0.00    +0.009 C 
ATOM     36  C   UNL     1      38.365 -18.098 -21.390  0.00  0.00    +0.001 C 
ENDBRANCH  21  35
ENDBRANCH   1  21
TORSDOF 9
ENDMDL
MODEL 2
REMARK VINA RESULT:     -11.1      0.699      1.796
REMARK  Name = 54689025
REMARK  9 active torsions:
REMARK  status: ('A' for Active; 'I' for Inactive)
REMARK    1  A    between atoms: C_1  and  C_21
REMARK    2  A    between atoms: C_4  and  N_8
REMARK    3  A    between atoms: C_9  and  C_11
REMARK    4  A    between atoms: C_11  and  N_13
REMARK    5  A    between atoms: C_14  and  O_16
REMARK    6  A    between atoms: O_16  and  C_17
REMARK    7  A    between atoms: C_21  and  C_24
REMARK    8  A    between atoms: C_21  and  C_35
REMARK    9  A    between atoms: C_25  and  O_33
REMARK                            x       y       z     vdW  Elec       q    Type
REMARK                         _______ _______ _______ _____ _____    ______ ____
ROOT
ATOM      1  C   UNL     1      34.839 -19.321 -20.539  0.00  0.00    -0.017 C 
ATOM      2  C   UNL     1      35.185 -20.099 -19.435  0.00  0.00    +0.011 C 
ATOM      3  C   UNL     1      33.500 -19.186 -20.905  0.00  0.00    -0.004 C 
ATOM      4  C   UNL     1      34.192 -20.742 -18.695  0.00  0.00    +0.050 C 
ATOM      5  C   UNL     1      32.507 -19.830 -20.166  0.00  0.00    +0.001 C 
ATOM      6  C   UNL     1      32.853 -20.607 -19.062  0.00  0.00    +0.015 C 
ENDROOT
BRANCH   4   8
ATOM      7  O   UNL     1      36.755 -20.877 -17.132  0.00  0.00    -0.273 OA
ATOM      8  N   UNL     1      34.538 -21.522 -17.591  0.00  0.00    -0.283 N 
ATOM      9  C   UNL     1      35.756 -21.548 -16.893  0.00  0.00    +0.246 C 
ATOM     10  H   UNL     1      33.839 -22.130 -17.258  0.00  0.00    +0.155 HD
BRANCH   9  11
ATOM     11  C   UNL     1      35.705 -22.545 -15.749  0.00  0.00    +0.179 C 
BRANCH  11  13
ATOM     12  O   UNL     1      36.800 -22.627 -13.059  0.00  0.00    -0.226 OA
ATOM     13  N   UNL     1      37.032 -22.917 -15.351  0.00  0.00    -0.262 N 
ATOM     14  C   UNL     1      37.475 -22.929 -14.039  0.00  0.00    +0.402 C 
ATOM     15  H   UNL     1      37.667 -23.181 -16.055  0.00  0.00    +0.153 HD
BRANCH  14  16
ATOM     16  O   UNL     1      38.781 -23.328 -13.989  0.00  0.00    -0.442 OA
BRANCH  16  17
ATOM     17  C   UNL     1      39.016 -24.618 -13.413  0.00  0.00    +0.138 C 
ATOM     18  C   UNL     1      38.604 -24.577 -11.942  0.00  0.00    +0.044 C 
ATOM     19  C   UNL     1      40.509 -24.914 -13.545  0.00  0.00    +0.044 C 
ATOM     20  C   UNL     1      38.193 -25.651 -14.180  0.00  0.00    +0.044 C 
ENDBRANCH  16  17
ENDBRANCH  14  16
ENDBRANCH  11  13
ENDBRANCH   9  11
ENDBRANCH   4   8
BRANCH   1  21
ATOM     21  C   UNL     1      35.920 -18.620 -21.342  0.00  0.00    +0.054 C 
BRANCH  21  24
ATOM     22  O   UNL     1      34.982 -14.956 -21.177  0.00  0.00    -0.421 OA
ATOM     23  O   UNL     1      35.785 -16.431 -19.642  0.00  0.00    -0.245 OA
ATOM     24  C   UNL     1      35.440 -17.283 -21.838  0.00  0.00    +0.091 A 
ATOM     25  C   UNL     1      35.043 -17.010 -23.096  0.00  0.00    +0.139 A 
ATOM     26  C   UNL     1      35.424 -16.217 -20.796  0.00  0.00    +0.345 A 
ATOM     27  C   UNL     1      34.583 -15.670 -23.466  0.00  0.00    +0.068 A 
ATOM     28  C   UNL     1      34.566 -14.678 -22.490  0.00  0.00    +0.152 A 
ATOM     29  C   UNL     1      34.156 -15.326 -24.756  0.00  0.00    +0.006 C 
ATOM     30  C   UNL     1      34.142 -13.376 -22.759  0.00  0.00    +0.038 C 
ATOM     31  C   UNL     1      33.728 -14.025 -25.042  0.00  0.00    +0.000 C 
ATOM     32  C   UNL     1      33.720 -13.052 -24.044  0.00  0.00    +0.003 C 
BRANCH  25  33
ATOM     33  O   UNL     1      35.029 -17.924 -24.129  0.00  0.00    -0.506 OA
ATOM     34  H   UNL     1      35.822 -18.131 -24.582  0.00  0.00    +0.292 HD
ENDBRANCH  25  33
ENDBRANCH  21  24
BRANCH  21  35
ATOM     35  C   UNL     1      37.249 -18.450 -20.578  0.00  0.00    +0.009 C 
ATOM     36  C   UNL     1      38.413 -18.072 -21.487  0.00  0.00    +0.001 C 
ENDBRANCH  21  35
ENDBRANCH   1  21
TORSDOF 9
ENDMDL
MODEL 3
REMARK VINA RESULT:     -11.0      1.947      2.952
REMARK  Name = 54689025
REMARK  9 active torsions:
REMARK  status: ('A' for Active; 'I' for Inactive)
REMARK    1  A    between atoms: C_1  and  C_21
REMARK    2  A    between atoms: C_4  and  N_8
REMARK    3  A    between atoms: C_9  and  C_11
REMARK    4  A    between atoms: C_11  and  N_13
REMARK    5  A    between atoms: C_14  and  O_16
REMARK    6  A    between atoms: O_16  and  C_17
REMARK    7  A    between atoms: C_21  and  C_24
REMARK    8  A    between atoms: C_21  and  C_35
REMARK    9  A    between atoms: C_25  and  O_33
REMARK                            x       y       z     vdW  Elec       q    Type
REMARK                         _______ _______ _______ _____ _____    ______ ____
ROOT
ATOM      1  C   UNL     1      35.144 -19.452 -20.348  0.00  0.00    -0.017 C 
ATOM      2  C   UNL     1      35.651 -20.187 -19.277  0.00  0.00    +0.011 C 
ATOM      3  C   UNL     1      33.768 -19.406 -20.573  0.00  0.00    -0.004 C 
ATOM      4  C   UNL     1      34.783 -20.875 -18.429  0.00  0.00    +0.050 C 
ATOM      5  C   UNL     1      32.900 -20.096 -19.727  0.00  0.00    +0.001 C 
ATOM      6  C   UNL     1      33.407 -20.829 -18.655  0.00  0.00    +0.015 C 
ENDROOT
BRANCH   4   8
ATOM      7  O   UNL     1      37.223 -20.420 -16.736  0.00  0.00    -0.273 OA
ATOM      8  N   UNL     1      35.290 -21.611 -17.358  0.00  0.00    -0.283 N 
ATOM      9  C   UNL     1      36.441 -21.355 -16.595  0.00  0.00    +0.246 C 
ATOM     10  H   UNL     1      34.774 -22.410 -17.103  0.00  0.00    +0.155 HD
BRANCH   9  11
ATOM     11  C   UNL     1      36.625 -22.410 -15.520  0.00  0.00    +0.179 C 
BRANCH  11  13
ATOM     12  O   UNL     1      35.113 -24.706 -14.580  0.00  0.00    -0.226 OA
ATOM     13  N   UNL     1      35.502 -22.417 -14.629  0.00  0.00    -0.262 N 
ATOM     14  C   UNL     1      34.835 -23.563 -14.229  0.00  0.00    +0.402 C 
ATOM     15  H   UNL     1      35.185 -21.553 -14.279  0.00  0.00    +0.153 HD
BRANCH  14  16
ATOM     16  O   UNL     1      33.813 -23.239 -13.381  0.00  0.00    -0.442 OA
BRANCH  16  17
ATOM     17  C   UNL     1      32.505 -23.210 -13.963  0.00  0.00    +0.138 C 
ATOM     18  C   UNL     1      31.741 -22.020 -13.385  0.00  0.00    +0.044 C 
ATOM     19  C   UNL     1      31.811 -24.522 -13.599  0.00  0.00    +0.044 C 
ATOM     20  C   UNL     1      32.650 -23.081 -15.478  0.00  0.00    +0.044 C 
ENDBRANCH  16  17
ENDBRANCH  14  16
ENDBRANCH  11  13
ENDBRANCH   9  11
ENDBRANCH   4   8
BRANCH   1  21
ATOM     21  C   UNL     1      36.089 -18.702 -21.269  0.00  0.00    +0.054 C 
BRANCH  21  24
ATOM     22  O   UNL     1      34.547 -16.115 -23.563  0.00  0.00    -0.421 OA
ATOM     23  O   UNL     1      35.212 -18.269 -23.867  0.00  0.00    -0.245 OA
ATOM     24  C   UNL     1      35.503 -17.378 -21.678  0.00  0.00    +0.091 A 
ATOM     25  C   UNL     1      35.345 -16.309 -20.875  0.00  0.00    +0.139 A 
ATOM     26  C   UNL     1      35.087 -17.311 -23.109  0.00  0.00    +0.345 A 
ATOM     27  C   UNL     1      34.771 -15.062 -21.385  0.00  0.00    +0.068 A 
ATOM     28  C   UNL     1      34.387 -15.002 -22.720  0.00  0.00    +0.152 A 
ATOM     29  C   UNL     1      34.585 -13.917 -20.598  0.00  0.00    +0.006 C 
ATOM     30  C   UNL     1      33.833 -13.853 -23.286  0.00  0.00    +0.038 C 
ATOM     31  C   UNL     1      34.030 -12.756 -21.149  0.00  0.00    +0.000 C 
ATOM     32  C   UNL     1      33.656 -12.724 -22.491  0.00  0.00    +0.003 C 
BRANCH  25  33
ATOM     33  O   UNL     1      35.691 -16.275 -19.540  0.00  0.00    -0.506 OA
ATOM     34  H   UNL     1      35.159 -15.804 -18.930  0.00  0.00    +0.292 HD
ENDBRANCH  25  33
ENDBRANCH  21  24
BRANCH  21  35
ATOM     35  C   UNL     1      37.497 -18.493 -20.675  0.00  0.00    +0.009 C 
ATOM     36  C   UNL     1      38.500 -17.963 -21.695  0.00  0.00    +0.001 C 
ENDBRANCH  21  35
ENDBRANCH   1  21
TORSDOF 9
ENDMDL
MODEL 4
REMARK VINA RESULT:      -9.9      2.472     10.212
REMARK  Name = 54689025
REMARK  9 active torsions:
REMARK  status: ('A' for Active; 'I' for Inactive)
REMARK    1  A    between atoms: C_1  and  C_21
REMARK    2  A    between atoms: C_4  and  N_8
REMARK    3  A    between atoms: C_9  and  C_11
REMARK    4  A    between atoms: C_11  and  N_13
REMARK    5  A    between atoms: C_14  and  O_16
REMARK    6  A    between atoms: O_16  and  C_17
REMARK    7  A    between atoms: C_21  and  C_24
REMARK    8  A    between atoms: C_21  and  C_35
REMARK    9  A    between atoms: C_25  and  O_33
REMARK                            x       y       z     vdW  Elec       q    Type
REMARK                         _______ _______ _______ _____ _____    ______ ____
ROOT
ATOM      1  C   UNL     1      33.251 -23.402 -15.175  0.00  0.00    -0.017 C 
ATOM      2  C   UNL     1      34.269 -22.951 -16.014  0.00  0.00    +0.011 C 
ATOM      3  C   UNL     1      31.933 -23.005 -15.400  0.00  0.00    -0.004 C 
ATOM      4  C   UNL     1      33.969 -22.103 -17.080  0.00  0.00    +0.050 C 
ATOM      5  C   UNL     1      31.633 -22.156 -16.465  0.00  0.00    +0.001 C 
ATOM      6  C   UNL     1      32.651 -21.706 -17.306  0.00  0.00    +0.015 C 
ENDROOT
BRANCH   4   8
ATOM      7  O   UNL     1      36.703 -21.039 -16.428  0.00  0.00    -0.273 OA
ATOM      8  N   UNL     1      34.988 -21.651 -17.920  0.00  0.00    -0.283 N 
ATOM      9  C   UNL     1      36.254 -21.160 -17.564  0.00  0.00    +0.246 C 
ATOM     10  H   UNL     1      34.794 -21.681 -18.885  0.00  0.00    +0.155 HD
BRANCH   9  11
ATOM     11  C   UNL     1      37.054 -20.777 -18.796  0.00  0.00    +0.179 C 
BRANCH  11  13
ATOM     12  O   UNL     1      34.667 -20.075 -20.295  0.00  0.00    -0.226 OA
ATOM     13  N   UNL     1      36.660 -19.480 -19.264  0.00  0.00    -0.262 N 
ATOM     14  C   UNL     1      35.498 -19.231 -19.976  0.00  0.00    +0.402 C 
ATOM     15  H   UNL     1      37.252 -18.719 -19.067  0.00  0.00    +0.153 HD
BRANCH  14  16
ATOM     16  O   UNL     1      35.408 -17.901 -20.276  0.00  0.00    -0.442 OA
BRANCH  16  17
ATOM     17  C   UNL     1      35.803 -17.533 -21.602  0.00  0.00    +0.138 C 
ATOM     18  C   UNL     1      37.297 -17.813 -21.761  0.00  0.00    +0.044 C 
ATOM     19  C   UNL     1      35.515 -16.041 -21.770  0.00  0.00    +0.044 C 
ATOM     20  C   UNL     1      34.985 -18.353 -22.598  0.00  0.00    +0.044 C 
ENDBRANCH  16  17
ENDBRANCH  14  16
ENDBRANCH  11  13
ENDBRANCH   9  11
ENDBRANCH   4   8
BRANCH   1  21
ATOM     21  C   UNL     1      33.577 -24.326 -14.015  0.00  0.00    +0.054 C 
BRANCH  21  24
ATOM     22  O   UNL     1      36.716 -23.302 -12.163  0.00  0.00    -0.421 OA
ATOM     23  O   UNL     1      34.514 -22.798 -11.896  0.00  0.00    -0.245 OA
ATOM     24  C   UNL     1      35.044 -24.277 -13.684  0.00  0.00    +0.091 A 
ATOM     25  C   UNL     1      36.018 -24.935 -14.342  0.00  0.00    +0.139 A 
ATOM     26  C   UNL     1      35.378 -23.405 -12.521  0.00  0.00    +0.345 A 
ATOM     27  C   UNL     1      37.419 -24.805 -13.938  0.00  0.00    +0.068 A 
ATOM     28  C   UNL     1      37.728 -23.988 -12.856  0.00  0.00    +0.152 A 
ATOM     29  C   UNL     1      38.476 -25.461 -14.586  0.00  0.00    +0.006 C 
ATOM     30  C   UNL     1      39.038 -23.809 -12.407  0.00  0.00    +0.038 C 
ATOM     31  C   UNL     1      39.795 -25.293 -14.148  0.00  0.00    +0.000 C 
ATOM     32  C   UNL     1      40.074 -24.467 -13.061  0.00  0.00    +0.003 C 
BRANCH  25  33
ATOM     33  O   UNL     1      35.809 -25.768 -15.421  0.00  0.00    -0.506 OA
ATOM     34  H   UNL     1      34.937 -26.009 -15.666  0.00  0.00    +0.292 HD
ENDBRANCH  25  33
ENDBRANCH  21  24
BRANCH  21  35
ATOM     35  C   UNL     1      32.744 -24.046 -12.747  0.00  0.00    +0.009 C 
ATOM     36  C   UNL     1      31.323 -24.592 -12.837  0.00  0.00    +0.001 C 
ENDBRANCH  21  35
ENDBRANCH   1  21
TORSDOF 9
ENDMDL
MODEL 5
REMARK VINA RESULT:      -9.8      6.181     10.785
REMARK  Name = 54689025
REMARK  9 active torsions:
REMARK  status: ('A' for Active; 'I' for Inactive)
REMARK    1  A    between atoms: C_1  and  C_21
REMARK    2  A    between atoms: C_4  and  N_8
REMARK    3  A    between atoms: C_9  and  C_11
REMARK    4  A    between atoms: C_11  and  N_13
REMARK    5  A    between atoms: C_14  and  O_16
REMARK    6  A    between atoms: O_16  and  C_17
REMARK    7  A    between atoms: C_21  and  C_24
REMARK    8  A    between atoms: C_21  and  C_35
REMARK    9  A    between atoms: C_25  and  O_33
REMARK                            x       y       z     vdW  Elec       q    Type
REMARK                         _______ _______ _______ _____ _____    ______ ____
ROOT
ATOM      1  C   UNL     1      33.325  -9.574 -22.526  0.00  0.00    -0.017 C 
ATOM      2  C   UNL     1      33.364 -10.951 -22.744  0.00  0.00    +0.011 C 
ATOM      3  C   UNL     1      34.090  -8.720 -23.320  0.00  0.00    -0.004 C 
ATOM      4  C   UNL     1      34.167 -11.474 -23.757  0.00  0.00    +0.050 C 
ATOM      5  C   UNL     1      34.894  -9.243 -24.333  0.00  0.00    +0.001 C 
ATOM      6  C   UNL     1      34.932 -10.620 -24.551  0.00  0.00    +0.015 C 
ENDROOT
BRANCH   4   8
ATOM      7  O   UNL     1      35.184 -13.694 -22.007  0.00  0.00    -0.273 OA
ATOM      8  N   UNL     1      34.207 -12.852 -23.976  0.00  0.00    -0.283 N 
ATOM      9  C   UNL     1      34.696 -13.853 -23.121  0.00  0.00    +0.246 C 
ATOM     10  H   UNL     1      33.844 -13.161 -24.838  0.00  0.00    +0.155 HD
BRANCH   9  11
ATOM     11  C   UNL     1      34.546 -15.226 -23.752  0.00  0.00    +0.179 C 
BRANCH  11  13
ATOM     12  O   UNL     1      34.137 -18.097 -23.584  0.00  0.00    -0.226 OA
ATOM     13  N   UNL     1      35.345 -16.188 -23.051  0.00  0.00    -0.262 N 
ATOM     14  C   UNL     1      35.078 -17.547 -23.022  0.00  0.00    +0.402 C 
ATOM     15  H   UNL     1      36.133 -15.862 -22.559  0.00  0.00    +0.153 HD
BRANCH  14  16
ATOM     16  O   UNL     1      36.020 -18.194 -22.272  0.00  0.00    -0.442 OA
BRANCH  16  17
ATOM     17  C   UNL     1      35.754 -18.268 -20.867  0.00  0.00    +0.138 C 
ATOM     18  C   UNL     1      35.438 -16.863 -20.356  0.00  0.00    +0.044 C 
ATOM     19  C   UNL     1      37.010 -18.816 -20.191  0.00  0.00    +0.044 C 
ATOM     20  C   UNL     1      34.571 -19.208 -20.644  0.00  0.00    +0.044 C 
ENDBRANCH  16  17
ENDBRANCH  14  16
ENDBRANCH  11  13
ENDBRANCH   9  11
ENDBRANCH   4   8
BRANCH   1  21
ATOM     21  C   UNL     1      32.450  -9.004 -21.424  0.00  0.00    +0.054 C 
BRANCH  21  24
ATOM     22  O   UNL     1      32.822  -5.435 -20.220  0.00  0.00    -0.421 OA
ATOM     23  O   UNL     1      33.207  -7.455 -19.249  0.00  0.00    -0.245 OA
ATOM     24  C   UNL     1      32.409  -7.502 -21.492  0.00  0.00    +0.091 A 
ATOM     25  C   UNL     1      32.023  -6.775 -22.558  0.00  0.00    +0.139 A 
ATOM     26  C   UNL     1      32.843  -6.823 -20.236  0.00  0.00    +0.345 A 
ATOM     27  C   UNL     1      32.013  -5.312 -22.508  0.00  0.00    +0.068 A 
ATOM     28  C   UNL     1      32.415  -4.682 -21.335  0.00  0.00    +0.152 A 
ATOM     29  C   UNL     1      31.619  -4.503 -23.583  0.00  0.00    +0.006 C 
ATOM     30  C   UNL     1      32.434  -3.293 -21.204  0.00  0.00    +0.038 C 
ATOM     31  C   UNL     1      31.633  -3.108 -23.469  0.00  0.00    +0.000 C 
ATOM     32  C   UNL     1      32.039  -2.505 -22.280  0.00  0.00    +0.003 C 
BRANCH  25  33
ATOM     33  O   UNL     1      31.614  -7.309 -23.762  0.00  0.00    -0.506 OA
ATOM     34  H   UNL     1      31.649  -6.790 -24.541  0.00  0.00    +0.292 HD
ENDBRANCH  25  33
ENDBRANCH  21  24
BRANCH  21  35
ATOM     35  C   UNL     1      31.014  -9.569 -21.419  0.00  0.00    +0.009 C 
ATOM     36  C   UNL     1      30.728 -10.455 -20.211  0.00  0.00    +0.001 C 
ENDBRANCH  21  35
ENDBRANCH   1  21
TORSDOF 9
ENDMDL
MODEL 6
REMARK VINA RESULT:      -9.8      7.449     13.023
REMARK  Name = 54689025
REMARK  9 active torsions:
REMARK  status: ('A' for Active; 'I' for Inactive)
REMARK    1  A    between atoms: C_1  and  C_21
REMARK    2  A    between atoms: C_4  and  N_8
REMARK    3  A    between atoms: C_9  and  C_11
REMARK    4  A    between atoms: C_11  and  N_13
REMARK    5  A    between atoms: C_14  and  O_16
REMARK    6  A    between atoms: O_16  and  C_17
REMARK    7  A    between atoms: C_21  and  C_24
REMARK    8  A    between atoms: C_21  and  C_35
REMARK    9  A    between atoms: C_25  and  O_33
REMARK                            x       y       z     vdW  Elec       q    Type
REMARK                         _______ _______ _______ _____ _____    ______ ____
ROOT
ATOM      1  C   UNL     1      33.174 -11.628 -22.225  0.00  0.00    -0.017 C 
ATOM      2  C   UNL     1      33.102 -10.275 -21.894  0.00  0.00    +0.011 C 
ATOM      3  C   UNL     1      32.392 -12.557 -21.538  0.00  0.00    -0.004 C 
ATOM      4  C   UNL     1      32.248  -9.850 -20.876  0.00  0.00    +0.050 C 
ATOM      5  C   UNL     1      31.539 -12.132 -20.519  0.00  0.00    +0.001 C 
ATOM      6  C   UNL     1      31.467 -10.779 -20.189  0.00  0.00    +0.015 C 
ENDROOT
BRANCH   4   8
ATOM      7  O   UNL     1      32.921  -8.436 -18.312  0.00  0.00    -0.273 OA
ATOM      8  N   UNL     1      32.177  -8.497 -20.544  0.00  0.00    -0.283 N 
ATOM      9  C   UNL     1      32.504  -7.883 -19.324  0.00  0.00    +0.246 C 
ATOM     10  H   UNL     1      31.858  -7.896 -21.256  0.00  0.00    +0.155 HD
BRANCH   9  11
ATOM     11  C   UNL     1      32.279  -6.383 -19.394  0.00  0.00    +0.179 C 
BRANCH  11  13
ATOM     12  O   UNL     1      30.663  -5.071 -21.420  0.00  0.00    -0.226 OA
ATOM     13  N   UNL     1      32.707  -5.872 -20.663  0.00  0.00    -0.262 N 
ATOM     14  C   UNL     1      31.866  -5.257 -21.576  0.00  0.00    +0.402 C 
ATOM     15  H   UNL     1      33.658  -5.964 -20.901  0.00  0.00    +0.153 HD
BRANCH  14  16
ATOM     16  O   UNL     1      32.572  -4.882 -22.685  0.00  0.00    -0.442 OA
BRANCH  16  17
ATOM     17  C   UNL     1      32.537  -5.797 -23.785  0.00  0.00    +0.138 C 
ATOM     18  C   UNL     1      33.880  -6.522 -23.858  0.00  0.00    +0.044 C 
ATOM     19  C   UNL     1      32.298  -4.981 -25.054  0.00  0.00    +0.044 C 
ATOM     20  C   UNL     1      31.395  -6.787 -23.558  0.00  0.00    +0.044 C 
ENDBRANCH  16  17
ENDBRANCH  14  16
ENDBRANCH  11  13
ENDBRANCH   9  11
ENDBRANCH   4   8
BRANCH   1  21
ATOM     21  C   UNL     1      34.102 -12.090 -23.334  0.00  0.00    +0.054 C 
BRANCH  21  24
ATOM     22  O   UNL     1      35.342 -15.385 -21.941  0.00  0.00    -0.421 OA
ATOM     23  O   UNL     1      35.489 -13.233 -21.219  0.00  0.00    -0.245 OA
ATOM     24  C   UNL     1      34.323 -13.577 -23.265  0.00  0.00    +0.091 A 
ATOM     25  C   UNL     1      33.895 -14.475 -24.173  0.00  0.00    +0.139 A 
ATOM     26  C   UNL     1      35.090 -14.025 -22.067  0.00  0.00    +0.345 A 
ATOM     27  C   UNL     1      34.177 -15.903 -24.010  0.00  0.00    +0.068 A 
ATOM     28  C   UNL     1      34.896 -16.317 -22.893  0.00  0.00    +0.152 A 
ATOM     29  C   UNL     1      33.761 -16.884 -24.921  0.00  0.00    +0.006 C 
ATOM     30  C   UNL     1      35.208 -17.658 -22.663  0.00  0.00    +0.038 C 
ATOM     31  C   UNL     1      34.065 -18.233 -24.705  0.00  0.00    +0.000 C 
ATOM     32  C   UNL     1      34.788 -18.618 -23.578  0.00  0.00    +0.003 C 
BRANCH  25  33
ATOM     33  O   UNL     1      33.174 -14.161 -25.306  0.00  0.00    -0.506 OA
ATOM     34  H   UNL     1      33.367 -13.378 -25.782  0.00  0.00    +0.292 HD
ENDBRANCH  25  33
ENDBRANCH  21  24
BRANCH  21  35
ATOM     35  C   UNL     1      33.626 -11.694 -24.746  0.00  0.00    +0.009 C 
ATOM     36  C   UNL     1      34.400 -10.515 -25.326  0.00  0.00    +0.001 C 
ENDBRANCH  21  35
ENDBRANCH   1  21
TORSDOF 9
ENDMDL
MODEL 7
REMARK VINA RESULT:      -8.7      5.922     10.848
REMARK  Name = 54689025
REMARK  9 active torsions:
REMARK  status: ('A' for Active; 'I' for Inactive)
REMARK    1  A    between atoms: C_1  and  C_21
REMARK    2  A    between atoms: C_4  and  N_8
REMARK    3  A    between atoms: C_9  and  C_11
REMARK    4  A    between atoms: C_11  and  N_13
REMARK    5  A    between atoms: C_14  and  O_16
REMARK    6  A    between atoms: O_16  and  C_17
REMARK    7  A    between atoms: C_21  and  C_24
REMARK    8  A    between atoms: C_21  and  C_35
REMARK    9  A    between atoms: C_25  and  O_33
REMARK                            x       y       z     vdW  Elec       q    Type
REMARK                         _______ _______ _______ _____ _____    ______ ____
ROOT
ATOM      1  C   UNL     1      33.511  -8.457 -23.602  0.00  0.00    -0.017 C 
ATOM      2  C   UNL     1      33.456  -9.847 -23.703  0.00  0.00    +0.011 C 
ATOM      3  C   UNL     1      34.550  -7.754 -24.213  0.00  0.00    -0.004 C 
ATOM      4  C   UNL     1      34.438 -10.535 -24.416  0.00  0.00    +0.050 C 
ATOM      5  C   UNL     1      35.533  -8.442 -24.924  0.00  0.00    +0.001 C 
ATOM      6  C   UNL     1      35.477  -9.831 -25.026  0.00  0.00    +0.015 C 
ENDROOT
BRANCH   4   8
ATOM      7  O   UNL     1      34.467 -12.645 -22.277  0.00  0.00    -0.273 OA
ATOM      8  N   UNL     1      34.384 -11.925 -24.517  0.00  0.00    -0.283 N 
ATOM      9  C   UNL     1      34.401 -12.873 -23.481  0.00  0.00    +0.246 C 
ATOM     10  H   UNL     1      34.325 -12.288 -25.431  0.00  0.00    +0.155 HD
BRANCH   9  11
ATOM     11  C   UNL     1      34.322 -14.284 -24.035  0.00  0.00    +0.179 C 
BRANCH  11  13
ATOM     12  O   UNL     1      34.290 -17.184 -23.867  0.00  0.00    -0.226 OA
ATOM     13  N   UNL     1      35.263 -15.136 -23.367  0.00  0.00    -0.262 N 
ATOM     14  C   UNL     1      35.173 -16.518 -23.335  0.00  0.00    +0.402 C 
ATOM     15  H   UNL     1      36.020 -14.713 -22.902  0.00  0.00    +0.153 HD
BRANCH  14  16
ATOM     16  O   UNL     1      36.216 -17.040 -22.623  0.00  0.00    -0.442 OA
BRANCH  16  17
ATOM     17  C   UNL     1      35.873 -17.654 -21.376  0.00  0.00    +0.138 C 
ATOM     18  C   UNL     1      34.832 -18.741 -21.638  0.00  0.00    +0.044 C 
ATOM     19  C   UNL     1      35.298 -16.566 -20.470  0.00  0.00    +0.044 C 
ATOM     20  C   UNL     1      37.140 -18.250 -20.763  0.00  0.00    +0.044 C 
ENDBRANCH  16  17
ENDBRANCH  14  16
ENDBRANCH  11  13
ENDBRANCH   9  11
ENDBRANCH   4   8
BRANCH   1  21
ATOM     21  C   UNL     1      32.442  -7.710 -22.827  0.00  0.00    +0.054 C 
BRANCH  21  24
ATOM     22  O   UNL     1      33.170  -7.768 -19.112  0.00  0.00    -0.421 OA
ATOM     23  O   UNL     1      33.821  -6.398 -20.807  0.00  0.00    -0.245 OA
ATOM     24  C   UNL     1      32.373  -8.191 -21.403  0.00  0.00    +0.091 A 
ATOM     25  C   UNL     1      31.672  -9.256 -20.968  0.00  0.00    +0.139 A 
ATOM     26  C   UNL     1      33.176  -7.377 -20.445  0.00  0.00    +0.345 A 
ATOM     27  C   UNL     1      31.687  -9.641 -19.556  0.00  0.00    +0.068 A 
ATOM     28  C   UNL     1      32.439  -8.882 -18.666  0.00  0.00    +0.152 A 
ATOM     29  C   UNL     1      30.981 -10.739 -19.045  0.00  0.00    +0.006 C 
ATOM     30  C   UNL     1      32.508  -9.181 -17.304  0.00  0.00    +0.038 C 
ATOM     31  C   UNL     1      31.038 -11.053 -17.682  0.00  0.00    +0.000 C 
ATOM     32  C   UNL     1      31.802 -10.275 -16.814  0.00  0.00    +0.003 C 
BRANCH  25  33
ATOM     33  O   UNL     1      30.896 -10.064 -21.773  0.00  0.00    -0.506 OA
ATOM     34  H   UNL     1      31.202 -10.914 -22.018  0.00  0.00    +0.292 HD
ENDBRANCH  25  33
ENDBRANCH  21  24
BRANCH  21  35
ATOM     35  C   UNL     1      32.614  -6.177 -22.855  0.00  0.00    +0.009 C 
ATOM     36  C   UNL     1      31.804  -5.508 -23.960  0.00  0.00    +0.001 C 
ENDBRANCH  21  35
ENDBRANCH   1  21
TORSDOF 9
ENDMDL
