MODEL 1
REMARK VINA RESULT:     -12.8      0.000      0.000
REMARK  Name = 44141871
REMARK  6 active torsions:
REMARK  status: ('A' for Active; 'I' for Inactive)
REMARK    1  A    between atoms: C_1  and  C_10
REMARK    2  A    between atoms: C_4  and  O_20
REMARK    3  A    between atoms: C_9  and  C_13
REMARK    4  A    between atoms: C_13  and  C_15
REMARK    5  A    between atoms: O_20  and  C_21
REMARK    6  A    between atoms: C_21  and  C_23
REMARK                            x       y       z     vdW  Elec       q    Type
REMARK                         _______ _______ _______ _____ _____    ______ ____
ROOT
ATOM      1  C   UNL     1      34.214 -22.202 -16.537  0.00  0.00    +0.015 C 
ATOM      2  C   UNL     1      33.368 -22.008 -17.629  0.00  0.00    +0.004 C 
ATOM      3  C   UNL     1      35.549 -21.805 -16.611  0.00  0.00    +0.004 C 
ATOM      4  C   UNL     1      35.191 -21.019 -18.868  0.00  0.00    +0.139 C 
ATOM      5  C   UNL     1      33.856 -21.416 -18.794  0.00  0.00    +0.037 C 
ATOM      6  C   UNL     1      36.038 -21.213 -17.776  0.00  0.00    +0.037 C 
ENDROOT
BRANCH   1  10
ATOM      7  N   UNL     1      32.457 -22.563 -14.851  0.00  0.00    -0.236 N 
ATOM      8  N   UNL     1      32.169 -23.226 -13.717  0.00  0.00    -0.180 NA
ATOM      9  C   UNL     1      34.279 -23.702 -14.454  0.00  0.00    +0.018 C 
ATOM     10  C   UNL     1      33.708 -22.814 -15.333  0.00  0.00    +0.063 C 
ATOM     11  C   UNL     1      33.285 -23.920 -13.480  0.00  0.00    +0.115 C 
ATOM     12  H   UNL     1      31.823 -21.953 -15.293  0.00  0.00    +0.174 HD
BRANCH   9  13
ATOM     13  C   UNL     1      35.624 -24.298 -14.507  0.00  0.00    +0.056 C 
BRANCH  13  15
ATOM     14  N   UNL     1      37.915 -23.878 -10.870  0.00  0.00    -0.242 NA
ATOM     15  C   UNL     1      36.432 -24.150 -13.224  0.00  0.00    -0.015 C 
ATOM     16  C   UNL     1      36.395 -22.957 -12.510  0.00  0.00    +0.017 C 
ATOM     17  C   UNL     1      37.209 -25.206 -12.762  0.00  0.00    +0.017 C 
ATOM     18  C   UNL     1      37.148 -22.873 -11.351  0.00  0.00    +0.099 C 
ATOM     19  C   UNL     1      37.926 -25.021 -11.591  0.00  0.00    +0.099 C 
ENDBRANCH  13  15
ENDBRANCH   9  13
ENDBRANCH   1  10
BRANCH   4  20
ATOM     20  O   UNL     1      35.671 -20.435 -20.010  0.00  0.00    -0.468 OA
BRANCH  20  21
ATOM     21  C   UNL     1      36.596 -19.368 -19.845  0.00  0.00    +0.264 C 
BRANCH  21  23
ATOM     22  N   UNL     1      35.740 -17.105 -19.932  0.00  0.00    -0.406 NA
ATOM     23  C   UNL     1      36.139 -18.189 -20.637  0.00  0.00    +0.152 C 
ATOM     24  C   UNL     1      35.289 -15.995 -22.022  0.00  0.00    +0.026 C 
ATOM     25  C   UNL     1      35.320 -16.022 -20.612  0.00  0.00    +0.113 C 
ATOM     26  C   UNL     1      36.143 -18.256 -22.015  0.00  0.00    +0.031 C 
ATOM     27  C   UNL     1      35.710 -17.138 -22.714  0.00  0.00    +0.005 C 
ATOM     28  C   UNL     1      34.846 -14.846 -22.700  0.00  0.00    +0.002 C 
ATOM     29  C   UNL     1      34.902 -14.885 -19.926  0.00  0.00    +0.085 C 
ATOM     30  C   UNL     1      34.432 -13.723 -21.988  0.00  0.00    -0.004 C 
ATOM     31  C   UNL     1      34.461 -13.743 -20.599  0.00  0.00    -0.019 C 
ENDBRANCH  21  23
ENDBRANCH  20  21
ENDBRANCH   4  20
TORSDOF 6
ENDMDL
MODEL 2
REMARK VINA RESULT:     -12.7      2.272     10.655
REMARK  Name = 44141871
REMARK  6 active torsions:
REMARK  status: ('A' for Active; 'I' for Inactive)
REMARK    1  A    between atoms: C_1  and  C_10
REMARK    2  A    between atoms: C_4  and  O_20
REMARK    3  A    between atoms: C_9  and  C_13
REMARK    4  A    between atoms: C_13  and  C_15
REMARK    5  A    between atoms: O_20  and  C_21
REMARK    6  A    between atoms: C_21  and  C_23
REMARK                            x       y       z     vdW  Elec       q    Type
REMARK                         _______ _______ _______ _____ _____    ______ ____
ROOT
ATOM      1  C   UNL     1      35.271 -19.046 -20.858  0.00  0.00    +0.015 C 
ATOM      2  C   UNL     1      34.177 -19.665 -20.254  0.00  0.00    +0.004 C 
ATOM      3  C   UNL     1      36.556 -19.265 -20.363  0.00  0.00    +0.004 C 
ATOM      4  C   UNL     1      35.653 -20.722 -18.661  0.00  0.00    +0.139 C 
ATOM      5  C   UNL     1      34.368 -20.503 -19.156  0.00  0.00    +0.037 C 
ATOM      6  C   UNL     1      36.747 -20.103 -19.265  0.00  0.00    +0.037 C 
ENDROOT
BRANCH   1  10
ATOM      7  N   UNL     1      34.763 -18.654 -23.235  0.00  0.00    -0.236 N 
ATOM      8  N   UNL     1      34.619 -17.692 -24.163  0.00  0.00    -0.180 NA
ATOM      9  C   UNL     1      35.137 -16.813 -22.119  0.00  0.00    +0.018 C 
ATOM     10  C   UNL     1      35.073 -18.180 -21.994  0.00  0.00    +0.063 C 
ATOM     11  C   UNL     1      34.849 -16.570 -23.476  0.00  0.00    +0.115 C 
ATOM     12  H   UNL     1      34.654 -19.612 -23.432  0.00  0.00    +0.174 HD
BRANCH   9  13
ATOM     13  C   UNL     1      35.438 -15.816 -21.077  0.00  0.00    +0.056 C 
BRANCH  13  15
ATOM     14  N   UNL     1      33.141 -12.170 -21.368  0.00  0.00    -0.242 NA
ATOM     15  C   UNL     1      34.628 -14.530 -21.180  0.00  0.00    -0.015 C 
ATOM     16  C   UNL     1      34.798 -13.684 -22.270  0.00  0.00    +0.017 C 
ATOM     17  C   UNL     1      33.716 -14.198 -20.184  0.00  0.00    +0.017 C 
ATOM     18  C   UNL     1      34.037 -12.527 -22.316  0.00  0.00    +0.099 C 
ATOM     19  C   UNL     1      33.004 -13.018 -20.324  0.00  0.00    +0.099 C 
ENDBRANCH  13  15
ENDBRANCH   9  13
ENDBRANCH   1  10
BRANCH   4  20
ATOM     20  O   UNL     1      35.842 -21.548 -17.584  0.00  0.00    -0.468 OA
BRANCH  20  21
ATOM     21  C   UNL     1      36.844 -21.166 -16.652  0.00  0.00    +0.264 C 
BRANCH  21  23
ATOM     22  N   UNL     1      37.916 -22.791 -15.212  0.00  0.00    -0.406 NA
ATOM     23  C   UNL     1      36.796 -22.078 -15.471  0.00  0.00    +0.152 C 
ATOM     24  C   UNL     1      36.778 -23.766 -13.326  0.00  0.00    +0.026 C 
ATOM     25  C   UNL     1      37.910 -23.624 -14.155  0.00  0.00    +0.113 C 
ATOM     26  C   UNL     1      35.642 -22.150 -14.719  0.00  0.00    +0.031 C 
ATOM     27  C   UNL     1      35.638 -23.010 -13.630  0.00  0.00    +0.005 C 
ATOM     28  C   UNL     1      36.808 -24.645 -12.230  0.00  0.00    +0.002 C 
ATOM     29  C   UNL     1      39.042 -24.376 -13.852  0.00  0.00    +0.085 C 
ATOM     30  C   UNL     1      37.953 -25.386 -11.950  0.00  0.00    -0.004 C 
ATOM     31  C   UNL     1      39.072 -25.250 -12.762  0.00  0.00    -0.019 C 
ENDBRANCH  21  23
ENDBRANCH  20  21
ENDBRANCH   4  20
TORSDOF 6
ENDMDL
MODEL 3
REMARK VINA RESULT:     -12.7      2.241     10.541
REMARK  Name = 44141871
REMARK  6 active torsions:
REMARK  status: ('A' for Active; 'I' for Inactive)
REMARK    1  A    between atoms: C_1  and  C_10
REMARK    2  A    between atoms: C_4  and  O_20
REMARK    3  A    between atoms: C_9  and  C_13
REMARK    4  A    between atoms: C_13  and  C_15
REMARK    5  A    between atoms: O_20  and  C_21
REMARK    6  A    between atoms: C_21  and  C_23
REMARK                            x       y       z     vdW  Elec       q    Type
REMARK                         _______ _______ _______ _____ _____    ______ ____
ROOT
ATOM      1  C   UNL     1      35.217 -17.752 -22.253  0.00  0.00    +0.015 C 
ATOM      2  C   UNL     1      36.497 -17.567 -21.731  0.00  0.00    +0.004 C 
ATOM      3  C   UNL     1      34.366 -18.703 -21.690  0.00  0.00    +0.004 C 
ATOM      4  C   UNL     1      36.074 -19.283 -20.083  0.00  0.00    +0.139 C 
ATOM      5  C   UNL     1      36.926 -18.332 -20.646  0.00  0.00    +0.037 C 
ATOM      6  C   UNL     1      34.794 -19.468 -20.605  0.00  0.00    +0.037 C 
ENDROOT
BRANCH   1  10
ATOM      7  N   UNL     1      34.233 -17.515 -24.496  0.00  0.00    -0.236 N 
ATOM      8  N   UNL     1      33.883 -16.615 -25.432  0.00  0.00    -0.180 NA
ATOM      9  C   UNL     1      34.782 -15.604 -23.590  0.00  0.00    +0.018 C 
ATOM     10  C   UNL     1      34.775 -16.961 -23.374  0.00  0.00    +0.063 C 
ATOM     11  C   UNL     1      34.220 -15.449 -24.873  0.00  0.00    +0.115 C 
ATOM     12  H   UNL     1      34.108 -18.485 -24.611  0.00  0.00    +0.174 HD
BRANCH   9  13
ATOM     13  C   UNL     1      35.263 -14.541 -22.692  0.00  0.00    +0.056 C 
BRANCH  13  15
ATOM     14  N   UNL     1      32.180 -12.662 -20.323  0.00  0.00    -0.242 NA
ATOM     15  C   UNL     1      34.176 -13.878 -21.856  0.00  0.00    -0.015 C 
ATOM     16  C   UNL     1      34.003 -14.238 -20.524  0.00  0.00    +0.017 C 
ATOM     17  C   UNL     1      33.353 -12.911 -22.422  0.00  0.00    +0.017 C 
ATOM     18  C   UNL     1      32.999 -13.606 -19.808  0.00  0.00    +0.099 C 
ATOM     19  C   UNL     1      32.379 -12.338 -21.620  0.00  0.00    +0.099 C 
ENDBRANCH  13  15
ENDBRANCH   9  13
ENDBRANCH   1  10
BRANCH   4  20
ATOM     20  O   UNL     1      36.493 -20.032 -19.015  0.00  0.00    -0.468 OA
BRANCH  20  21
ATOM     21  C   UNL     1      35.686 -21.146 -18.658  0.00  0.00    +0.264 C 
BRANCH  21  23
ATOM     22  N   UNL     1      34.989 -22.197 -16.591  0.00  0.00    -0.406 NA
ATOM     23  C   UNL     1      35.969 -21.530 -17.244  0.00  0.00    +0.152 C 
ATOM     24  C   UNL     1      36.418 -22.264 -14.653  0.00  0.00    +0.026 C 
ATOM     25  C   UNL     1      35.208 -22.560 -15.314  0.00  0.00    +0.113 C 
ATOM     26  C   UNL     1      37.184 -21.196 -16.682  0.00  0.00    +0.031 C 
ATOM     27  C   UNL     1      37.406 -21.571 -15.365  0.00  0.00    +0.005 C 
ATOM     28  C   UNL     1      36.612 -22.659 -13.318  0.00  0.00    +0.002 C 
ATOM     29  C   UNL     1      34.226 -23.248 -14.606  0.00  0.00    +0.085 C 
ATOM     30  C   UNL     1      35.613 -23.345 -12.634  0.00  0.00    -0.004 C 
ATOM     31  C   UNL     1      34.419 -23.641 -13.279  0.00  0.00    -0.019 C 
ENDBRANCH  21  23
ENDBRANCH  20  21
ENDBRANCH   4  20
TORSDOF 6
ENDMDL
MODEL 4
REMARK VINA RESULT:     -12.5      1.842      3.774
REMARK  Name = 44141871
REMARK  6 active torsions:
REMARK  status: ('A' for Active; 'I' for Inactive)
REMARK    1  A    between atoms: C_1  and  C_10
REMARK    2  A    between atoms: C_4  and  O_20
REMARK    3  A    between atoms: C_9  and  C_13
REMARK    4  A    between atoms: C_13  and  C_15
REMARK    5  A    between atoms: O_20  and  C_21
REMARK    6  A    between atoms: C_21  and  C_23
REMARK                            x       y       z     vdW  Elec       q    Type
REMARK                         _______ _______ _______ _____ _____    ______ ____
ROOT
ATOM      1  C   UNL     1      34.893 -22.204 -16.428  0.00  0.00    +0.015 C 
ATOM      2  C   UNL     1      33.793 -22.135 -17.283  0.00  0.00    +0.004 C 
ATOM      3  C   UNL     1      36.092 -21.586 -16.783  0.00  0.00    +0.004 C 
ATOM      4  C   UNL     1      35.091 -20.828 -18.848  0.00  0.00    +0.139 C 
ATOM      5  C   UNL     1      33.892 -21.447 -18.492  0.00  0.00    +0.037 C 
ATOM      6  C   UNL     1      36.191 -20.898 -17.992  0.00  0.00    +0.037 C 
ENDROOT
BRANCH   1  10
ATOM      7  N   UNL     1      35.738 -23.801 -14.756  0.00  0.00    -0.236 N 
ATOM      8  N   UNL     1      35.464 -24.363 -13.566  0.00  0.00    -0.180 NA
ATOM      9  C   UNL     1      33.829 -22.896 -14.196  0.00  0.00    +0.018 C 
ATOM     10  C   UNL     1      34.791 -22.915 -15.177  0.00  0.00    +0.063 C 
ATOM     11  C   UNL     1      34.297 -23.807 -13.228  0.00  0.00    +0.115 C 
ATOM     12  H   UNL     1      36.548 -24.009 -15.275  0.00  0.00    +0.174 HD
BRANCH   9  13
ATOM     13  C   UNL     1      32.587 -22.107 -14.153  0.00  0.00    +0.056 C 
BRANCH  13  15
ATOM     14  N   UNL     1      29.044 -24.278 -15.330  0.00  0.00    -0.242 NA
ATOM     15  C   UNL     1      31.337 -22.873 -14.568  0.00  0.00    -0.015 C 
ATOM     16  C   UNL     1      31.074 -24.125 -14.024  0.00  0.00    +0.017 C 
ATOM     17  C   UNL     1      30.456 -22.322 -15.491  0.00  0.00    +0.017 C 
ATOM     18  C   UNL     1      29.924 -24.781 -14.435  0.00  0.00    +0.099 C 
ATOM     19  C   UNL     1      29.333 -23.058 -15.836  0.00  0.00    +0.099 C 
ENDBRANCH  13  15
ENDBRANCH   9  13
ENDBRANCH   1  10
BRANCH   4  20
ATOM     20  O   UNL     1      35.187 -20.150 -20.033  0.00  0.00    -0.468 OA
BRANCH  20  21
ATOM     21  C   UNL     1      36.329 -19.321 -20.207  0.00  0.00    +0.264 C 
BRANCH  21  23
ATOM     22  N   UNL     1      35.606 -17.012 -20.146  0.00  0.00    -0.406 NA
ATOM     23  C   UNL     1      35.931 -18.072 -20.920  0.00  0.00    +0.152 C 
ATOM     24  C   UNL     1      35.194 -15.754 -22.158  0.00  0.00    +0.026 C 
ATOM     25  C   UNL     1      35.242 -15.867 -20.754  0.00  0.00    +0.113 C 
ATOM     26  C   UNL     1      35.913 -18.057 -22.300  0.00  0.00    +0.031 C 
ATOM     27  C   UNL     1      35.537 -16.876 -22.924  0.00  0.00    +0.005 C 
ATOM     28  C   UNL     1      34.809 -14.543 -22.759  0.00  0.00    +0.002 C 
ATOM     29  C   UNL     1      34.900 -14.751 -19.994  0.00  0.00    +0.085 C 
ATOM     30  C   UNL     1      34.472 -13.443 -21.976  0.00  0.00    -0.004 C 
ATOM     31  C   UNL     1      34.518 -13.547 -20.591  0.00  0.00    -0.019 C 
ENDBRANCH  21  23
ENDBRANCH  20  21
ENDBRANCH   4  20
TORSDOF 6
ENDMDL
MODEL 5
REMARK VINA RESULT:     -12.4      2.458     10.352
REMARK  Name = 44141871
REMARK  6 active torsions:
REMARK  status: ('A' for Active; 'I' for Inactive)
REMARK    1  A    between atoms: C_1  and  C_10
REMARK    2  A    between atoms: C_4  and  O_20
REMARK    3  A    between atoms: C_9  and  C_13
REMARK    4  A    between atoms: C_13  and  C_15
REMARK    5  A    between atoms: O_20  and  C_21
REMARK    6  A    between atoms: C_21  and  C_23
REMARK                            x       y       z     vdW  Elec       q    Type
REMARK                         _______ _______ _______ _____ _____    ______ ____
ROOT
ATOM      1  C   UNL     1      35.145 -17.715 -22.264  0.00  0.00    +0.015 C 
ATOM      2  C   UNL     1      34.271 -18.613 -21.651  0.00  0.00    +0.004 C 
ATOM      3  C   UNL     1      36.429 -17.532 -21.750  0.00  0.00    +0.004 C 
ATOM      4  C   UNL     1      35.964 -19.143 -20.011  0.00  0.00    +0.139 C 
ATOM      5  C   UNL     1      34.681 -19.327 -20.526  0.00  0.00    +0.037 C 
ATOM      6  C   UNL     1      36.839 -18.246 -20.624  0.00  0.00    +0.037 C 
ENDROOT
BRANCH   1  10
ATOM      7  N   UNL     1      34.167 -17.580 -24.519  0.00  0.00    -0.236 N 
ATOM      8  N   UNL     1      33.839 -16.726 -25.504  0.00  0.00    -0.180 NA
ATOM      9  C   UNL     1      34.760 -15.635 -23.719  0.00  0.00    +0.018 C 
ATOM     10  C   UNL     1      34.722 -16.977 -23.429  0.00  0.00    +0.063 C 
ATOM     11  C   UNL     1      34.203 -15.539 -25.010  0.00  0.00    +0.115 C 
ATOM     12  H   UNL     1      34.021 -18.552 -24.580  0.00  0.00    +0.174 HD
BRANCH   9  13
ATOM     13  C   UNL     1      35.265 -14.535 -22.881  0.00  0.00    +0.056 C 
BRANCH  13  15
ATOM     14  N   UNL     1      32.272 -12.642 -20.409  0.00  0.00    -0.242 NA
ATOM     15  C   UNL     1      34.209 -13.868 -22.009  0.00  0.00    -0.015 C 
ATOM     16  C   UNL     1      33.345 -12.927 -22.558  0.00  0.00    +0.017 C 
ATOM     17  C   UNL     1      34.106 -14.196 -20.663  0.00  0.00    +0.017 C 
ATOM     18  C   UNL     1      32.403 -12.348 -21.723  0.00  0.00    +0.099 C 
ATOM     19  C   UNL     1      33.130 -13.561 -19.912  0.00  0.00    +0.099 C 
ENDBRANCH  13  15
ENDBRANCH   9  13
ENDBRANCH   1  10
BRANCH   4  20
ATOM     20  O   UNL     1      36.368 -19.847 -18.908  0.00  0.00    -0.468 OA
BRANCH  20  21
ATOM     21  C   UNL     1      36.214 -21.259 -18.957  0.00  0.00    +0.264 C 
BRANCH  21  23
ATOM     22  N   UNL     1      35.704 -22.057 -16.729  0.00  0.00    -0.406 NA
ATOM     23  C   UNL     1      35.214 -21.685 -17.934  0.00  0.00    +0.152 C 
ATOM     24  C   UNL     1      33.442 -22.477 -16.014  0.00  0.00    +0.026 C 
ATOM     25  C   UNL     1      34.832 -22.448 -15.781  0.00  0.00    +0.113 C 
ATOM     26  C   UNL     1      33.873 -21.681 -18.256  0.00  0.00    +0.031 C 
ATOM     27  C   UNL     1      32.977 -22.084 -17.276  0.00  0.00    +0.005 C 
ATOM     28  C   UNL     1      32.561 -22.890 -15.000  0.00  0.00    +0.002 C 
ATOM     29  C   UNL     1      35.294 -22.838 -14.526  0.00  0.00    +0.085 C 
ATOM     30  C   UNL     1      33.050 -23.276 -13.756  0.00  0.00    -0.004 C 
ATOM     31  C   UNL     1      34.418 -23.249 -13.518  0.00  0.00    -0.019 C 
ENDBRANCH  21  23
ENDBRANCH  20  21
ENDBRANCH   4  20
TORSDOF 6
ENDMDL
MODEL 6
REMARK VINA RESULT:     -12.3      2.776      4.775
REMARK  Name = 44141871
REMARK  6 active torsions:
REMARK  status: ('A' for Active; 'I' for Inactive)
REMARK    1  A    between atoms: C_1  and  C_10
REMARK    2  A    between atoms: C_4  and  O_20
REMARK    3  A    between atoms: C_9  and  C_13
REMARK    4  A    between atoms: C_13  and  C_15
REMARK    5  A    between atoms: O_20  and  C_21
REMARK    6  A    between atoms: C_21  and  C_23
REMARK                            x       y       z     vdW  Elec       q    Type
REMARK                         _______ _______ _______ _____ _____    ______ ____
ROOT
ATOM      1  C   UNL     1      37.613 -23.940 -14.845  0.00  0.00    +0.015 C 
ATOM      2  C   UNL     1      36.422 -24.665 -14.800  0.00  0.00    +0.004 C 
ATOM      3  C   UNL     1      37.599 -22.601 -15.237  0.00  0.00    +0.004 C 
ATOM      4  C   UNL     1      35.204 -22.712 -15.537  0.00  0.00    +0.139 C 
ATOM      5  C   UNL     1      35.218 -24.051 -15.145  0.00  0.00    +0.037 C 
ATOM      6  C   UNL     1      36.395 -21.987 -15.582  0.00  0.00    +0.037 C 
ENDROOT
BRANCH   1  10
ATOM      7  N   UNL     1      39.944 -24.576 -15.311  0.00  0.00    -0.236 N 
ATOM      8  N   UNL     1      41.010 -25.220 -14.802  0.00  0.00    -0.180 NA
ATOM      9  C   UNL     1      39.236 -25.266 -13.363  0.00  0.00    +0.018 C 
ATOM     10  C   UNL     1      38.857 -24.575 -14.488  0.00  0.00    +0.063 C 
ATOM     11  C   UNL     1      40.571 -25.639 -13.612  0.00  0.00    +0.115 C 
ATOM     12  H   UNL     1      39.950 -24.145 -16.196  0.00  0.00    +0.174 HD
BRANCH   9  13
ATOM     13  C   UNL     1      38.436 -25.559 -12.161  0.00  0.00    +0.056 C 
BRANCH  13  15
ATOM     14  N   UNL     1      36.829 -22.071 -10.184  0.00  0.00    -0.242 NA
ATOM     15  C   UNL     1      37.870 -24.329 -11.463  0.00  0.00    -0.015 C 
ATOM     16  C   UNL     1      36.652 -24.405 -10.795  0.00  0.00    +0.017 C 
ATOM     17  C   UNL     1      38.567 -23.126 -11.492  0.00  0.00    +0.017 C 
ATOM     18  C   UNL     1      36.180 -23.258 -10.178  0.00  0.00    +0.099 C 
ATOM     19  C   UNL     1      38.009 -22.037 -10.843  0.00  0.00    +0.099 C 
ENDBRANCH  13  15
ENDBRANCH   9  13
ENDBRANCH   1  10
BRANCH   4  20
ATOM     20  O   UNL     1      34.022 -22.108 -15.872  0.00  0.00    -0.468 OA
BRANCH  20  21
ATOM     21  C   UNL     1      33.445 -22.477 -17.118  0.00  0.00    +0.264 C 
BRANCH  21  23
ATOM     22  N   UNL     1      35.085 -21.174 -18.333  0.00  0.00    -0.406 NA
ATOM     23  C   UNL     1      33.773 -21.442 -18.142  0.00  0.00    +0.152 C 
ATOM     24  C   UNL     1      34.445 -19.558 -20.000  0.00  0.00    +0.026 C 
ATOM     25  C   UNL     1      35.419 -20.246 -19.248  0.00  0.00    +0.113 C 
ATOM     26  C   UNL     1      32.749 -20.821 -18.829  0.00  0.00    +0.031 C 
ATOM     27  C   UNL     1      33.097 -19.864 -19.772  0.00  0.00    +0.005 C 
ATOM     28  C   UNL     1      34.830 -18.594 -20.948  0.00  0.00    +0.002 C 
ATOM     29  C   UNL     1      36.759 -19.940 -19.476  0.00  0.00    +0.085 C 
ATOM     30  C   UNL     1      36.177 -18.308 -21.155  0.00  0.00    -0.004 C 
ATOM     31  C   UNL     1      37.142 -18.983 -20.418  0.00  0.00    -0.019 C 
ENDBRANCH  21  23
ENDBRANCH  20  21
ENDBRANCH   4  20
TORSDOF 6
ENDMDL
MODEL 7
REMARK VINA RESULT:     -12.3      2.569      4.307
REMARK  Name = 44141871
REMARK  6 active torsions:
REMARK  status: ('A' for Active; 'I' for Inactive)
REMARK    1  A    between atoms: C_1  and  C_10
REMARK    2  A    between atoms: C_4  and  O_20
REMARK    3  A    between atoms: C_9  and  C_13
REMARK    4  A    between atoms: C_13  and  C_15
REMARK    5  A    between atoms: O_20  and  C_21
REMARK    6  A    between atoms: C_21  and  C_23
REMARK                            x       y       z     vdW  Elec       q    Type
REMARK                         _______ _______ _______ _____ _____    ______ ____
ROOT
ATOM      1  C   UNL     1      34.987 -23.102 -12.951  0.00  0.00    +0.015 C 
ATOM      2  C   UNL     1      33.656 -23.476 -13.132  0.00  0.00    +0.004 C 
ATOM      3  C   UNL     1      35.696 -22.520 -14.001  0.00  0.00    +0.004 C 
ATOM      4  C   UNL     1      33.743 -22.685 -15.413  0.00  0.00    +0.139 C 
ATOM      5  C   UNL     1      33.034 -23.267 -14.363  0.00  0.00    +0.037 C 
ATOM      6  C   UNL     1      35.074 -22.311 -15.232  0.00  0.00    +0.037 C 
ENDROOT
BRANCH   1  10
ATOM      7  N   UNL     1      34.934 -23.635 -10.548  0.00  0.00    -0.236 N 
ATOM      8  N   UNL     1      35.709 -23.795  -9.461  0.00  0.00    -0.180 NA
ATOM      9  C   UNL     1      36.951 -23.266 -11.305  0.00  0.00    +0.018 C 
ATOM     10  C   UNL     1      35.629 -23.318 -11.678  0.00  0.00    +0.063 C 
ATOM     11  C   UNL     1      36.939 -23.568  -9.929  0.00  0.00    +0.115 C 
ATOM     12  H   UNL     1      33.955 -23.738 -10.530  0.00  0.00    +0.174 HD
BRANCH   9  13
ATOM     13  C   UNL     1      38.123 -22.963 -12.143  0.00  0.00    +0.056 C 
BRANCH  13  15
ATOM     14  N   UNL     1      39.860 -26.395 -14.106  0.00  0.00    -0.242 NA
ATOM     15  C   UNL     1      38.735 -24.173 -12.835  0.00  0.00    -0.015 C 
ATOM     16  C   UNL     1      40.087 -24.180 -13.162  0.00  0.00    +0.017 C 
ATOM     17  C   UNL     1      37.946 -25.275 -13.142  0.00  0.00    +0.017 C 
ATOM     18  C   UNL     1      40.595 -25.305 -13.791  0.00  0.00    +0.099 C 
ATOM     19  C   UNL     1      38.550 -26.352 -13.772  0.00  0.00    +0.099 C 
ENDBRANCH  13  15
ENDBRANCH   9  13
ENDBRANCH   1  10
BRANCH   4  20
ATOM     20  O   UNL     1      33.132 -22.477 -16.621  0.00  0.00    -0.468 OA
BRANCH  20  21
ATOM     21  C   UNL     1      33.870 -22.832 -17.783  0.00  0.00    +0.264 C 
BRANCH  21  23
ATOM     22  N   UNL     1      35.401 -21.237 -18.769  0.00  0.00    -0.406 NA
ATOM     23  C   UNL     1      34.112 -21.612 -18.609  0.00  0.00    +0.152 C 
ATOM     24  C   UNL     1      34.628 -19.390 -20.108  0.00  0.00    +0.026 C 
ATOM     25  C   UNL     1      35.659 -20.142 -19.507  0.00  0.00    +0.113 C 
ATOM     26  C   UNL     1      33.037 -20.941 -19.155  0.00  0.00    +0.031 C 
ATOM     27  C   UNL     1      33.305 -19.812 -19.916  0.00  0.00    +0.005 C 
ATOM     28  C   UNL     1      34.933 -18.251 -20.873  0.00  0.00    +0.002 C 
ATOM     29  C   UNL     1      36.972 -19.721 -19.698  0.00  0.00    +0.085 C 
ATOM     30  C   UNL     1      36.255 -17.853 -21.046  0.00  0.00    -0.004 C 
ATOM     31  C   UNL     1      37.276 -18.589 -20.459  0.00  0.00    -0.019 C 
ENDBRANCH  21  23
ENDBRANCH  20  21
ENDBRANCH   4  20
TORSDOF 6
ENDMDL
MODEL 8
REMARK VINA RESULT:     -12.2      1.339      2.183
REMARK  Name = 44141871
REMARK  6 active torsions:
REMARK  status: ('A' for Active; 'I' for Inactive)
REMARK    1  A    between atoms: C_1  and  C_10
REMARK    2  A    between atoms: C_4  and  O_20
REMARK    3  A    between atoms: C_9  and  C_13
REMARK    4  A    between atoms: C_13  and  C_15
REMARK    5  A    between atoms: O_20  and  C_21
REMARK    6  A    between atoms: C_21  and  C_23
REMARK                            x       y       z     vdW  Elec       q    Type
REMARK                         _______ _______ _______ _____ _____    ______ ____
ROOT
ATOM      1  C   UNL     1      34.248 -21.623 -17.551  0.00  0.00    +0.015 C 
ATOM      2  C   UNL     1      33.314 -21.044 -18.410  0.00  0.00    +0.004 C 
ATOM      3  C   UNL     1      35.612 -21.467 -17.797  0.00  0.00    +0.004 C 
ATOM      4  C   UNL     1      35.109 -20.153 -19.761  0.00  0.00    +0.139 C 
ATOM      5  C   UNL     1      33.744 -20.309 -19.515  0.00  0.00    +0.037 C 
ATOM      6  C   UNL     1      36.042 -20.732 -18.902  0.00  0.00    +0.037 C 
ENDROOT
BRANCH   1  10
ATOM      7  N   UNL     1      32.506 -22.768 -16.243  0.00  0.00    -0.236 N 
ATOM      8  N   UNL     1      32.286 -23.467 -15.116  0.00  0.00    -0.180 NA
ATOM      9  C   UNL     1      34.480 -22.860 -15.313  0.00  0.00    +0.018 C 
ATOM     10  C   UNL     1      33.803 -22.382 -16.409  0.00  0.00    +0.063 C 
ATOM     11  C   UNL     1      33.496 -23.520 -14.552  0.00  0.00    +0.115 C 
ATOM     12  H   UNL     1      31.795 -22.556 -16.890  0.00  0.00    +0.174 HD
BRANCH   9  13
ATOM     13  C   UNL     1      35.912 -22.721 -14.995  0.00  0.00    +0.056 C 
BRANCH  13  15
ATOM     14  N   UNL     1      37.451 -25.732 -12.309  0.00  0.00    -0.242 NA
ATOM     15  C   UNL     1      36.454 -23.783 -14.047  0.00  0.00    -0.015 C 
ATOM     16  C   UNL     1      36.807 -25.038 -14.534  0.00  0.00    +0.017 C 
ATOM     17  C   UNL     1      36.600 -23.503 -12.694  0.00  0.00    +0.017 C 
ATOM     18  C   UNL     1      37.295 -25.968 -13.631  0.00  0.00    +0.099 C 
ATOM     19  C   UNL     1      37.098 -24.502 -11.874  0.00  0.00    +0.099 C 
ENDBRANCH  13  15
ENDBRANCH   9  13
ENDBRANCH   1  10
BRANCH   4  20
ATOM     20  O   UNL     1      35.531 -19.429 -20.844  0.00  0.00    -0.468 OA
BRANCH  20  21
ATOM     21  C   UNL     1      36.353 -18.300 -20.578  0.00  0.00    +0.264 C 
BRANCH  21  23
ATOM     22  N   UNL     1      35.522 -17.106 -22.513  0.00  0.00    -0.406 NA
ATOM     23  C   UNL     1      35.732 -17.082 -21.177  0.00  0.00    +0.152 C 
ATOM     24  C   UNL     1      34.600 -14.887 -22.341  0.00  0.00    +0.026 C 
ATOM     25  C   UNL     1      34.963 -16.026 -23.090  0.00  0.00    +0.113 C 
ATOM     26  C   UNL     1      35.412 -16.015 -20.363  0.00  0.00    +0.031 C 
ATOM     27  C   UNL     1      34.836 -14.903 -20.960  0.00  0.00    +0.005 C 
ATOM     28  C   UNL     1      34.019 -13.777 -22.976  0.00  0.00    +0.002 C 
ATOM     29  C   UNL     1      34.729 -16.010 -24.462  0.00  0.00    +0.085 C 
ATOM     30  C   UNL     1      33.796 -13.787 -24.350  0.00  0.00    -0.004 C 
ATOM     31  C   UNL     1      34.150 -14.905 -25.094  0.00  0.00    -0.019 C 
ENDBRANCH  21  23
ENDBRANCH  20  21
ENDBRANCH   4  20
TORSDOF 6
ENDMDL
MODEL 9
REMARK VINA RESULT:     -12.2      4.718     12.472
REMARK  Name = 44141871
REMARK  6 active torsions:
REMARK  status: ('A' for Active; 'I' for Inactive)
REMARK    1  A    between atoms: C_1  and  C_10
REMARK    2  A    between atoms: C_4  and  O_20
REMARK    3  A    between atoms: C_9  and  C_13
REMARK    4  A    between atoms: C_13  and  C_15
REMARK    5  A    between atoms: O_20  and  C_21
REMARK    6  A    between atoms: C_21  and  C_23
REMARK                            x       y       z     vdW  Elec       q    Type
REMARK                         _______ _______ _______ _____ _____    ______ ____
ROOT
ATOM      1  C   UNL     1      33.180 -12.722 -21.415  0.00  0.00    +0.015 C 
ATOM      2  C   UNL     1      33.330 -13.068 -22.758  0.00  0.00    +0.004 C 
ATOM      3  C   UNL     1      33.912 -13.395 -20.437  0.00  0.00    +0.004 C 
ATOM      4  C   UNL     1      34.946 -14.757 -22.143  0.00  0.00    +0.139 C 
ATOM      5  C   UNL     1      34.213 -14.085 -23.122  0.00  0.00    +0.037 C 
ATOM      6  C   UNL     1      34.795 -14.411 -20.801  0.00  0.00    +0.037 C 
ENDROOT
BRANCH   1  10
ATOM      7  N   UNL     1      31.290 -11.846 -20.105  0.00  0.00    -0.236 N 
ATOM      8  N   UNL     1      30.539 -10.750 -19.892  0.00  0.00    -0.180 NA
ATOM      9  C   UNL     1      32.149 -10.372 -21.470  0.00  0.00    +0.018 C 
ATOM     10  C   UNL     1      32.267 -11.671 -21.039  0.00  0.00    +0.063 C 
ATOM     11  C   UNL     1      31.069  -9.853 -20.729  0.00  0.00    +0.115 C 
ATOM     12  H   UNL     1      31.147 -12.695 -19.628  0.00  0.00    +0.174 HD
BRANCH   9  13
ATOM     13  C   UNL     1      32.960  -9.668 -22.477  0.00  0.00    +0.056 C 
BRANCH  13  15
ATOM     14  N   UNL     1      32.381  -5.389 -22.577  0.00  0.00    -0.242 NA
ATOM     15  C   UNL     1      32.756  -8.159 -22.512  0.00  0.00    -0.015 C 
ATOM     16  C   UNL     1      32.143  -7.563 -23.610  0.00  0.00    +0.017 C 
ATOM     17  C   UNL     1      33.180  -7.372 -21.448  0.00  0.00    +0.017 C 
ATOM     18  C   UNL     1      31.981  -6.187 -23.593  0.00  0.00    +0.099 C 
ATOM     19  C   UNL     1      32.972  -6.005 -21.528  0.00  0.00    +0.099 C 
ENDBRANCH  13  15
ENDBRANCH   9  13
ENDBRANCH   1  10
BRANCH   4  20
ATOM     20  O   UNL     1      35.815 -15.752 -22.501  0.00  0.00    -0.468 OA
BRANCH  20  21
ATOM     21  C   UNL     1      35.246 -17.013 -22.829  0.00  0.00    +0.264 C 
BRANCH  21  23
ATOM     22  N   UNL     1      34.419 -18.678 -21.278  0.00  0.00    -0.406 NA
ATOM     23  C   UNL     1      35.489 -17.973 -21.712  0.00  0.00    +0.152 C 
ATOM     24  C   UNL     1      35.860 -19.747 -19.670  0.00  0.00    +0.026 C 
ATOM     25  C   UNL     1      34.599 -19.553 -20.271  0.00  0.00    +0.113 C 
ATOM     26  C   UNL     1      36.759 -18.092 -21.187  0.00  0.00    +0.031 C 
ATOM     27  C   UNL     1      36.942 -18.995 -20.149  0.00  0.00    +0.005 C 
ATOM     28  C   UNL     1      36.012 -20.670 -18.621  0.00  0.00    +0.002 C 
ATOM     29  C   UNL     1      33.525 -20.300 -19.794  0.00  0.00    +0.085 C 
ATOM     30  C   UNL     1      34.921 -21.403 -18.164  0.00  0.00    -0.004 C 
ATOM     31  C   UNL     1      33.676 -21.218 -18.752  0.00  0.00    -0.019 C 
ENDBRANCH  21  23
ENDBRANCH  20  21
ENDBRANCH   4  20
TORSDOF 6
ENDMDL
