MODEL 1
REMARK VINA RESULT:     -12.0      0.000      0.000
REMARK  Name = 9865515
REMARK  6 active torsions:
REMARK  status: ('A' for Active; 'I' for Inactive)
REMARK    1  A    between atoms: C_1  and  C_20
REMARK    2  A    between atoms: C_2  and  C_9
REMARK    3  A    between atoms: N_8  and  C_11
REMARK    4  A    between atoms: C_12  and  N_17
REMARK    5  A    between atoms: C_20  and  N_21
REMARK    6  A    between atoms: C_25  and  C_30
REMARK                            x       y       z     vdW  Elec       q    Type
REMARK                         _______ _______ _______ _____ _____    ______ ____
ROOT
ATOM      1  C   UNL     1      34.582 -21.617 -18.713  0.00  0.00    -0.002 C 
ATOM      2  C   UNL     1      35.299 -19.231 -19.967  0.00  0.00    +0.054 C 
ATOM      3  C   UNL     1      33.603 -20.815 -19.299  0.00  0.00    -0.002 C 
ATOM      4  C   UNL     1      35.920 -21.226 -18.754  0.00  0.00    -0.002 C 
ATOM      5  C   UNL     1      33.961 -19.622 -19.926  0.00  0.00    +0.004 C 
ATOM      6  C   UNL     1      36.279 -20.033 -19.381  0.00  0.00    +0.004 C 
ENDROOT
BRANCH   2   9
ATOM      7  O   UNL     1      36.800 -17.887 -21.131  0.00  0.00    -0.270 OA
ATOM      8  N   UNL     1      34.692 -16.985 -20.634  0.00  0.00    -0.279 N 
ATOM      9  C   UNL     1      35.673 -17.985 -20.619  0.00  0.00    +0.250 C 
ATOM     10  H   UNL     1      33.845 -17.209 -20.185  0.00  0.00    +0.155 HD
BRANCH   8  11
ATOM     11  C   UNL     1      34.760 -15.692 -21.210  0.00  0.00    +0.064 C 
ATOM     12  C   UNL     1      34.937 -15.544 -22.576  0.00  0.00    +0.055 C 
ATOM     13  C   UNL     1      34.648 -14.593 -20.375  0.00  0.00    +0.016 C 
ATOM     14  C   UNL     1      35.002 -14.262 -23.122  0.00  0.00    +0.015 C 
ATOM     15  C   UNL     1      34.713 -13.311 -20.920  0.00  0.00    +0.001 C 
ATOM     16  C   UNL     1      34.890 -13.145 -22.293  0.00  0.00    +0.001 C 
BRANCH  12  17
ATOM     17  N   UNL     1      35.051 -16.661 -23.434  0.00  0.00    -0.356 N 
ATOM     18  H   UNL     1      34.317 -16.886 -24.050  0.00  0.00    +0.142 HD
ATOM     19  H   UNL     1      35.865 -17.214 -23.416  0.00  0.00    +0.142 HD
ENDBRANCH  12  17
ENDBRANCH   8  11
ENDBRANCH   2   9
BRANCH   1  20
ATOM     20  C   UNL     1      34.199 -22.894 -18.043  0.00  0.00    +0.124 C 
BRANCH  20  21
ATOM     21  N   UNL     1      33.357 -22.643 -16.893  0.00  0.00    -0.264 N 
ATOM     22  N   UNL     1      34.942 -23.523 -15.403  0.00  0.00    -0.338 NA
ATOM     23  N   UNL     1      32.838 -22.663 -14.605  0.00  0.00    -0.170 NA
ATOM     24  C   UNL     1      33.724 -22.952 -15.595  0.00  0.00    +0.145 C 
ATOM     25  C   UNL     1      35.267 -23.811 -14.126  0.00  0.00    +0.147 C 
ATOM     26  C   UNL     1      34.441 -23.558 -13.049  0.00  0.00    +0.055 C 
ATOM     27  C   UNL     1      33.226 -22.977 -13.352  0.00  0.00    +0.114 C 
ATOM     28  H   UNL     1      32.477 -22.229 -17.043  0.00  0.00    +0.160 HD
BRANCH  25  30
ATOM     29  N   UNL     1      38.130 -26.161 -14.531  0.00  0.00    -0.242 NA
ATOM     30  C   UNL     1      36.565 -24.416 -13.944  0.00  0.00    +0.050 C 
ATOM     31  C   UNL     1      37.486 -23.882 -13.047  0.00  0.00    +0.006 C 
ATOM     32  C   UNL     1      36.933 -25.546 -14.655  0.00  0.00    +0.101 C 
ATOM     33  C   UNL     1      38.728 -24.487 -12.892  0.00  0.00    +0.021 C 
ATOM     34  C   UNL     1      38.999 -25.615 -13.651  0.00  0.00    +0.099 C 
ENDBRANCH  25  30
ENDBRANCH  20  21
ENDBRANCH   1  20
TORSDOF 6
ENDMDL
MODEL 2
REMARK VINA RESULT:     -11.8      3.309     10.975
REMARK  Name = 9865515
REMARK  6 active torsions:
REMARK  status: ('A' for Active; 'I' for Inactive)
REMARK    1  A    between atoms: C_1  and  C_20
REMARK    2  A    between atoms: C_2  and  C_9
REMARK    3  A    between atoms: N_8  and  C_11
REMARK    4  A    between atoms: C_12  and  N_17
REMARK    5  A    between atoms: C_20  and  N_21
REMARK    6  A    between atoms: C_25  and  C_30
REMARK                            x       y       z     vdW  Elec       q    Type
REMARK                         _______ _______ _______ _____ _____    ______ ____
ROOT
ATOM      1  C   UNL     1      34.912 -19.536 -20.076  0.00  0.00    -0.002 C 
ATOM      2  C   UNL     1      33.952 -21.431 -18.269  0.00  0.00    +0.054 C 
ATOM      3  C   UNL     1      35.805 -20.337 -19.365  0.00  0.00    -0.002 C 
ATOM      4  C   UNL     1      33.539 -19.683 -19.884  0.00  0.00    -0.002 C 
ATOM      5  C   UNL     1      35.326 -21.284 -18.461  0.00  0.00    +0.004 C 
ATOM      6  C   UNL     1      33.059 -20.631 -18.981  0.00  0.00    +0.004 C 
ENDROOT
BRANCH   2   9
ATOM      7  O   UNL     1      34.004 -23.528 -17.262  0.00  0.00    -0.270 OA
ATOM      8  N   UNL     1      32.374 -22.009 -16.527  0.00  0.00    -0.279 N 
ATOM      9  C   UNL     1      33.452 -22.418 -17.324  0.00  0.00    +0.250 C 
ATOM     10  H   UNL     1      32.041 -21.098 -16.692  0.00  0.00    +0.155 HD
BRANCH   8  11
ATOM     11  C   UNL     1      31.702 -22.737 -15.514  0.00  0.00    +0.064 C 
ATOM     12  C   UNL     1      30.320 -22.836 -15.525  0.00  0.00    +0.055 C 
ATOM     13  C   UNL     1      32.460 -23.339 -14.523  0.00  0.00    +0.016 C 
ATOM     14  C   UNL     1      29.680 -23.558 -14.516  0.00  0.00    +0.015 C 
ATOM     15  C   UNL     1      31.820 -24.060 -13.516  0.00  0.00    +0.001 C 
ATOM     16  C   UNL     1      30.430 -24.170 -13.512  0.00  0.00    +0.001 C 
BRANCH  12  17
ATOM     17  N   UNL     1      29.541 -22.227 -16.532  0.00  0.00    -0.356 N 
ATOM     18  H   UNL     1      29.584 -22.560 -17.457  0.00  0.00    +0.142 HD
ATOM     19  H   UNL     1      28.954 -21.468 -16.310  0.00  0.00    +0.142 HD
ENDBRANCH  12  17
ENDBRANCH   8  11
ENDBRANCH   2   9
BRANCH   1  20
ATOM     20  C   UNL     1      35.425 -18.523 -21.045  0.00  0.00    +0.124 C 
BRANCH  20  21
ATOM     21  N   UNL     1      34.990 -18.829 -22.391  0.00  0.00    -0.264 N 
ATOM     22  N   UNL     1      34.594 -16.571 -22.894  0.00  0.00    -0.338 NA
ATOM     23  N   UNL     1      34.198 -18.292 -24.533  0.00  0.00    -0.170 NA
ATOM     24  C   UNL     1      34.582 -17.868 -23.299  0.00  0.00    +0.145 C 
ATOM     25  C   UNL     1      34.190 -15.662 -23.804  0.00  0.00    +0.147 C 
ATOM     26  C   UNL     1      33.781 -15.985 -25.082  0.00  0.00    +0.055 C 
ATOM     27  C   UNL     1      33.806 -17.329 -25.394  0.00  0.00    +0.114 C 
ATOM     28  H   UNL     1      34.985 -19.771 -22.675  0.00  0.00    +0.160 HD
BRANCH  25  30
ATOM     29  N   UNL     1      33.848 -11.951 -23.841  0.00  0.00    -0.242 NA
ATOM     30  C   UNL     1      34.210 -14.290 -23.353  0.00  0.00    +0.050 C 
ATOM     31  C   UNL     1      34.594 -13.967 -22.055  0.00  0.00    +0.006 C 
ATOM     32  C   UNL     1      33.849 -13.254 -24.199  0.00  0.00    +0.101 C 
ATOM     33  C   UNL     1      34.604 -12.637 -21.650  0.00  0.00    +0.021 C 
ATOM     34  C   UNL     1      34.226 -11.675 -22.573  0.00  0.00    +0.099 C 
ENDBRANCH  25  30
ENDBRANCH  20  21
ENDBRANCH   1  20
TORSDOF 6
ENDMDL
MODEL 3
REMARK VINA RESULT:     -11.7      1.564      2.110
REMARK  Name = 9865515
REMARK  6 active torsions:
REMARK  status: ('A' for Active; 'I' for Inactive)
REMARK    1  A    between atoms: C_1  and  C_20
REMARK    2  A    between atoms: C_2  and  C_9
REMARK    3  A    between atoms: N_8  and  C_11
REMARK    4  A    between atoms: C_12  and  N_17
REMARK    5  A    between atoms: C_20  and  N_21
REMARK    6  A    between atoms: C_25  and  C_30
REMARK                            x       y       z     vdW  Elec       q    Type
REMARK                         _______ _______ _______ _____ _____    ______ ____
ROOT
ATOM      1  C   UNL     1      35.783 -20.301 -19.120  0.00  0.00    -0.002 C 
ATOM      2  C   UNL     1      35.219 -18.594 -21.252  0.00  0.00    +0.054 C 
ATOM      3  C   UNL     1      34.480 -20.202 -19.608  0.00  0.00    -0.002 C 
ATOM      4  C   UNL     1      36.804 -19.547 -19.698  0.00  0.00    -0.002 C 
ATOM      5  C   UNL     1      34.198 -19.348 -20.674  0.00  0.00    +0.004 C 
ATOM      6  C   UNL     1      36.522 -18.693 -20.764  0.00  0.00    +0.004 C 
ENDROOT
BRANCH   2   9
ATOM      7  O   UNL     1      34.697 -18.186 -23.483  0.00  0.00    -0.270 OA
ATOM      8  N   UNL     1      34.895 -16.334 -22.056  0.00  0.00    -0.279 N 
ATOM      9  C   UNL     1      34.924 -17.701 -22.363  0.00  0.00    +0.250 C 
ATOM     10  H   UNL     1      35.097 -16.100 -21.122  0.00  0.00    +0.155 HD
BRANCH   8  11
ATOM     11  C   UNL     1      34.615 -15.244 -22.918  0.00  0.00    +0.064 C 
ATOM     12  C   UNL     1      34.496 -13.962 -22.407  0.00  0.00    +0.055 C 
ATOM     13  C   UNL     1      34.463 -15.498 -24.271  0.00  0.00    +0.016 C 
ATOM     14  C   UNL     1      34.219 -12.904 -23.274  0.00  0.00    +0.015 C 
ATOM     15  C   UNL     1      34.186 -14.441 -25.138  0.00  0.00    +0.001 C 
ATOM     16  C   UNL     1      34.064 -13.144 -24.639  0.00  0.00    +0.001 C 
BRANCH  12  17
ATOM     17  N   UNL     1      34.651 -13.696 -21.029  0.00  0.00    -0.356 N 
ATOM     18  H   UNL     1      34.546 -12.778 -20.689  0.00  0.00    +0.142 HD
ATOM     19  H   UNL     1      34.864 -14.429 -20.406  0.00  0.00    +0.142 HD
ENDBRANCH  12  17
ENDBRANCH   8  11
ENDBRANCH   2   9
BRANCH   1  20
ATOM     20  C   UNL     1      36.086 -21.216 -17.981  0.00  0.00    +0.124 C 
BRANCH  20  21
ATOM     21  N   UNL     1      34.875 -21.595 -17.286  0.00  0.00    -0.264 N 
ATOM     22  N   UNL     1      36.055 -22.813 -15.664  0.00  0.00    -0.338 NA
ATOM     23  N   UNL     1      33.652 -22.662 -15.592  0.00  0.00    -0.170 NA
ATOM     24  C   UNL     1      34.861 -22.381 -16.146  0.00  0.00    +0.145 C 
ATOM     25  C   UNL     1      36.004 -23.576 -14.553  0.00  0.00    +0.147 C 
ATOM     26  C   UNL     1      34.831 -23.920 -13.912  0.00  0.00    +0.055 C 
ATOM     27  C   UNL     1      33.674 -23.430 -14.482  0.00  0.00    +0.114 C 
ATOM     28  H   UNL     1      34.015 -21.276 -17.643  0.00  0.00    +0.160 HD
BRANCH  25  30
ATOM     29  N   UNL     1      39.695 -23.908 -14.163  0.00  0.00    -0.242 NA
ATOM     30  C   UNL     1      37.283 -24.025 -14.057  0.00  0.00    +0.050 C 
ATOM     31  C   UNL     1      37.367 -24.970 -13.039  0.00  0.00    +0.006 C 
ATOM     32  C   UNL     1      38.467 -23.530 -14.580  0.00  0.00    +0.101 C 
ATOM     33  C   UNL     1      38.613 -25.384 -12.583  0.00  0.00    +0.021 C 
ATOM     34  C   UNL     1      39.737 -24.827 -13.172  0.00  0.00    +0.099 C 
ENDBRANCH  25  30
ENDBRANCH  20  21
ENDBRANCH   1  20
TORSDOF 6
ENDMDL
MODEL 4
REMARK VINA RESULT:     -11.6      0.667      1.111
REMARK  Name = 9865515
REMARK  6 active torsions:
REMARK  status: ('A' for Active; 'I' for Inactive)
REMARK    1  A    between atoms: C_1  and  C_20
REMARK    2  A    between atoms: C_2  and  C_9
REMARK    3  A    between atoms: N_8  and  C_11
REMARK    4  A    between atoms: C_12  and  N_17
REMARK    5  A    between atoms: C_20  and  N_21
REMARK    6  A    between atoms: C_25  and  C_30
REMARK                            x       y       z     vdW  Elec       q    Type
REMARK                         _______ _______ _______ _____ _____    ______ ____
ROOT
ATOM      1  C   UNL     1      35.174 -21.088 -18.952  0.00  0.00    -0.002 C 
ATOM      2  C   UNL     1      35.582 -18.705 -20.343  0.00  0.00    +0.054 C 
ATOM      3  C   UNL     1      36.465 -20.587 -19.114  0.00  0.00    -0.002 C 
ATOM      4  C   UNL     1      34.086 -20.398 -19.486  0.00  0.00    -0.002 C 
ATOM      5  C   UNL     1      36.670 -19.396 -19.810  0.00  0.00    +0.004 C 
ATOM      6  C   UNL     1      34.290 -19.207 -20.182  0.00  0.00    +0.004 C 
ENDROOT
BRANCH   2   9
ATOM      7  O   UNL     1      36.789 -17.361 -21.809  0.00  0.00    -0.270 OA
ATOM      8  N   UNL     1      34.819 -16.475 -20.892  0.00  0.00    -0.279 N 
ATOM      9  C   UNL     1      35.795 -17.464 -21.072  0.00  0.00    +0.250 C 
ATOM     10  H   UNL     1      34.088 -16.702 -20.275  0.00  0.00    +0.155 HD
BRANCH   8  11
ATOM     11  C   UNL     1      34.749 -15.189 -21.485  0.00  0.00    +0.064 C 
ATOM     12  C   UNL     1      34.689 -15.056 -22.862  0.00  0.00    +0.055 C 
ATOM     13  C   UNL     1      34.743 -14.081 -20.652  0.00  0.00    +0.016 C 
ATOM     14  C   UNL     1      34.621 -13.780 -23.423  0.00  0.00    +0.015 C 
ATOM     15  C   UNL     1      34.675 -12.806 -21.212  0.00  0.00    +0.001 C 
ATOM     16  C   UNL     1      34.614 -12.655 -22.598  0.00  0.00    +0.001 C 
BRANCH  12  17
ATOM     17  N   UNL     1      34.693 -16.181 -23.716  0.00  0.00    -0.356 N 
ATOM     18  H   UNL     1      33.980 -16.856 -23.645  0.00  0.00    +0.142 HD
ATOM     19  H   UNL     1      35.409 -16.290 -24.384  0.00  0.00    +0.142 HD
ENDBRANCH  12  17
ENDBRANCH   8  11
ENDBRANCH   2   9
BRANCH   1  20
ATOM     20  C   UNL     1      34.954 -22.362 -18.206  0.00  0.00    +0.124 C 
BRANCH  20  21
ATOM     21  N   UNL     1      33.844 -22.238 -17.287  0.00  0.00    -0.264 N 
ATOM     22  N   UNL     1      34.999 -23.342 -15.568  0.00  0.00    -0.338 NA
ATOM     23  N   UNL     1      32.754 -22.536 -15.231  0.00  0.00    -0.170 NA
ATOM     24  C   UNL     1      33.867 -22.720 -15.990  0.00  0.00    +0.145 C 
ATOM     25  C   UNL     1      34.987 -23.799 -14.300  0.00  0.00    +0.147 C 
ATOM     26  C   UNL     1      33.910 -23.665 -13.447  0.00  0.00    +0.055 C 
ATOM     27  C   UNL     1      32.809 -23.018 -13.971  0.00  0.00    +0.114 C 
ATOM     28  H   UNL     1      33.028 -21.785 -17.602  0.00  0.00    +0.160 HD
BRANCH  25  30
ATOM     29  N   UNL     1      37.970 -26.032 -14.344  0.00  0.00    -0.242 NA
ATOM     30  C   UNL     1      36.199 -24.456 -13.872  0.00  0.00    +0.050 C 
ATOM     31  C   UNL     1      36.764 -24.181 -12.631  0.00  0.00    +0.006 C 
ATOM     32  C   UNL     1      36.836 -25.381 -14.684  0.00  0.00    +0.101 C 
ATOM     33  C   UNL     1      37.932 -24.830 -12.246  0.00  0.00    +0.021 C 
ATOM     34  C   UNL     1      38.491 -25.739 -13.131  0.00  0.00    +0.099 C 
ENDBRANCH  25  30
ENDBRANCH  20  21
ENDBRANCH   1  20
TORSDOF 6
ENDMDL
MODEL 5
REMARK VINA RESULT:     -11.6      0.681      1.569
REMARK  Name = 9865515
REMARK  6 active torsions:
REMARK  status: ('A' for Active; 'I' for Inactive)
REMARK    1  A    between atoms: C_1  and  C_20
REMARK    2  A    between atoms: C_2  and  C_9
REMARK    3  A    between atoms: N_8  and  C_11
REMARK    4  A    between atoms: C_12  and  N_17
REMARK    5  A    between atoms: C_20  and  N_21
REMARK    6  A    between atoms: C_25  and  C_30
REMARK                            x       y       z     vdW  Elec       q    Type
REMARK                         _______ _______ _______ _____ _____    ______ ____
ROOT
ATOM      1  C   UNL     1      34.536 -21.713 -18.607  0.00  0.00    -0.002 C 
ATOM      2  C   UNL     1      35.338 -19.412 -19.963  0.00  0.00    +0.054 C 
ATOM      3  C   UNL     1      35.881 -21.342 -18.617  0.00  0.00    -0.002 C 
ATOM      4  C   UNL     1      33.593 -20.933 -19.275  0.00  0.00    -0.002 C 
ATOM      5  C   UNL     1      36.282 -20.192 -19.296  0.00  0.00    +0.004 C 
ATOM      6  C   UNL     1      33.994 -19.782 -19.953  0.00  0.00    +0.004 C 
ENDROOT
BRANCH   2   9
ATOM      7  O   UNL     1      36.969 -17.965 -20.775  0.00  0.00    -0.270 OA
ATOM      8  N   UNL     1      34.727 -17.433 -21.217  0.00  0.00    -0.279 N 
ATOM      9  C   UNL     1      35.757 -18.213 -20.673  0.00  0.00    +0.250 C 
ATOM     10  H   UNL     1      33.813 -17.757 -21.052  0.00  0.00    +0.155 HD
BRANCH   8  11
ATOM     11  C   UNL     1      34.831 -16.238 -21.972  0.00  0.00    +0.064 C 
ATOM     12  C   UNL     1      34.845 -15.008 -21.336  0.00  0.00    +0.055 C 
ATOM     13  C   UNL     1      34.917 -16.338 -23.351  0.00  0.00    +0.016 C 
ATOM     14  C   UNL     1      34.948 -13.845 -22.101  0.00  0.00    +0.015 C 
ATOM     15  C   UNL     1      35.020 -15.176 -24.116  0.00  0.00    +0.001 C 
ATOM     16  C   UNL     1      35.035 -13.929 -23.490  0.00  0.00    +0.001 C 
BRANCH  12  17
ATOM     17  N   UNL     1      34.759 -14.899 -19.931  0.00  0.00    -0.356 N 
ATOM     18  H   UNL     1      35.058 -15.643 -19.360  0.00  0.00    +0.142 HD
ATOM     19  H   UNL     1      34.400 -14.079 -19.521  0.00  0.00    +0.142 HD
ENDBRANCH  12  17
ENDBRANCH   8  11
ENDBRANCH   2   9
BRANCH   1  20
ATOM     20  C   UNL     1      34.106 -22.943 -17.880  0.00  0.00    +0.124 C 
BRANCH  20  21
ATOM     21  N   UNL     1      33.277 -22.608 -16.743  0.00  0.00    -0.264 N 
ATOM     22  N   UNL     1      34.783 -23.569 -15.221  0.00  0.00    -0.338 NA
ATOM     23  N   UNL     1      32.741 -22.542 -14.459  0.00  0.00    -0.170 NA
ATOM     24  C   UNL     1      33.611 -22.916 -15.435  0.00  0.00    +0.145 C 
ATOM     25  C   UNL     1      35.076 -23.853 -13.936  0.00  0.00    +0.147 C 
ATOM     26  C   UNL     1      34.263 -23.520 -12.872  0.00  0.00    +0.055 C 
ATOM     27  C   UNL     1      33.097 -22.858 -13.196  0.00  0.00    +0.114 C 
ATOM     28  H   UNL     1      32.430 -22.135 -16.908  0.00  0.00    +0.160 HD
BRANCH  25  30
ATOM     29  N   UNL     1      38.009 -26.062 -14.574  0.00  0.00    -0.242 NA
ATOM     30  C   UNL     1      36.326 -24.547 -13.730  0.00  0.00    +0.050 C 
ATOM     31  C   UNL     1      37.044 -24.397 -12.548  0.00  0.00    +0.006 C 
ATOM     32  C   UNL     1      36.848 -25.384 -14.703  0.00  0.00    +0.101 C 
ATOM     33  C   UNL     1      38.243 -25.079 -12.378  0.00  0.00    +0.021 C 
ATOM     34  C   UNL     1      38.679 -25.892 -13.412  0.00  0.00    +0.099 C 
ENDBRANCH  25  30
ENDBRANCH  20  21
ENDBRANCH   1  20
TORSDOF 6
ENDMDL
MODEL 6
REMARK VINA RESULT:     -11.5      2.271     11.121
REMARK  Name = 9865515
REMARK  6 active torsions:
REMARK  status: ('A' for Active; 'I' for Inactive)
REMARK    1  A    between atoms: C_1  and  C_20
REMARK    2  A    between atoms: C_2  and  C_9
REMARK    3  A    between atoms: N_8  and  C_11
REMARK    4  A    between atoms: C_12  and  N_17
REMARK    5  A    between atoms: C_20  and  N_21
REMARK    6  A    between atoms: C_25  and  C_30
REMARK                            x       y       z     vdW  Elec       q    Type
REMARK                         _______ _______ _______ _____ _____    ______ ____
ROOT
ATOM      1  C   UNL     1      35.737 -19.070 -20.540  0.00  0.00    -0.002 C 
ATOM      2  C   UNL     1      35.274 -20.918 -18.503  0.00  0.00    +0.054 C 
ATOM      3  C   UNL     1      36.807 -19.581 -19.805  0.00  0.00    -0.002 C 
ATOM      4  C   UNL     1      34.436 -19.483 -20.256  0.00  0.00    -0.002 C 
ATOM      5  C   UNL     1      36.576 -20.505 -18.786  0.00  0.00    +0.004 C 
ATOM      6  C   UNL     1      34.204 -20.407 -19.238  0.00  0.00    +0.004 C 
ENDROOT
BRANCH   2   9
ATOM      7  O   UNL     1      34.185 -22.771 -17.612  0.00  0.00    -0.270 OA
ATOM      8  N   UNL     1      35.817 -21.727 -16.287  0.00  0.00    -0.279 N 
ATOM      9  C   UNL     1      35.032 -21.880 -17.439  0.00  0.00    +0.250 C 
ATOM     10  H   UNL     1      36.446 -20.971 -16.296  0.00  0.00    +0.155 HD
BRANCH   8  11
ATOM     11  C   UNL     1      35.820 -22.520 -15.112  0.00  0.00    +0.064 C 
ATOM     12  C   UNL     1      37.002 -23.068 -14.642  0.00  0.00    +0.055 C 
ATOM     13  C   UNL     1      34.618 -22.728 -14.457  0.00  0.00    +0.016 C 
ATOM     14  C   UNL     1      36.981 -23.845 -13.484  0.00  0.00    +0.015 C 
ATOM     15  C   UNL     1      34.596 -23.505 -13.299  0.00  0.00    +0.001 C 
ATOM     16  C   UNL     1      35.778 -24.064 -12.812  0.00  0.00    +0.001 C 
BRANCH  12  17
ATOM     17  N   UNL     1      38.231 -22.858 -15.305  0.00  0.00    -0.356 N 
ATOM     18  H   UNL     1      38.332 -22.104 -15.930  0.00  0.00    +0.142 HD
ATOM     19  H   UNL     1      38.989 -23.467 -15.143  0.00  0.00    +0.142 HD
ENDBRANCH  12  17
ENDBRANCH   8  11
ENDBRANCH   2   9
BRANCH   1  20
ATOM     20  C   UNL     1      35.985 -18.083 -21.631  0.00  0.00    +0.124 C 
BRANCH  20  21
ATOM     21  N   UNL     1      35.265 -18.448 -22.832  0.00  0.00    -0.264 N 
ATOM     22  N   UNL     1      34.658 -16.226 -23.278  0.00  0.00    -0.338 NA
ATOM     23  N   UNL     1      33.974 -18.012 -24.742  0.00  0.00    -0.170 NA
ATOM     24  C   UNL     1      34.612 -17.534 -23.642  0.00  0.00    +0.145 C 
ATOM     25  C   UNL     1      34.013 -15.363 -24.089  0.00  0.00    +0.147 C 
ATOM     26  C   UNL     1      33.334 -15.743 -25.229  0.00  0.00    +0.055 C 
ATOM     27  C   UNL     1      33.348 -17.094 -25.509  0.00  0.00    +0.114 C 
ATOM     28  H   UNL     1      35.237 -19.399 -23.087  0.00  0.00    +0.160 HD
BRANCH  25  30
ATOM     29  N   UNL     1      33.885 -11.643 -24.282  0.00  0.00    -0.242 NA
ATOM     30  C   UNL     1      34.073 -13.978 -23.685  0.00  0.00    +0.050 C 
ATOM     31  C   UNL     1      34.366 -13.626 -22.372  0.00  0.00    +0.006 C 
ATOM     32  C   UNL     1      33.843 -12.958 -24.594  0.00  0.00    +0.101 C 
ATOM     33  C   UNL     1      34.419 -12.284 -22.013  0.00  0.00    +0.021 C 
ATOM     34  C   UNL     1      34.173 -11.339 -22.997  0.00  0.00    +0.099 C 
ENDBRANCH  25  30
ENDBRANCH  20  21
ENDBRANCH   1  20
TORSDOF 6
ENDMDL
MODEL 7
REMARK VINA RESULT:     -11.5      2.761     11.012
REMARK  Name = 9865515
REMARK  6 active torsions:
REMARK  status: ('A' for Active; 'I' for Inactive)
REMARK    1  A    between atoms: C_1  and  C_20
REMARK    2  A    between atoms: C_2  and  C_9
REMARK    3  A    between atoms: N_8  and  C_11
REMARK    4  A    between atoms: C_12  and  N_17
REMARK    5  A    between atoms: C_20  and  N_21
REMARK    6  A    between atoms: C_25  and  C_30
REMARK                            x       y       z     vdW  Elec       q    Type
REMARK                         _______ _______ _______ _____ _____    ______ ____
ROOT
ATOM      1  C   UNL     1      35.523 -18.724 -20.617  0.00  0.00    -0.002 C 
ATOM      2  C   UNL     1      34.600 -20.841 -19.052  0.00  0.00    +0.054 C 
ATOM      3  C   UNL     1      34.162 -19.027 -20.586  0.00  0.00    -0.002 C 
ATOM      4  C   UNL     1      36.423 -19.479 -19.865  0.00  0.00    -0.002 C 
ATOM      5  C   UNL     1      33.701 -20.086 -19.805  0.00  0.00    +0.004 C 
ATOM      6  C   UNL     1      35.961 -20.538 -19.083  0.00  0.00    +0.004 C 
ENDROOT
BRANCH   2   9
ATOM      7  O   UNL     1      34.061 -23.082 -18.739  0.00  0.00    -0.270 OA
ATOM      8  N   UNL     1      33.777 -21.630 -16.917  0.00  0.00    -0.279 N 
ATOM      9  C   UNL     1      34.119 -21.947 -18.239  0.00  0.00    +0.250 C 
ATOM     10  H   UNL     1      33.876 -20.684 -16.665  0.00  0.00    +0.155 HD
BRANCH   8  11
ATOM     11  C   UNL     1      33.308 -22.495 -15.897  0.00  0.00    +0.064 C 
ATOM     12  C   UNL     1      31.949 -22.699 -15.723  0.00  0.00    +0.055 C 
ATOM     13  C   UNL     1      34.241 -23.123 -15.087  0.00  0.00    +0.016 C 
ATOM     14  C   UNL     1      31.511 -23.554 -14.712  0.00  0.00    +0.015 C 
ATOM     15  C   UNL     1      33.803 -23.978 -14.077  0.00  0.00    +0.001 C 
ATOM     16  C   UNL     1      32.437 -24.194 -13.889  0.00  0.00    +0.001 C 
BRANCH  12  17
ATOM     17  N   UNL     1      30.993 -22.063 -16.546  0.00  0.00    -0.356 N 
ATOM     18  H   UNL     1      30.359 -21.419 -16.157  0.00  0.00    +0.142 HD
ATOM     19  H   UNL     1      30.962 -22.263 -17.510  0.00  0.00    +0.142 HD
ENDBRANCH  12  17
ENDBRANCH   8  11
ENDBRANCH   2   9
BRANCH   1  20
ATOM     20  C   UNL     1      36.018 -17.590 -21.451  0.00  0.00    +0.124 C 
BRANCH  20  21
ATOM     21  N   UNL     1      35.593 -17.738 -22.827  0.00  0.00    -0.264 N 
ATOM     22  N   UNL     1      34.661 -15.585 -22.886  0.00  0.00    -0.338 NA
ATOM     23  N   UNL     1      34.585 -17.020 -24.820  0.00  0.00    -0.170 NA
ATOM     24  C   UNL     1      34.926 -16.751 -23.532  0.00  0.00    +0.145 C 
ATOM     25  C   UNL     1      34.010 -14.646 -23.603  0.00  0.00    +0.147 C 
ATOM     26  C   UNL     1      33.618 -14.817 -24.915  0.00  0.00    +0.055 C 
ATOM     27  C   UNL     1      33.935 -16.037 -25.478  0.00  0.00    +0.114 C 
ATOM     28  H   UNL     1      35.790 -18.586 -23.286  0.00  0.00    +0.160 HD
BRANCH  25  30
ATOM     29  N   UNL     1      33.021 -12.311 -20.872  0.00  0.00    -0.242 NA
ATOM     30  C   UNL     1      33.739 -13.415 -22.899  0.00  0.00    +0.050 C 
ATOM     31  C   UNL     1      33.915 -12.181 -23.517  0.00  0.00    +0.006 C 
ATOM     32  C   UNL     1      33.294 -13.425 -21.586  0.00  0.00    +0.101 C 
ATOM     33  C   UNL     1      33.644 -11.013 -22.814  0.00  0.00    +0.021 C 
ATOM     34  C   UNL     1      33.203 -11.131 -21.505  0.00  0.00    +0.099 C 
ENDBRANCH  25  30
ENDBRANCH  20  21
ENDBRANCH   1  20
TORSDOF 6
ENDMDL
MODEL 8
REMARK VINA RESULT:     -11.5      1.272      2.109
REMARK  Name = 9865515
REMARK  6 active torsions:
REMARK  status: ('A' for Active; 'I' for Inactive)
REMARK    1  A    between atoms: C_1  and  C_20
REMARK    2  A    between atoms: C_2  and  C_9
REMARK    3  A    between atoms: N_8  and  C_11
REMARK    4  A    between atoms: C_12  and  N_17
REMARK    5  A    between atoms: C_20  and  N_21
REMARK    6  A    between atoms: C_25  and  C_30
REMARK                            x       y       z     vdW  Elec       q    Type
REMARK                         _______ _______ _______ _____ _____    ______ ____
ROOT
ATOM      1  C   UNL     1      34.716 -21.594 -18.431  0.00  0.00    -0.002 C 
ATOM      2  C   UNL     1      35.451 -19.414 -20.007  0.00  0.00    +0.054 C 
ATOM      3  C   UNL     1      36.058 -21.229 -18.534  0.00  0.00    -0.002 C 
ATOM      4  C   UNL     1      33.741 -20.870 -19.117  0.00  0.00    -0.002 C 
ATOM      5  C   UNL     1      36.426 -20.139 -19.323  0.00  0.00    +0.004 C 
ATOM      6  C   UNL     1      34.109 -19.779 -19.905  0.00  0.00    +0.004 C 
ENDROOT
BRANCH   2   9
ATOM      7  O   UNL     1      37.038 -17.988 -20.936  0.00  0.00    -0.270 OA
ATOM      8  N   UNL     1      34.786 -17.607 -21.475  0.00  0.00    -0.279 N 
ATOM      9  C   UNL     1      35.835 -18.278 -20.832  0.00  0.00    +0.250 C 
ATOM     10  H   UNL     1      33.883 -17.953 -21.295  0.00  0.00    +0.155 HD
BRANCH   8  11
ATOM     11  C   UNL     1      34.858 -16.495 -22.350  0.00  0.00    +0.064 C 
ATOM     12  C   UNL     1      34.942 -15.209 -21.841  0.00  0.00    +0.055 C 
ATOM     13  C   UNL     1      34.839 -16.730 -23.715  0.00  0.00    +0.016 C 
ATOM     14  C   UNL     1      35.010 -14.129 -22.722  0.00  0.00    +0.015 C 
ATOM     15  C   UNL     1      34.907 -15.651 -24.596  0.00  0.00    +0.001 C 
ATOM     16  C   UNL     1      34.993 -14.350 -24.099  0.00  0.00    +0.001 C 
BRANCH  12  17
ATOM     17  N   UNL     1      34.963 -14.962 -20.451  0.00  0.00    -0.356 N 
ATOM     18  H   UNL     1      34.130 -15.018 -19.928  0.00  0.00    +0.142 HD
ATOM     19  H   UNL     1      35.810 -14.734 -20.004  0.00  0.00    +0.142 HD
ENDBRANCH  12  17
ENDBRANCH   8  11
ENDBRANCH   2   9
BRANCH   1  20
ATOM     20  C   UNL     1      34.322 -22.760 -17.587  0.00  0.00    +0.124 C 
BRANCH  20  21
ATOM     21  N   UNL     1      33.180 -22.435 -16.758  0.00  0.00    -0.264 N 
ATOM     22  N   UNL     1      34.231 -23.218 -14.811  0.00  0.00    -0.338 NA
ATOM     23  N   UNL     1      32.002 -22.307 -14.734  0.00  0.00    -0.170 NA
ATOM     24  C   UNL     1      33.137 -22.661 -15.393  0.00  0.00    +0.145 C 
ATOM     25  C   UNL     1      34.154 -23.424 -13.481  0.00  0.00    +0.147 C 
ATOM     26  C   UNL     1      33.050 -23.103 -12.718  0.00  0.00    +0.055 C 
ATOM     27  C   UNL     1      31.993 -22.541 -13.404  0.00  0.00    +0.114 C 
ATOM     28  H   UNL     1      32.393 -22.031 -17.189  0.00  0.00    +0.160 HD
BRANCH  25  30
ATOM     29  N   UNL     1      36.555 -24.597 -10.883  0.00  0.00    -0.242 NA
ATOM     30  C   UNL     1      35.326 -24.017 -12.883  0.00  0.00    +0.050 C 
ATOM     31  C   UNL     1      36.335 -24.564 -13.669  0.00  0.00    +0.006 C 
ATOM     32  C   UNL     1      35.483 -24.059 -11.506  0.00  0.00    +0.101 C 
ATOM     33  C   UNL     1      37.453 -25.128 -13.064  0.00  0.00    +0.021 C 
ATOM     34  C   UNL     1      37.514 -25.119 -11.680  0.00  0.00    +0.099 C 
ENDBRANCH  25  30
ENDBRANCH  20  21
ENDBRANCH   1  20
TORSDOF 6
ENDMDL
MODEL 9
REMARK VINA RESULT:     -11.5      4.814     13.546
REMARK  Name = 9865515
REMARK  6 active torsions:
REMARK  status: ('A' for Active; 'I' for Inactive)
REMARK    1  A    between atoms: C_1  and  C_20
REMARK    2  A    between atoms: C_2  and  C_9
REMARK    3  A    between atoms: N_8  and  C_11
REMARK    4  A    between atoms: C_12  and  N_17
REMARK    5  A    between atoms: C_20  and  N_21
REMARK    6  A    between atoms: C_25  and  C_30
REMARK                            x       y       z     vdW  Elec       q    Type
REMARK                         _______ _______ _______ _____ _____    ______ ____
ROOT
ATOM      1  C   UNL     1      34.268 -13.221 -22.252  0.00  0.00    -0.002 C 
ATOM      2  C   UNL     1      35.179 -15.786 -21.646  0.00  0.00    +0.054 C 
ATOM      3  C   UNL     1      34.467 -13.595 -20.923  0.00  0.00    -0.002 C 
ATOM      4  C   UNL     1      34.525 -14.130 -23.278  0.00  0.00    -0.002 C 
ATOM      5  C   UNL     1      34.922 -14.878 -20.620  0.00  0.00    +0.004 C 
ATOM      6  C   UNL     1      34.980 -15.413 -22.975  0.00  0.00    +0.004 C 
ENDROOT
BRANCH   2   9
ATOM      7  O   UNL     1      36.693 -17.540 -21.864  0.00  0.00    -0.270 OA
ATOM      8  N   UNL     1      34.882 -17.843 -20.404  0.00  0.00    -0.279 N 
ATOM      9  C   UNL     1      35.652 -17.126 -21.329  0.00  0.00    +0.250 C 
ATOM     10  H   UNL     1      34.080 -17.382 -20.066  0.00  0.00    +0.155 HD
BRANCH   8  11
ATOM     11  C   UNL     1      35.107 -19.145 -19.891  0.00  0.00    +0.064 C 
ATOM     12  C   UNL     1      34.045 -20.012 -19.693  0.00  0.00    +0.055 C 
ATOM     13  C   UNL     1      36.408 -19.518 -19.595  0.00  0.00    +0.016 C 
ATOM     14  C   UNL     1      34.291 -21.288 -19.187  0.00  0.00    +0.015 C 
ATOM     15  C   UNL     1      36.654 -20.794 -19.089  0.00  0.00    +0.001 C 
ATOM     16  C   UNL     1      35.595 -21.679 -18.884  0.00  0.00    +0.001 C 
BRANCH  12  17
ATOM     17  N   UNL     1      32.717 -19.637 -19.994  0.00  0.00    -0.356 N 
ATOM     18  H   UNL     1      32.464 -19.420 -20.920  0.00  0.00    +0.142 HD
ATOM     19  H   UNL     1      32.043 -19.594 -19.277  0.00  0.00    +0.142 HD
ENDBRANCH  12  17
ENDBRANCH   8  11
ENDBRANCH   2   9
BRANCH   1  20
ATOM     20  C   UNL     1      33.782 -11.848 -22.577  0.00  0.00    +0.124 C 
BRANCH  20  21
ATOM     21  N   UNL     1      34.643 -11.213 -23.552  0.00  0.00    -0.264 N 
ATOM     22  N   UNL     1      33.926  -9.062 -22.947  0.00  0.00    -0.338 NA
ATOM     23  N   UNL     1      35.565  -9.376 -24.684  0.00  0.00    -0.170 NA
ATOM     24  C   UNL     1      34.713  -9.842 -23.733  0.00  0.00    +0.145 C 
ATOM     25  C   UNL     1      34.019  -7.732 -23.149  0.00  0.00    +0.147 C 
ATOM     26  C   UNL     1      34.851  -7.156 -24.089  0.00  0.00    +0.055 C 
ATOM     27  C   UNL     1      35.608  -8.036 -24.835  0.00  0.00    +0.114 C 
ATOM     28  H   UNL     1      35.209 -11.787 -24.116  0.00  0.00    +0.160 HD
BRANCH  25  30
ATOM     29  N   UNL     1      31.246  -5.482 -22.086  0.00  0.00    -0.242 NA
ATOM     30  C   UNL     1      33.175  -6.921 -22.304  0.00  0.00    +0.050 C 
ATOM     31  C   UNL     1      33.442  -6.781 -20.946  0.00  0.00    +0.006 C 
ATOM     32  C   UNL     1      32.074  -6.256 -22.820  0.00  0.00    +0.101 C 
ATOM     33  C   UNL     1      32.612  -5.993 -20.158  0.00  0.00    +0.021 C 
ATOM     34  C   UNL     1      31.536  -5.369 -20.770  0.00  0.00    +0.099 C 
ENDBRANCH  25  30
ENDBRANCH  20  21
ENDBRANCH   1  20
TORSDOF 6
ENDMDL
