MODEL 1
REMARK VINA RESULT:     -12.0      0.000      0.000
REMARK  Name = 46937091
REMARK  8 active torsions:
REMARK  status: ('A' for Active; 'I' for Inactive)
REMARK    1  A    between atoms: C_1  and  C_4
REMARK    2  A    between atoms: C_1  and  C_18
REMARK    3  A    between atoms: C_10  and  C_12
REMARK    4  A    between atoms: C_18  and  C_19
REMARK    5  A    between atoms: C_19  and  N_20
REMARK    6  A    between atoms: C_19  and  C_30
REMARK    7  A    between atoms: C_24  and  C_27
REMARK    8  A    between atoms: C_30  and  O_32
REMARK                            x       y       z     vdW  Elec       q    Type
REMARK                         _______ _______ _______ _____ _____    ______ ____
ROOT
ATOM      1  C   UNL     1      34.952 -23.869 -14.110  0.00  0.00    +0.031 C 
ENDROOT
BRANCH   1   4
ATOM      2  O   UNL     1      33.982 -22.267 -16.528  0.00  0.00    -0.425 OA
ATOM      3  N   UNL     1      31.845 -21.874 -17.167  0.00  0.00    -0.368 NA
ATOM      4  C   UNL     1      33.521 -23.623 -14.514  0.00  0.00    +0.014 C 
ATOM      5  C   UNL     1      33.156 -22.881 -15.631  0.00  0.00    +0.170 C 
ATOM      6  C   UNL     1      32.463 -24.144 -13.761  0.00  0.00    -0.005 C 
ATOM      7  C   UNL     1      31.848 -22.638 -16.026  0.00  0.00    +0.151 C 
ATOM      8  C   UNL     1      31.129 -23.922 -14.125  0.00  0.00    -0.019 C 
ATOM      9  C   UNL     1      30.799 -23.168 -15.261  0.00  0.00    +0.088 C 
ATOM     10  C   UNL     1      33.123 -21.690 -17.412  0.00  0.00    +0.282 C 
BRANCH  10  12
ATOM     11 CL   UNL     1      35.705 -18.680 -21.844  0.00  0.00    -0.082 Cl
ATOM     12  C   UNL     1      33.748 -20.962 -18.483  0.00  0.00    +0.066 C 
ATOM     13  C   UNL     1      32.968 -20.214 -19.365  0.00  0.00    +0.007 C 
ATOM     14  C   UNL     1      35.132 -21.004 -18.640  0.00  0.00    +0.007 C 
ATOM     15  C   UNL     1      33.573 -19.508 -20.404  0.00  0.00    +0.012 C 
ATOM     16  C   UNL     1      35.738 -20.298 -19.680  0.00  0.00    +0.012 C 
ATOM     17  C   UNL     1      34.958 -19.550 -20.561  0.00  0.00    +0.058 C 
ENDBRANCH  10  12
ENDBRANCH   1   4
BRANCH   1  18
ATOM     18  C   UNL     1      35.262 -23.546 -12.638  0.00  0.00    +0.023 C 
BRANCH  18  19
ATOM     19  C   UNL     1      36.603 -22.804 -12.395  0.00  0.00    +0.087 C 
BRANCH  19  20
ATOM     20  N   UNL     1      37.698 -23.235 -13.362  0.00  0.00    -0.246 NA
ATOM     21  N   UNL     1      39.041 -23.206 -15.130  0.00  0.00    -0.251 NA
ATOM     22  C   UNL     1      38.495 -24.337 -13.243  0.00  0.00    +0.125 C 
ATOM     23  C   UNL     1      38.062 -22.586 -14.509  0.00  0.00    +0.201 C 
ATOM     24  C   UNL     1      39.317 -24.298 -14.346  0.00  0.00    +0.124 C 
BRANCH  24  27
ATOM     25  O   UNL     1      40.792 -25.366 -15.839  0.00  0.00    -0.269 OA
ATOM     26  N   UNL     1      40.852 -26.058 -13.654  0.00  0.00    -0.324 N 
ATOM     27  C   UNL     1      40.335 -25.247 -14.675  0.00  0.00    +0.257 C 
ATOM     28  H   UNL     1      41.554 -26.719 -13.857  0.00  0.00    +0.145 HD
ATOM     29  H   UNL     1      40.513 -25.968 -12.735  0.00  0.00    +0.145 HD
ENDBRANCH  24  27
ENDBRANCH  19  20
BRANCH  19  30
ATOM     30  C   UNL     1      37.028 -22.925 -10.906  0.00  0.00    +0.125 C 
ATOM     31  C   UNL     1      35.935 -23.471  -9.995  0.00  0.00    +0.033 C 
BRANCH  30  32
ATOM     32  O   UNL     1      37.475 -21.667 -10.403  0.00  0.00    -0.383 OA
ATOM     33  H   UNL     1      38.444 -21.665 -10.355  0.00  0.00    +0.210 HD
ENDBRANCH  30  32
ENDBRANCH  19  30
ENDBRANCH  18  19
ENDBRANCH   1  18
TORSDOF 8
ENDMDL
MODEL 2
REMARK VINA RESULT:     -11.7      3.594      7.436
REMARK  Name = 46937091
REMARK  8 active torsions:
REMARK  status: ('A' for Active; 'I' for Inactive)
REMARK    1  A    between atoms: C_1  and  C_4
REMARK    2  A    between atoms: C_1  and  C_18
REMARK    3  A    between atoms: C_10  and  C_12
REMARK    4  A    between atoms: C_18  and  C_19
REMARK    5  A    between atoms: C_19  and  N_20
REMARK    6  A    between atoms: C_19  and  C_30
REMARK    7  A    between atoms: C_24  and  C_27
REMARK    8  A    between atoms: C_30  and  O_32
REMARK                            x       y       z     vdW  Elec       q    Type
REMARK                         _______ _______ _______ _____ _____    ______ ____
ROOT
ATOM      1  C   UNL     1      33.020 -22.817 -16.635  0.00  0.00    +0.031 C 
ENDROOT
BRANCH   1   4
ATOM      2  O   UNL     1      34.798 -20.975 -18.307  0.00  0.00    -0.425 OA
ATOM      3  N   UNL     1      36.973 -20.448 -17.956  0.00  0.00    -0.368 NA
ATOM      4  C   UNL     1      34.467 -22.483 -16.378  0.00  0.00    +0.014 C 
ATOM      5  C   UNL     1      35.214 -21.633 -17.186  0.00  0.00    +0.170 C 
ATOM      6  C   UNL     1      35.147 -23.028 -15.283  0.00  0.00    -0.005 C 
ATOM      7  C   UNL     1      36.545 -21.308 -16.974  0.00  0.00    +0.151 C 
ATOM      8  C   UNL     1      36.491 -22.726 -15.033  0.00  0.00    -0.019 C 
ATOM      9  C   UNL     1      37.211 -21.863 -15.872  0.00  0.00    +0.088 C 
ATOM     10  C   UNL     1      35.905 -20.291 -18.706  0.00  0.00    +0.282 C 
BRANCH  10  12
ATOM     11 CL   UNL     1      35.208 -17.007 -23.616  0.00  0.00    -0.082 Cl
ATOM     12  C   UNL     1      35.738 -19.497 -19.893  0.00  0.00    +0.066 C 
ATOM     13  C   UNL     1      34.547 -19.569 -20.616  0.00  0.00    +0.007 C 
ATOM     14  C   UNL     1      36.763 -18.655 -20.320  0.00  0.00    +0.007 C 
ATOM     15  C   UNL     1      34.384 -18.799 -21.768  0.00  0.00    +0.012 C 
ATOM     16  C   UNL     1      36.600 -17.885 -21.471  0.00  0.00    +0.012 C 
ATOM     17  C   UNL     1      35.410 -17.957 -22.195  0.00  0.00    +0.058 C 
ENDBRANCH  10  12
ENDBRANCH   1   4
BRANCH   1  18
ATOM     18  C   UNL     1      32.064 -22.423 -15.496  0.00  0.00    +0.023 C 
BRANCH  18  19
ATOM     19  C   UNL     1      30.989 -23.485 -15.142  0.00  0.00    +0.087 C 
BRANCH  19  20
ATOM     20  N   UNL     1      29.606 -23.120 -15.666  0.00  0.00    -0.246 NA
ATOM     21  N   UNL     1      27.710 -23.268 -16.814  0.00  0.00    -0.251 NA
ATOM     22  C   UNL     1      28.881 -22.011 -15.336  0.00  0.00    +0.125 C 
ATOM     23  C   UNL     1      28.863 -23.845 -16.556  0.00  0.00    +0.201 C 
ATOM     24  C   UNL     1      27.715 -22.124 -16.055  0.00  0.00    +0.124 C 
BRANCH  24  27
ATOM     25  O   UNL     1      26.471 -20.334 -16.948  0.00  0.00    -0.269 OA
ATOM     26  N   UNL     1      25.685 -21.275 -15.011  0.00  0.00    -0.324 N 
ATOM     27  C   UNL     1      26.625 -21.199 -16.049  0.00  0.00    +0.257 C 
ATOM     28  H   UNL     1      24.926 -20.648 -14.986  0.00  0.00    +0.145 HD
ATOM     29  H   UNL     1      25.785 -21.955 -14.306  0.00  0.00    +0.145 HD
ENDBRANCH  24  27
ENDBRANCH  19  20
BRANCH  19  30
ATOM     30  C   UNL     1      30.999 -23.781 -13.618  0.00  0.00    +0.125 C 
ATOM     31  C   UNL     1      32.342 -24.280 -13.096  0.00  0.00    +0.033 C 
BRANCH  30  32
ATOM     32  O   UNL     1      29.983 -24.722 -13.278  0.00  0.00    -0.383 OA
ATOM     33  H   UNL     1      29.113 -24.349 -13.491  0.00  0.00    +0.210 HD
ENDBRANCH  30  32
ENDBRANCH  19  30
ENDBRANCH  18  19
ENDBRANCH   1  18
TORSDOF 8
ENDMDL
MODEL 3
REMARK VINA RESULT:     -11.0      1.621      3.526
REMARK  Name = 46937091
REMARK  8 active torsions:
REMARK  status: ('A' for Active; 'I' for Inactive)
REMARK    1  A    between atoms: C_1  and  C_4
REMARK    2  A    between atoms: C_1  and  C_18
REMARK    3  A    between atoms: C_10  and  C_12
REMARK    4  A    between atoms: C_18  and  C_19
REMARK    5  A    between atoms: C_19  and  N_20
REMARK    6  A    between atoms: C_19  and  C_30
REMARK    7  A    between atoms: C_24  and  C_27
REMARK    8  A    between atoms: C_30  and  O_32
REMARK                            x       y       z     vdW  Elec       q    Type
REMARK                         _______ _______ _______ _____ _____    ______ ____
ROOT
ATOM      1  C   UNL     1      35.912 -23.234 -14.630  0.00  0.00    +0.031 C 
ENDROOT
BRANCH   1   4
ATOM      2  O   UNL     1      34.611 -21.846 -17.024  0.00  0.00    -0.425 OA
ATOM      3  N   UNL     1      32.410 -21.766 -17.557  0.00  0.00    -0.368 NA
ATOM      4  C   UNL     1      34.443 -23.197 -14.962  0.00  0.00    +0.014 C 
ATOM      5  C   UNL     1      33.923 -22.542 -16.073  0.00  0.00    +0.170 C 
ATOM      6  C   UNL     1      33.506 -23.837 -14.144  0.00  0.00    -0.005 C 
ATOM      7  C   UNL     1      32.576 -22.492 -16.402  0.00  0.00    +0.151 C 
ATOM      8  C   UNL     1      32.137 -23.810 -14.440  0.00  0.00    -0.019 C 
ATOM      9  C   UNL     1      31.650 -23.139 -15.572  0.00  0.00    +0.088 C 
ATOM     10  C   UNL     1      33.637 -21.415 -17.873  0.00  0.00    +0.282 C 
BRANCH  10  12
ATOM     11 CL   UNL     1      35.558 -18.201 -22.493  0.00  0.00    -0.082 Cl
ATOM     12  C   UNL     1      34.100 -20.638 -18.990  0.00  0.00    +0.066 C 
ATOM     13  C   UNL     1      35.469 -20.501 -19.223  0.00  0.00    +0.007 C 
ATOM     14  C   UNL     1      33.183 -20.023 -19.840  0.00  0.00    +0.007 C 
ATOM     15  C   UNL     1      35.919 -19.748 -20.306  0.00  0.00    +0.012 C 
ATOM     16  C   UNL     1      33.634 -19.269 -20.924  0.00  0.00    +0.012 C 
ATOM     17  C   UNL     1      35.002 -19.132 -21.157  0.00  0.00    +0.058 C 
ENDBRANCH  10  12
ENDBRANCH   1   4
BRANCH   1  18
ATOM     18  C   UNL     1      36.687 -24.381 -15.301  0.00  0.00    +0.023 C 
BRANCH  18  19
ATOM     19  C   UNL     1      37.746 -25.075 -14.403  0.00  0.00    +0.087 C 
BRANCH  19  20
ATOM     20  N   UNL     1      37.403 -24.995 -12.920  0.00  0.00    -0.246 NA
ATOM     21  N   UNL     1      37.091 -25.645 -10.820  0.00  0.00    -0.251 NA
ATOM     22  C   UNL     1      36.999 -23.882 -12.241  0.00  0.00    +0.125 C 
ATOM     23  C   UNL     1      37.444 -26.029 -12.027  0.00  0.00    +0.201 C 
ATOM     24  C   UNL     1      36.813 -24.306 -10.947  0.00  0.00    +0.124 C 
BRANCH  24  27
ATOM     25  O   UNL     1      35.543 -23.902  -9.004  0.00  0.00    -0.269 OA
ATOM     26  N   UNL     1      36.944 -22.222  -9.693  0.00  0.00    -0.324 N 
ATOM     27  C   UNL     1      36.386 -23.500  -9.846  0.00  0.00    +0.257 C 
ATOM     28  H   UNL     1      36.665 -21.649  -8.942  0.00  0.00    +0.145 HD
ATOM     29  H   UNL     1      37.614 -21.898 -10.337  0.00  0.00    +0.145 HD
ENDBRANCH  24  27
ENDBRANCH  19  20
BRANCH  19  30
ATOM     30  C   UNL     1      39.167 -24.538 -14.724  0.00  0.00    +0.125 C 
ATOM     31  C   UNL     1      40.209 -24.882 -13.665  0.00  0.00    +0.033 C 
BRANCH  30  32
ATOM     32  O   UNL     1      39.143 -23.126 -14.920  0.00  0.00    -0.383 OA
ATOM     33  H   UNL     1      40.034 -22.767 -14.787  0.00  0.00    +0.210 HD
ENDBRANCH  30  32
ENDBRANCH  19  30
ENDBRANCH  18  19
ENDBRANCH   1  18
TORSDOF 8
ENDMDL
MODEL 4
REMARK VINA RESULT:     -10.9      3.936      7.959
REMARK  Name = 46937091
REMARK  8 active torsions:
REMARK  status: ('A' for Active; 'I' for Inactive)
REMARK    1  A    between atoms: C_1  and  C_4
REMARK    2  A    between atoms: C_1  and  C_18
REMARK    3  A    between atoms: C_10  and  C_12
REMARK    4  A    between atoms: C_18  and  C_19
REMARK    5  A    between atoms: C_19  and  N_20
REMARK    6  A    between atoms: C_19  and  C_30
REMARK    7  A    between atoms: C_24  and  C_27
REMARK    8  A    between atoms: C_30  and  O_32
REMARK                            x       y       z     vdW  Elec       q    Type
REMARK                         _______ _______ _______ _____ _____    ______ ____
ROOT
ATOM      1  C   UNL     1      33.567 -22.184 -18.500  0.00  0.00    +0.031 C 
ENDROOT
BRANCH   1   4
ATOM      2  O   UNL     1      35.085 -23.271 -16.078  0.00  0.00    -0.425 OA
ATOM      3  N   UNL     1      34.317 -23.543 -13.963  0.00  0.00    -0.368 NA
ATOM      4  C   UNL     1      33.031 -22.354 -17.101  0.00  0.00    +0.014 C 
ATOM      5  C   UNL     1      33.785 -22.858 -16.047  0.00  0.00    +0.170 C 
ATOM      6  C   UNL     1      31.713 -22.004 -16.790  0.00  0.00    -0.005 C 
ATOM      7  C   UNL     1      33.317 -23.025 -14.751  0.00  0.00    +0.151 C 
ATOM      8  C   UNL     1      31.203 -22.157 -15.495  0.00  0.00    -0.019 C 
ATOM      9  C   UNL     1      31.994 -22.669 -14.456  0.00  0.00    +0.088 C 
ATOM     10  C   UNL     1      35.326 -23.665 -14.797  0.00  0.00    +0.282 C 
BRANCH  10  12
ATOM     11 CL   UNL     1      40.820 -25.700 -13.773  0.00  0.00    -0.082 Cl
ATOM     12  C   UNL     1      36.654 -24.156 -14.550  0.00  0.00    +0.066 C 
ATOM     13  C   UNL     1      36.855 -25.506 -14.261  0.00  0.00    +0.007 C 
ATOM     14  C   UNL     1      37.741 -23.285 -14.599  0.00  0.00    +0.007 C 
ATOM     15  C   UNL     1      38.144 -25.983 -14.020  0.00  0.00    +0.012 C 
ATOM     16  C   UNL     1      39.030 -23.762 -14.359  0.00  0.00    +0.012 C 
ATOM     17  C   UNL     1      39.231 -25.112 -14.070  0.00  0.00    +0.058 C 
ENDBRANCH  10  12
ENDBRANCH   1   4
BRANCH   1  18
ATOM     18  C   UNL     1      33.623 -20.726 -18.986  0.00  0.00    +0.023 C 
BRANCH  18  19
ATOM     19  C   UNL     1      35.017 -20.051 -18.885  0.00  0.00    +0.087 C 
BRANCH  19  20
ATOM     20  N   UNL     1      35.313 -19.130 -20.062  0.00  0.00    -0.246 NA
ATOM     21  N   UNL     1      36.354 -17.614 -21.307  0.00  0.00    -0.251 NA
ATOM     22  C   UNL     1      34.567 -19.005 -21.199  0.00  0.00    +0.125 C 
ATOM     23  C   UNL     1      36.375 -18.276 -20.171  0.00  0.00    +0.201 C 
ATOM     24  C   UNL     1      35.229 -18.065 -21.953  0.00  0.00    +0.124 C 
BRANCH  24  27
ATOM     25  O   UNL     1      34.074 -18.238 -23.998  0.00  0.00    -0.269 OA
ATOM     26  N   UNL     1      35.308 -16.335 -23.666  0.00  0.00    -0.324 N 
ATOM     27  C   UNL     1      34.837 -17.586 -23.242  0.00  0.00    +0.257 C 
ATOM     28  H   UNL     1      35.051 -15.985 -24.550  0.00  0.00    +0.145 HD
ATOM     29  H   UNL     1      35.896 -15.806 -23.080  0.00  0.00    +0.145 HD
ENDBRANCH  24  27
ENDBRANCH  19  20
BRANCH  19  30
ATOM     30  C   UNL     1      36.122 -21.118 -18.660  0.00  0.00    +0.125 C 
ATOM     31  C   UNL     1      36.925 -20.914 -17.379  0.00  0.00    +0.033 C 
BRANCH  30  32
ATOM     32  O   UNL     1      37.015 -21.166 -19.771  0.00  0.00    -0.383 OA
ATOM     33  H   UNL     1      36.646 -21.744 -20.457  0.00  0.00    +0.210 HD
ENDBRANCH  30  32
ENDBRANCH  19  30
ENDBRANCH  18  19
ENDBRANCH   1  18
TORSDOF 8
ENDMDL
MODEL 5
REMARK VINA RESULT:     -10.4     10.591     14.396
REMARK  Name = 46937091
REMARK  8 active torsions:
REMARK  status: ('A' for Active; 'I' for Inactive)
REMARK    1  A    between atoms: C_1  and  C_4
REMARK    2  A    between atoms: C_1  and  C_18
REMARK    3  A    between atoms: C_10  and  C_12
REMARK    4  A    between atoms: C_18  and  C_19
REMARK    5  A    between atoms: C_19  and  N_20
REMARK    6  A    between atoms: C_19  and  C_30
REMARK    7  A    between atoms: C_24  and  C_27
REMARK    8  A    between atoms: C_30  and  O_32
REMARK                            x       y       z     vdW  Elec       q    Type
REMARK                         _______ _______ _______ _____ _____    ______ ____
ROOT
ATOM      1  C   UNL     1      32.114 -12.218 -21.472  0.00  0.00    +0.031 C 
ENDROOT
BRANCH   1   4
ATOM      2  O   UNL     1      32.343  -9.185 -21.788  0.00  0.00    -0.425 OA
ATOM      3  N   UNL     1      32.179  -7.603 -20.174  0.00  0.00    -0.368 NA
ATOM      4  C   UNL     1      31.999 -11.186 -20.379  0.00  0.00    +0.014 C 
ATOM      5  C   UNL     1      32.116  -9.819 -20.600  0.00  0.00    +0.170 C 
ATOM      6  C   UNL     1      31.765 -11.567 -19.053  0.00  0.00    -0.005 C 
ATOM      7  C   UNL     1      32.015  -8.848 -19.614  0.00  0.00    +0.151 C 
ATOM      8  C   UNL     1      31.657 -10.619 -18.029  0.00  0.00    -0.019 C 
ATOM      9  C   UNL     1      31.779  -9.246 -18.291  0.00  0.00    +0.088 C 
ATOM     10  C   UNL     1      32.367  -7.867 -21.448  0.00  0.00    +0.282 C 
BRANCH  10  12
ATOM     11 CL   UNL     1      33.315  -4.115 -25.964  0.00  0.00    -0.082 Cl
ATOM     12  C   UNL     1      32.595  -6.960 -22.539  0.00  0.00    +0.066 C 
ATOM     13  C   UNL     1      33.704  -7.132 -23.367  0.00  0.00    +0.007 C 
ATOM     14  C   UNL     1      31.709  -5.909 -22.770  0.00  0.00    +0.007 C 
ATOM     15  C   UNL     1      33.927  -6.252 -24.426  0.00  0.00    +0.012 C 
ATOM     16  C   UNL     1      31.931  -5.029 -23.829  0.00  0.00    +0.012 C 
ATOM     17  C   UNL     1      33.040  -5.201 -24.657  0.00  0.00    +0.058 C 
ENDBRANCH  10  12
ENDBRANCH   1   4
BRANCH   1  18
ATOM     18  C   UNL     1      33.498 -12.284 -22.141  0.00  0.00    +0.023 C 
BRANCH  18  19
ATOM     19  C   UNL     1      33.571 -13.162 -23.419  0.00  0.00    +0.087 C 
BRANCH  19  20
ATOM     20  N   UNL     1      34.293 -14.482 -23.186  0.00  0.00    -0.246 NA
ATOM     21  N   UNL     1      35.151 -16.487 -23.607  0.00  0.00    -0.251 NA
ATOM     22  C   UNL     1      34.860 -14.899 -22.016  0.00  0.00    +0.125 C 
ATOM     23  C   UNL     1      34.492 -15.467 -24.113  0.00  0.00    +0.201 C 
ATOM     24  C   UNL     1      35.384 -16.139 -22.300  0.00  0.00    +0.124 C 
BRANCH  24  27
ATOM     25  O   UNL     1      35.708 -17.157 -20.201  0.00  0.00    -0.269 OA
ATOM     26  N   UNL     1      37.219 -17.675 -21.846  0.00  0.00    -0.324 N 
ATOM     27  C   UNL     1      36.084 -16.990 -21.388  0.00  0.00    +0.257 C 
ATOM     28  H   UNL     1      37.717 -18.267 -21.236  0.00  0.00    +0.145 HD
ATOM     29  H   UNL     1      37.518 -17.565 -22.777  0.00  0.00    +0.145 HD
ENDBRANCH  24  27
ENDBRANCH  19  20
BRANCH  19  30
ATOM     30  C   UNL     1      34.161 -12.349 -24.603  0.00  0.00    +0.125 C 
ATOM     31  C   UNL     1      34.164 -10.841 -24.375  0.00  0.00    +0.033 C 
BRANCH  30  32
ATOM     32  O   UNL     1      33.466 -12.640 -25.813  0.00  0.00    -0.383 OA
ATOM     33  H   UNL     1      32.622 -12.162 -25.823  0.00  0.00    +0.210 HD
ENDBRANCH  30  32
ENDBRANCH  19  30
ENDBRANCH  18  19
ENDBRANCH   1  18
TORSDOF 8
ENDMDL
MODEL 6
REMARK VINA RESULT:     -10.3      3.576      8.543
REMARK  Name = 46937091
REMARK  8 active torsions:
REMARK  status: ('A' for Active; 'I' for Inactive)
REMARK    1  A    between atoms: C_1  and  C_4
REMARK    2  A    between atoms: C_1  and  C_18
REMARK    3  A    between atoms: C_10  and  C_12
REMARK    4  A    between atoms: C_18  and  C_19
REMARK    5  A    between atoms: C_19  and  N_20
REMARK    6  A    between atoms: C_19  and  C_30
REMARK    7  A    between atoms: C_24  and  C_27
REMARK    8  A    between atoms: C_30  and  O_32
REMARK                            x       y       z     vdW  Elec       q    Type
REMARK                         _______ _______ _______ _____ _____    ______ ____
ROOT
ATOM      1  C   UNL     1      32.303 -22.093 -17.640  0.00  0.00    +0.031 C 
ENDROOT
BRANCH   1   4
ATOM      2  O   UNL     1      34.990 -22.291 -16.193  0.00  0.00    -0.425 OA
ATOM      3  N   UNL     1      36.991 -21.461 -16.858  0.00  0.00    -0.368 NA
ATOM      4  C   UNL     1      33.622 -21.532 -18.106  0.00  0.00    +0.014 C 
ATOM      5  C   UNL     1      34.807 -21.662 -17.391  0.00  0.00    +0.170 C 
ATOM      6  C   UNL     1      33.718 -20.834 -19.314  0.00  0.00    -0.005 C 
ATOM      7  C   UNL     1      36.033 -21.156 -17.795  0.00  0.00    +0.151 C 
ATOM      8  C   UNL     1      34.937 -20.307 -19.759  0.00  0.00    -0.019 C 
ATOM      9  C   UNL     1      36.113 -20.459 -19.009  0.00  0.00    +0.088 C 
ATOM     10  C   UNL     1      36.319 -22.126 -15.945  0.00  0.00    +0.282 C 
BRANCH  10  12
ATOM     11 CL   UNL     1      38.254 -24.531 -10.861  0.00  0.00    -0.082 Cl
ATOM     12  C   UNL     1      36.786 -22.707 -14.716  0.00  0.00    +0.066 C 
ATOM     13  C   UNL     1      37.988 -23.414 -14.692  0.00  0.00    +0.007 C 
ATOM     14  C   UNL     1      36.039 -22.564 -13.548  0.00  0.00    +0.007 C 
ATOM     15  C   UNL     1      38.442 -23.978 -13.500  0.00  0.00    +0.012 C 
ATOM     16  C   UNL     1      36.492 -23.128 -12.356  0.00  0.00    +0.012 C 
ATOM     17  C   UNL     1      37.695 -23.835 -12.332  0.00  0.00    +0.058 C 
ENDBRANCH  10  12
ENDBRANCH   1   4
BRANCH   1  18
ATOM     18  C   UNL     1      32.115 -22.090 -16.113  0.00  0.00    +0.023 C 
BRANCH  18  19
ATOM     19  C   UNL     1      31.253 -23.253 -15.553  0.00  0.00    +0.087 C 
BRANCH  19  20
ATOM     20  N   UNL     1      29.773 -23.097 -15.876  0.00  0.00    -0.246 NA
ATOM     21  N   UNL     1      27.740 -23.603 -16.614  0.00  0.00    -0.251 NA
ATOM     22  C   UNL     1      29.001 -21.999 -15.627  0.00  0.00    +0.125 C 
ATOM     23  C   UNL     1      28.974 -24.035 -16.469  0.00  0.00    +0.201 C 
ATOM     24  C   UNL     1      27.751 -22.333 -16.091  0.00  0.00    +0.124 C 
BRANCH  24  27
ATOM     25  O   UNL     1      25.781 -21.516 -15.091  0.00  0.00    -0.269 OA
ATOM     26  N   UNL     1      26.348 -20.635 -17.131  0.00  0.00    -0.324 N 
ATOM     27  C   UNL     1      26.586 -21.504 -16.056  0.00  0.00    +0.257 C 
ATOM     28  H   UNL     1      25.552 -20.055 -17.128  0.00  0.00    +0.145 HD
ATOM     29  H   UNL     1      26.976 -20.605 -17.887  0.00  0.00    +0.145 HD
ENDBRANCH  24  27
ENDBRANCH  19  20
BRANCH  19  30
ATOM     30  C   UNL     1      31.525 -23.449 -14.037  0.00  0.00    +0.125 C 
ATOM     31  C   UNL     1      32.325 -22.317 -13.402  0.00  0.00    +0.033 C 
BRANCH  30  32
ATOM     32  O   UNL     1      32.190 -24.687 -13.797  0.00  0.00    -0.383 OA
ATOM     33  H   UNL     1      33.148 -24.537 -13.764  0.00  0.00    +0.210 HD
ENDBRANCH  30  32
ENDBRANCH  19  30
ENDBRANCH  18  19
ENDBRANCH   1  18
TORSDOF 8
ENDMDL
MODEL 7
REMARK VINA RESULT:     -10.2      7.762     12.665
REMARK  Name = 46937091
REMARK  8 active torsions:
REMARK  status: ('A' for Active; 'I' for Inactive)
REMARK    1  A    between atoms: C_1  and  C_4
REMARK    2  A    between atoms: C_1  and  C_18
REMARK    3  A    between atoms: C_10  and  C_12
REMARK    4  A    between atoms: C_18  and  C_19
REMARK    5  A    between atoms: C_19  and  N_20
REMARK    6  A    between atoms: C_19  and  C_30
REMARK    7  A    between atoms: C_24  and  C_27
REMARK    8  A    between atoms: C_30  and  O_32
REMARK                            x       y       z     vdW  Elec       q    Type
REMARK                         _______ _______ _______ _____ _____    ______ ____
ROOT
ATOM      1  C   UNL     1      35.283 -14.404 -22.362  0.00  0.00    +0.031 C 
ENDROOT
BRANCH   1   4
ATOM      2  O   UNL     1      35.271 -17.340 -21.510  0.00  0.00    -0.425 OA
ATOM      3  N   UNL     1      34.608 -19.137 -22.722  0.00  0.00    -0.368 NA
ATOM      4  C   UNL     1      34.835 -15.581 -23.190  0.00  0.00    +0.014 C 
ATOM      5  C   UNL     1      34.859 -16.894 -22.732  0.00  0.00    +0.170 C 
ATOM      6  C   UNL     1      34.361 -15.404 -24.494  0.00  0.00    -0.005 C 
ATOM      7  C   UNL     1      34.453 -17.996 -23.471  0.00  0.00    +0.151 C 
ATOM      8  C   UNL     1      33.943 -16.489 -25.274  0.00  0.00    -0.019 C 
ATOM      9  C   UNL     1      33.981 -17.800 -24.777  0.00  0.00    +0.088 C 
ATOM     10  C   UNL     1      35.090 -18.688 -21.584  0.00  0.00    +0.282 C 
BRANCH  10  12
ATOM     11 CL   UNL     1      36.603 -21.708 -16.689  0.00  0.00    -0.082 Cl
ATOM     12  C   UNL     1      35.455 -19.418 -20.401  0.00  0.00    +0.066 C 
ATOM     13  C   UNL     1      36.769 -19.378 -19.935  0.00  0.00    +0.007 C 
ATOM     14  C   UNL     1      34.496 -20.166 -19.718  0.00  0.00    +0.007 C 
ATOM     15  C   UNL     1      37.124 -20.086 -18.787  0.00  0.00    +0.012 C 
ATOM     16  C   UNL     1      34.851 -20.874 -18.571  0.00  0.00    +0.012 C 
ATOM     17  C   UNL     1      36.165 -20.834 -18.105  0.00  0.00    +0.058 C 
ENDBRANCH  10  12
ENDBRANCH   1   4
BRANCH   1  18
ATOM     18  C   UNL     1      34.225 -13.882 -21.374  0.00  0.00    +0.023 C 
BRANCH  18  19
ATOM     19  C   UNL     1      33.142 -12.960 -21.995  0.00  0.00    +0.087 C 
BRANCH  19  20
ATOM     20  N   UNL     1      33.681 -12.098 -23.129  0.00  0.00    -0.246 NA
ATOM     21  N   UNL     1      34.071 -11.386 -25.196  0.00  0.00    -0.251 NA
ATOM     22  C   UNL     1      34.460 -10.984 -23.000  0.00  0.00    +0.125 C 
ATOM     23  C   UNL     1      33.473 -12.301 -24.465  0.00  0.00    +0.201 C 
ATOM     24  C   UNL     1      34.687 -10.561 -24.288  0.00  0.00    +0.124 C 
BRANCH  24  27
ATOM     25  O   UNL     1      35.700  -9.156 -25.884  0.00  0.00    -0.269 OA
ATOM     26  N   UNL     1      35.943  -8.563 -23.683  0.00  0.00    -0.324 N 
ATOM     27  C   UNL     1      35.458  -9.422 -24.680  0.00  0.00    +0.257 C 
ATOM     28  H   UNL     1      36.476  -7.772 -23.929  0.00  0.00    +0.145 HD
ATOM     29  H   UNL     1      35.751  -8.751 -22.736  0.00  0.00    +0.145 HD
ENDBRANCH  24  27
ENDBRANCH  19  20
BRANCH  19  30
ATOM     30  C   UNL     1      32.436 -12.131 -20.888  0.00  0.00    +0.125 C 
ATOM     31  C   UNL     1      32.138 -12.923 -19.620  0.00  0.00    +0.033 C 
BRANCH  30  32
ATOM     32  O   UNL     1      31.226 -11.558 -21.379  0.00  0.00    -0.383 OA
ATOM     33  H   UNL     1      31.189 -10.621 -21.133  0.00  0.00    +0.210 HD
ENDBRANCH  30  32
ENDBRANCH  19  30
ENDBRANCH  18  19
ENDBRANCH   1  18
TORSDOF 8
ENDMDL
MODEL 8
REMARK VINA RESULT:     -10.2      2.946      5.782
REMARK  Name = 46937091
REMARK  8 active torsions:
REMARK  status: ('A' for Active; 'I' for Inactive)
REMARK    1  A    between atoms: C_1  and  C_4
REMARK    2  A    between atoms: C_1  and  C_18
REMARK    3  A    between atoms: C_10  and  C_12
REMARK    4  A    between atoms: C_18  and  C_19
REMARK    5  A    between atoms: C_19  and  N_20
REMARK    6  A    between atoms: C_19  and  C_30
REMARK    7  A    between atoms: C_24  and  C_27
REMARK    8  A    between atoms: C_30  and  O_32
REMARK                            x       y       z     vdW  Elec       q    Type
REMARK                         _______ _______ _______ _____ _____    ______ ____
ROOT
ATOM      1  C   UNL     1      32.943 -21.671 -17.854  0.00  0.00    +0.031 C 
ENDROOT
BRANCH   1   4
ATOM      2  O   UNL     1      34.575 -19.854 -19.694  0.00  0.00    -0.425 OA
ATOM      3  N   UNL     1      36.797 -19.421 -19.605  0.00  0.00    -0.368 NA
ATOM      4  C   UNL     1      34.423 -21.399 -17.771  0.00  0.00    +0.014 C 
ATOM      5  C   UNL     1      35.098 -20.558 -18.648  0.00  0.00    +0.170 C 
ATOM      6  C   UNL     1      35.209 -21.999 -16.782  0.00  0.00    -0.005 C 
ATOM      7  C   UNL     1      36.459 -20.290 -18.596  0.00  0.00    +0.151 C 
ATOM      8  C   UNL     1      36.586 -21.756 -16.695  0.00  0.00    -0.019 C 
ATOM      9  C   UNL     1      37.232 -20.899 -17.598  0.00  0.00    +0.088 C 
ATOM     10  C   UNL     1      35.652 -19.202 -20.212  0.00  0.00    +0.282 C 
BRANCH  10  12
ATOM     11 CL   UNL     1      34.493 -15.760 -24.922  0.00  0.00    -0.082 Cl
ATOM     12  C   UNL     1      35.372 -18.371 -21.351  0.00  0.00    +0.066 C 
ATOM     13  C   UNL     1      35.677 -17.011 -21.312  0.00  0.00    +0.007 C 
ATOM     14  C   UNL     1      34.795 -18.924 -22.494  0.00  0.00    +0.007 C 
ATOM     15  C   UNL     1      35.405 -16.203 -22.417  0.00  0.00    +0.012 C 
ATOM     16  C   UNL     1      34.523 -18.117 -23.598  0.00  0.00    +0.012 C 
ATOM     17  C   UNL     1      34.829 -16.756 -23.560  0.00  0.00    +0.058 C 
ENDBRANCH  10  12
ENDBRANCH   1   4
BRANCH   1  18
ATOM     18  C   UNL     1      32.453 -22.807 -16.939  0.00  0.00    +0.023 C 
BRANCH  18  19
ATOM     19  C   UNL     1      31.802 -22.346 -15.608  0.00  0.00    +0.087 C 
BRANCH  19  20
ATOM     20  N   UNL     1      32.495 -22.925 -14.381  0.00  0.00    -0.246 NA
ATOM     21  N   UNL     1      32.761 -23.991 -12.451  0.00  0.00    -0.251 NA
ATOM     22  C   UNL     1      33.827 -22.845 -14.091  0.00  0.00    +0.125 C 
ATOM     23  C   UNL     1      31.895 -23.622 -13.369  0.00  0.00    +0.201 C 
ATOM     24  C   UNL     1      33.968 -23.509 -12.895  0.00  0.00    +0.124 C 
BRANCH  24  27
ATOM     25  O   UNL     1      35.216 -24.219 -11.028  0.00  0.00    -0.269 OA
ATOM     26  N   UNL     1      36.392 -23.305 -12.772  0.00  0.00    -0.324 N 
ATOM     27  C   UNL     1      35.187 -23.699 -12.172  0.00  0.00    +0.257 C 
ATOM     28  H   UNL     1      37.244 -23.426 -12.293  0.00  0.00    +0.145 HD
ATOM     29  H   UNL     1      36.386 -22.908 -13.672  0.00  0.00    +0.145 HD
ENDBRANCH  24  27
ENDBRANCH  19  20
BRANCH  19  30
ATOM     30  C   UNL     1      30.274 -22.623 -15.626  0.00  0.00    +0.125 C 
ATOM     31  C   UNL     1      29.916 -24.093 -15.814  0.00  0.00    +0.033 C 
BRANCH  30  32
ATOM     32  O   UNL     1      29.632 -21.849 -16.637  0.00  0.00    -0.383 OA
ATOM     33  H   UNL     1      28.759 -22.228 -16.828  0.00  0.00    +0.210 HD
ENDBRANCH  30  32
ENDBRANCH  19  30
ENDBRANCH  18  19
ENDBRANCH   1  18
TORSDOF 8
ENDMDL
MODEL 9
REMARK VINA RESULT:     -10.1      7.443     11.065
REMARK  Name = 46937091
REMARK  8 active torsions:
REMARK  status: ('A' for Active; 'I' for Inactive)
REMARK    1  A    between atoms: C_1  and  C_4
REMARK    2  A    between atoms: C_1  and  C_18
REMARK    3  A    between atoms: C_10  and  C_12
REMARK    4  A    between atoms: C_18  and  C_19
REMARK    5  A    between atoms: C_19  and  N_20
REMARK    6  A    between atoms: C_19  and  C_30
REMARK    7  A    between atoms: C_24  and  C_27
REMARK    8  A    between atoms: C_30  and  O_32
REMARK                            x       y       z     vdW  Elec       q    Type
REMARK                         _______ _______ _______ _____ _____    ______ ____
ROOT
ATOM      1  C   UNL     1      35.242 -14.929 -21.073  0.00  0.00    +0.031 C 
ENDROOT
BRANCH   1   4
ATOM      2  O   UNL     1      34.610 -12.227 -22.357  0.00  0.00    -0.425 OA
ATOM      3  N   UNL     1      32.887 -10.833 -21.886  0.00  0.00    -0.368 NA
ATOM      4  C   UNL     1      34.086 -14.021 -20.741  0.00  0.00    +0.014 C 
ATOM      5  C   UNL     1      33.863 -12.801 -21.370  0.00  0.00    +0.170 C 
ATOM      6  C   UNL     1      33.158 -14.371 -19.754  0.00  0.00    -0.005 C 
ATOM      7  C   UNL     1      32.809 -11.946 -21.084  0.00  0.00    +0.151 C 
ATOM      8  C   UNL     1      32.080 -13.536 -19.435  0.00  0.00    -0.019 C 
ATOM      9  C   UNL     1      31.888 -12.312 -20.093  0.00  0.00    +0.088 C 
ATOM     10  C   UNL     1      33.962 -11.056 -22.609  0.00  0.00    +0.282 C 
BRANCH  10  12
ATOM     11 CL   UNL     1      36.414  -7.672 -26.841  0.00  0.00    -0.082 Cl
ATOM     12  C   UNL     1      34.554 -10.239 -23.632  0.00  0.00    +0.066 C 
ATOM     13  C   UNL     1      35.029  -8.965 -23.319  0.00  0.00    +0.007 C 
ATOM     14  C   UNL     1      34.655 -10.719 -24.938  0.00  0.00    +0.007 C 
ATOM     15  C   UNL     1      35.604  -8.172 -24.311  0.00  0.00    +0.012 C 
ATOM     16  C   UNL     1      35.230  -9.925 -25.930  0.00  0.00    +0.012 C 
ATOM     17  C   UNL     1      35.705  -8.652 -25.617  0.00  0.00    +0.058 C 
ENDBRANCH  10  12
ENDBRANCH   1   4
BRANCH   1  18
ATOM     18  C   UNL     1      35.247 -16.260 -20.302  0.00  0.00    +0.023 C 
BRANCH  18  19
ATOM     19  C   UNL     1      34.781 -17.496 -21.117  0.00  0.00    +0.087 C 
BRANCH  19  20
ATOM     20  N   UNL     1      34.896 -18.797 -20.333  0.00  0.00    -0.246 NA
ATOM     21  N   UNL     1      35.820 -20.461 -19.189  0.00  0.00    -0.251 NA
ATOM     22  C   UNL     1      33.874 -19.646 -20.018  0.00  0.00    +0.125 C 
ATOM     23  C   UNL     1      36.045 -19.327 -19.814  0.00  0.00    +0.201 C 
ATOM     24  C   UNL     1      34.468 -20.666 -19.312  0.00  0.00    +0.124 C 
BRANCH  24  27
ATOM     25  O   UNL     1      34.189 -22.983 -18.995  0.00  0.00    -0.269 OA
ATOM     26  N   UNL     1      32.708 -21.606 -17.916  0.00  0.00    -0.324 N 
ATOM     27  C   UNL     1      33.808 -21.809 -18.761  0.00  0.00    +0.257 C 
ATOM     28  H   UNL     1      32.237 -22.378 -17.525  0.00  0.00    +0.145 HD
ATOM     29  H   UNL     1      32.405 -20.692 -17.713  0.00  0.00    +0.145 HD
ENDBRANCH  24  27
ENDBRANCH  19  20
BRANCH  19  30
ATOM     30  C   UNL     1      35.509 -17.549 -22.487  0.00  0.00    +0.125 C 
ATOM     31  C   UNL     1      35.055 -18.696 -23.383  0.00  0.00    +0.033 C 
BRANCH  30  32
ATOM     32  O   UNL     1      36.921 -17.623 -22.307  0.00  0.00    -0.383 OA
ATOM     33  H   UNL     1      37.117 -17.969 -21.423  0.00  0.00    +0.210 HD
ENDBRANCH  30  32
ENDBRANCH  19  30
ENDBRANCH  18  19
ENDBRANCH   1  18
TORSDOF 8
ENDMDL
