MODEL 1
REMARK VINA RESULT:     -11.6      0.000      0.000
REMARK  Name = 4565
REMARK  4 active torsions:
REMARK  status: ('A' for Active; 'I' for Inactive)
REMARK    1  A    between atoms: N_5  and  C_15
REMARK    2  A    between atoms: C_6  and  O_21
REMARK    3  A    between atoms: O_21  and  C_22
REMARK    4  A    between atoms: C_22  and  C_23
REMARK                            x       y       z     vdW  Elec       q    Type
REMARK                         _______ _______ _______ _____ _____    ______ ____
ROOT
ATOM      1  N   UNL     1      33.958 -23.186 -14.071  0.00  0.00    -0.293 NA
ATOM      2  N   UNL     1      30.551 -23.224 -15.455  0.00  0.00    -0.266 NA
ATOM      3  N   UNL     1      32.340 -24.403 -12.708  0.00  0.00    -0.316 NA
ATOM      4  N   UNL     1      30.092 -24.420 -13.631  0.00  0.00    -0.296 N 
ATOM      5  N   UNL     1      34.583 -24.219 -12.064  0.00  0.00    -0.238 N 
ATOM      6  C   UNL     1      33.016 -22.879 -14.989  0.00  0.00    +0.288 C 
ATOM      7  C   UNL     1      31.730 -23.330 -14.774  0.00  0.00    +0.215 C 
ATOM      8  C   UNL     1      31.420 -24.077 -13.646  0.00  0.00    +0.196 C 
ATOM      9  C   UNL     1      33.567 -23.920 -13.001  0.00  0.00    +0.207 C 
ATOM     10  C   UNL     1      29.599 -23.893 -14.731  0.00  0.00    +0.164 C 
ATOM     11  H   UNL     1      30.409 -22.753 -16.308  0.00  0.00    +0.126 HD
ATOM     12  H   UNL     1      29.614 -24.945 -12.949  0.00  0.00    +0.150 HD
ATOM     13  H   UNL     1      34.270 -24.753 -11.297  0.00  0.00    +0.166 HD
ENDROOT
BRANCH   5  15
ATOM     14 CL   UNL     1      39.401 -25.478 -13.299  0.00  0.00    -0.082 Cl
ATOM     15  C   UNL     1      35.952 -23.904 -12.013  0.00  0.00    +0.059 C 
ATOM     16  C   UNL     1      36.890 -24.749 -12.611  0.00  0.00    +0.027 C 
ATOM     17  C   UNL     1      36.381 -22.744 -11.363  0.00  0.00    +0.015 C 
ATOM     18  C   UNL     1      38.248 -24.435 -12.560  0.00  0.00    +0.059 C 
ATOM     19  C   UNL     1      37.739 -22.430 -11.313  0.00  0.00    +0.002 C 
ATOM     20  C   UNL     1      38.673 -23.276 -11.912  0.00  0.00    +0.011 C 
ENDBRANCH   5  15
BRANCH   6  21
ATOM     21  O   UNL     1      33.379 -22.136 -16.086  0.00  0.00    -0.453 OA
BRANCH  21  22
ATOM     22  C   UNL     1      34.590 -22.487 -16.729  0.00  0.00    +0.208 C 
BRANCH  22  23
ATOM     23  C   UNL     1      34.591 -21.874 -18.128  0.00  0.00    +0.044 C 
ATOM     24  C   UNL     1      33.324 -21.038 -18.354  0.00  0.00    +0.004 C 
ATOM     25  C   UNL     1      35.852 -21.027 -18.347  0.00  0.00    +0.004 C 
ATOM     26  C   UNL     1      33.328 -20.371 -19.728  0.00  0.00    +0.000 C 
ATOM     27  C   UNL     1      35.850 -20.359 -19.721  0.00  0.00    +0.000 C 
ATOM     28  C   UNL     1      34.585 -19.536 -19.945  0.00  0.00    +0.000 C 
ENDBRANCH  22  23
ENDBRANCH  21  22
ENDBRANCH   6  21
TORSDOF 4
ENDMDL
MODEL 2
REMARK VINA RESULT:     -11.5      1.576      2.229
REMARK  Name = 4565
REMARK  4 active torsions:
REMARK  status: ('A' for Active; 'I' for Inactive)
REMARK    1  A    between atoms: N_5  and  C_15
REMARK    2  A    between atoms: C_6  and  O_21
REMARK    3  A    between atoms: O_21  and  C_22
REMARK    4  A    between atoms: C_22  and  C_23
REMARK                            x       y       z     vdW  Elec       q    Type
REMARK                         _______ _______ _______ _____ _____    ______ ____
ROOT
ATOM      1  N   UNL     1      32.906 -22.875 -15.314  0.00  0.00    -0.293 NA
ATOM      2  N   UNL     1      29.437 -22.417 -16.448  0.00  0.00    -0.266 NA
ATOM      3  N   UNL     1      31.237 -23.913 -13.867  0.00  0.00    -0.316 NA
ATOM      4  N   UNL     1      28.949 -23.603 -14.625  0.00  0.00    -0.296 N 
ATOM      5  N   UNL     1      33.523 -24.048 -13.383  0.00  0.00    -0.238 N 
ATOM      6  C   UNL     1      31.953 -22.416 -16.154  0.00  0.00    +0.288 C 
ATOM      7  C   UNL     1      30.636 -22.700 -15.858  0.00  0.00    +0.215 C 
ATOM      8  C   UNL     1      30.306 -23.437 -14.728  0.00  0.00    +0.196 C 
ATOM      9  C   UNL     1      32.494 -23.586 -14.236  0.00  0.00    +0.207 C 
ATOM     10  C   UNL     1      28.457 -22.979 -15.674  0.00  0.00    +0.164 C 
ATOM     11  H   UNL     1      29.302 -21.904 -17.278  0.00  0.00    +0.126 HD
ATOM     12  H   UNL     1      28.453 -24.083 -13.923  0.00  0.00    +0.150 HD
ATOM     13  H   UNL     1      33.195 -24.561 -12.609  0.00  0.00    +0.166 HD
ENDROOT
BRANCH   5  15
ATOM     14 CL   UNL     1      37.797 -22.194 -11.233  0.00  0.00    -0.082 Cl
ATOM     15  C   UNL     1      34.923 -23.917 -13.424  0.00  0.00    +0.059 C 
ATOM     16  C   UNL     1      35.590 -23.203 -12.425  0.00  0.00    +0.027 C 
ATOM     17  C   UNL     1      35.652 -24.501 -14.462  0.00  0.00    +0.015 C 
ATOM     18  C   UNL     1      36.978 -23.074 -12.465  0.00  0.00    +0.059 C 
ATOM     19  C   UNL     1      37.040 -24.373 -14.502  0.00  0.00    +0.002 C 
ATOM     20  C   UNL     1      37.703 -23.659 -13.503  0.00  0.00    +0.011 C 
ENDBRANCH   5  15
BRANCH   6  21
ATOM     21  O   UNL     1      32.335 -21.691 -17.257  0.00  0.00    -0.453 OA
BRANCH  21  22
ATOM     22  C   UNL     1      33.497 -22.124 -17.940  0.00  0.00    +0.208 C 
BRANCH  22  23
ATOM     23  C   UNL     1      34.221 -20.897 -18.489  0.00  0.00    +0.044 C 
ATOM     24  C   UNL     1      35.667 -21.247 -18.870  0.00  0.00    +0.004 C 
ATOM     25  C   UNL     1      33.466 -20.313 -19.690  0.00  0.00    +0.004 C 
ATOM     26  C   UNL     1      36.397 -20.048 -19.472  0.00  0.00    +0.000 C 
ATOM     27  C   UNL     1      34.200 -19.116 -20.290  0.00  0.00    +0.000 C 
ATOM     28  C   UNL     1      35.638 -19.465 -20.660  0.00  0.00    +0.000 C 
ENDBRANCH  22  23
ENDBRANCH  21  22
ENDBRANCH   6  21
TORSDOF 4
ENDMDL
MODEL 3
REMARK VINA RESULT:     -11.3      2.855      6.607
REMARK  Name = 4565
REMARK  4 active torsions:
REMARK  status: ('A' for Active; 'I' for Inactive)
REMARK    1  A    between atoms: N_5  and  C_15
REMARK    2  A    between atoms: C_6  and  O_21
REMARK    3  A    between atoms: O_21  and  C_22
REMARK    4  A    between atoms: C_22  and  C_23
REMARK                            x       y       z     vdW  Elec       q    Type
REMARK                         _______ _______ _______ _____ _____    ______ ____
ROOT
ATOM      1  N   UNL     1      33.695 -22.400 -16.189  0.00  0.00    -0.293 NA
ATOM      2  N   UNL     1      31.813 -24.110 -13.532  0.00  0.00    -0.266 NA
ATOM      3  N   UNL     1      31.276 -22.394 -16.517  0.00  0.00    -0.316 NA
ATOM      4  N   UNL     1      30.043 -23.527 -14.756  0.00  0.00    -0.296 N 
ATOM      5  N   UNL     1      32.717 -21.377 -18.055  0.00  0.00    -0.238 N 
ATOM      6  C   UNL     1      33.579 -23.090 -15.034  0.00  0.00    +0.288 C 
ATOM      7  C   UNL     1      32.313 -23.437 -14.611  0.00  0.00    +0.215 C 
ATOM      8  C   UNL     1      31.195 -23.085 -15.355  0.00  0.00    +0.196 C 
ATOM      9  C   UNL     1      32.551 -22.098 -16.851  0.00  0.00    +0.207 C 
ATOM     10  C   UNL     1      30.449 -24.138 -13.663  0.00  0.00    +0.164 C 
ATOM     11  H   UNL     1      32.335 -24.504 -12.796  0.00  0.00    +0.126 HD
ATOM     12  H   UNL     1      29.118 -23.412 -15.072  0.00  0.00    +0.150 HD
ATOM     13  H   UNL     1      31.870 -21.171 -18.514  0.00  0.00    +0.166 HD
ENDROOT
BRANCH   5  15
ATOM     14 CL   UNL     1      34.666 -18.480 -21.814  0.00  0.00    -0.082 Cl
ATOM     15  C   UNL     1      33.855 -20.895 -18.726  0.00  0.00    +0.059 C 
ATOM     16  C   UNL     1      33.714 -20.027 -19.812  0.00  0.00    +0.027 C 
ATOM     17  C   UNL     1      35.131 -21.281 -18.310  0.00  0.00    +0.015 C 
ATOM     18  C   UNL     1      34.843 -19.549 -20.477  0.00  0.00    +0.059 C 
ATOM     19  C   UNL     1      36.260 -20.802 -18.974  0.00  0.00    +0.002 C 
ATOM     20  C   UNL     1      36.116 -19.936 -20.059  0.00  0.00    +0.011 C 
ENDBRANCH   5  15
BRANCH   6  21
ATOM     21  O   UNL     1      34.718 -23.412 -14.338  0.00  0.00    -0.453 OA
BRANCH  21  22
ATOM     22  C   UNL     1      35.929 -22.826 -14.779  0.00  0.00    +0.208 C 
BRANCH  22  23
ATOM     23  C   UNL     1      37.092 -23.678 -14.274  0.00  0.00    +0.044 C 
ATOM     24  C   UNL     1      37.533 -23.219 -12.877  0.00  0.00    +0.004 C 
ATOM     25  C   UNL     1      36.711 -25.164 -14.265  0.00  0.00    +0.004 C 
ATOM     26  C   UNL     1      38.660 -24.090 -12.327  0.00  0.00    +0.000 C 
ATOM     27  C   UNL     1      37.840 -26.032 -13.712  0.00  0.00    +0.000 C 
ATOM     28  C   UNL     1      38.282 -25.567 -12.328  0.00  0.00    +0.000 C 
ENDBRANCH  22  23
ENDBRANCH  21  22
ENDBRANCH   6  21
TORSDOF 4
ENDMDL
MODEL 4
REMARK VINA RESULT:     -11.2      2.530      5.255
REMARK  Name = 4565
REMARK  4 active torsions:
REMARK  status: ('A' for Active; 'I' for Inactive)
REMARK    1  A    between atoms: N_5  and  C_15
REMARK    2  A    between atoms: C_6  and  O_21
REMARK    3  A    between atoms: O_21  and  C_22
REMARK    4  A    between atoms: C_22  and  C_23
REMARK                            x       y       z     vdW  Elec       q    Type
REMARK                         _______ _______ _______ _____ _____    ______ ____
ROOT
ATOM      1  N   UNL     1      35.501 -22.709 -15.762  0.00  0.00    -0.293 NA
ATOM      2  N   UNL     1      33.799 -21.123 -18.610  0.00  0.00    -0.266 NA
ATOM      3  N   UNL     1      36.956 -21.326 -17.149  0.00  0.00    -0.316 NA
ATOM      4  N   UNL     1      35.821 -20.283 -19.029  0.00  0.00    -0.296 N 
ATOM      5  N   UNL     1      37.777 -22.454 -15.270  0.00  0.00    -0.238 N 
ATOM      6  C   UNL     1      34.431 -22.438 -16.540  0.00  0.00    +0.288 C 
ATOM      7  C   UNL     1      34.614 -21.610 -17.628  0.00  0.00    +0.215 C 
ATOM      8  C   UNL     1      35.863 -21.074 -17.909  0.00  0.00    +0.196 C 
ATOM      9  C   UNL     1      36.682 -22.144 -16.110  0.00  0.00    +0.207 C 
ATOM     10  C   UNL     1      34.567 -20.333 -19.425  0.00  0.00    +0.164 C 
ATOM     11  H   UNL     1      32.837 -21.305 -18.714  0.00  0.00    +0.126 HD
ATOM     12  H   UNL     1      36.564 -19.788 -19.444  0.00  0.00    +0.150 HD
ATOM     13  H   UNL     1      38.622 -22.029 -15.547  0.00  0.00    +0.166 HD
ENDROOT
BRANCH   5  15
ATOM     14 CL   UNL     1      36.471 -23.267 -10.376  0.00  0.00    -0.082 Cl
ATOM     15  C   UNL     1      37.895 -23.250 -14.117  0.00  0.00    +0.059 C 
ATOM     16  C   UNL     1      37.205 -22.904 -12.952  0.00  0.00    +0.027 C 
ATOM     17  C   UNL     1      38.703 -24.389 -14.131  0.00  0.00    +0.015 C 
ATOM     18  C   UNL     1      37.323 -23.695 -11.809  0.00  0.00    +0.059 C 
ATOM     19  C   UNL     1      38.820 -25.180 -12.988  0.00  0.00    +0.002 C 
ATOM     20  C   UNL     1      38.129 -24.832 -11.826  0.00  0.00    +0.011 C 
ENDBRANCH   5  15
BRANCH   6  21
ATOM     21  O   UNL     1      33.218 -22.995 -16.215  0.00  0.00    -0.453 OA
BRANCH  21  22
ATOM     22  C   UNL     1      32.861 -23.006 -14.845  0.00  0.00    +0.208 C 
BRANCH  22  23
ATOM     23  C   UNL     1      31.339 -22.935 -14.740  0.00  0.00    +0.044 C 
ATOM     24  C   UNL     1      30.742 -22.257 -15.981  0.00  0.00    +0.004 C 
ATOM     25  C   UNL     1      30.744 -24.336 -14.544  0.00  0.00    +0.004 C 
ATOM     26  C   UNL     1      29.216 -22.221 -15.923  0.00  0.00    +0.000 C 
ATOM     27  C   UNL     1      29.218 -24.297 -14.490  0.00  0.00    +0.000 C 
ATOM     28  C   UNL     1      28.628 -23.614 -15.720  0.00  0.00    +0.000 C 
ENDBRANCH  22  23
ENDBRANCH  21  22
ENDBRANCH   6  21
TORSDOF 4
ENDMDL
MODEL 5
REMARK VINA RESULT:     -11.0      2.714      5.574
REMARK  Name = 4565
REMARK  4 active torsions:
REMARK  status: ('A' for Active; 'I' for Inactive)
REMARK    1  A    between atoms: N_5  and  C_15
REMARK    2  A    between atoms: C_6  and  O_21
REMARK    3  A    between atoms: O_21  and  C_22
REMARK    4  A    between atoms: C_22  and  C_23
REMARK                            x       y       z     vdW  Elec       q    Type
REMARK                         _______ _______ _______ _____ _____    ______ ____
ROOT
ATOM      1  N   UNL     1      35.352 -22.156 -16.744  0.00  0.00    -0.293 NA
ATOM      2  N   UNL     1      33.800 -20.556 -19.669  0.00  0.00    -0.266 NA
ATOM      3  N   UNL     1      36.776 -20.516 -17.857  0.00  0.00    -0.316 NA
ATOM      4  N   UNL     1      35.741 -19.465 -19.789  0.00  0.00    -0.296 N 
ATOM      5  N   UNL     1      37.511 -21.685 -15.968  0.00  0.00    -0.238 N 
ATOM      6  C   UNL     1      34.351 -21.947 -17.625  0.00  0.00    +0.288 C 
ATOM      7  C   UNL     1      34.553 -21.022 -18.629  0.00  0.00    +0.215 C 
ATOM      8  C   UNL     1      35.752 -20.330 -18.724  0.00  0.00    +0.196 C 
ATOM      9  C   UNL     1      36.488 -21.436 -16.912  0.00  0.00    +0.207 C 
ATOM     10  C   UNL     1      34.554 -19.625 -20.334  0.00  0.00    +0.164 C 
ATOM     11  H   UNL     1      32.885 -20.836 -19.899  0.00  0.00    +0.126 HD
ATOM     12  H   UNL     1      36.460 -18.859 -20.079  0.00  0.00    +0.150 HD
ATOM     13  H   UNL     1      38.325 -21.149 -16.114  0.00  0.00    +0.166 HD
ENDROOT
BRANCH   5  15
ATOM     14 CL   UNL     1      40.096 -25.355 -13.483  0.00  0.00    -0.082 Cl
ATOM     15  C   UNL     1      37.595 -22.549 -14.862  0.00  0.00    +0.059 C 
ATOM     16  C   UNL     1      38.678 -23.424 -14.735  0.00  0.00    +0.027 C 
ATOM     17  C   UNL     1      36.597 -22.537 -13.885  0.00  0.00    +0.015 C 
ATOM     18  C   UNL     1      38.760 -24.279 -13.637  0.00  0.00    +0.059 C 
ATOM     19  C   UNL     1      36.680 -23.393 -12.787  0.00  0.00    +0.002 C 
ATOM     20  C   UNL     1      37.763 -24.265 -12.663  0.00  0.00    +0.011 C 
ENDBRANCH   5  15
BRANCH   6  21
ATOM     21  O   UNL     1      33.185 -22.660 -17.484  0.00  0.00    -0.453 OA
BRANCH  21  22
ATOM     22  C   UNL     1      32.212 -22.133 -16.601  0.00  0.00    +0.208 C 
BRANCH  22  23
ATOM     23  C   UNL     1      31.907 -23.183 -15.535  0.00  0.00    +0.044 C 
ATOM     24  C   UNL     1      32.781 -22.962 -14.292  0.00  0.00    +0.004 C 
ATOM     25  C   UNL     1      30.418 -23.164 -15.166  0.00  0.00    +0.004 C 
ATOM     26  C   UNL     1      32.457 -23.967 -13.189  0.00  0.00    +0.000 C 
ATOM     27  C   UNL     1      30.098 -24.169 -14.061  0.00  0.00    +0.000 C 
ATOM     28  C   UNL     1      30.975 -23.952 -12.831  0.00  0.00    +0.000 C 
ENDBRANCH  22  23
ENDBRANCH  21  22
ENDBRANCH   6  21
TORSDOF 4
ENDMDL
MODEL 6
REMARK VINA RESULT:     -11.0      3.053      6.741
REMARK  Name = 4565
REMARK  4 active torsions:
REMARK  status: ('A' for Active; 'I' for Inactive)
REMARK    1  A    between atoms: N_5  and  C_15
REMARK    2  A    between atoms: C_6  and  O_21
REMARK    3  A    between atoms: O_21  and  C_22
REMARK    4  A    between atoms: C_22  and  C_23
REMARK                            x       y       z     vdW  Elec       q    Type
REMARK                         _______ _______ _______ _____ _____    ______ ____
ROOT
ATOM      1  N   UNL     1      35.570 -23.072 -15.217  0.00  0.00    -0.293 NA
ATOM      2  N   UNL     1      36.651 -24.868 -12.195  0.00  0.00    -0.266 NA
ATOM      3  N   UNL     1      37.907 -22.704 -14.619  0.00  0.00    -0.316 NA
ATOM      4  N   UNL     1      38.610 -23.894 -12.620  0.00  0.00    -0.296 N 
ATOM      5  N   UNL     1      36.955 -21.683 -16.497  0.00  0.00    -0.238 N 
ATOM      6  C   UNL     1      35.385 -23.892 -14.160  0.00  0.00    +0.288 C 
ATOM      7  C   UNL     1      36.458 -24.125 -13.324  0.00  0.00    +0.215 C 
ATOM      8  C   UNL     1      37.689 -23.530 -13.568  0.00  0.00    +0.196 C 
ATOM      9  C   UNL     1      36.804 -22.535 -15.379  0.00  0.00    +0.207 C 
ATOM     10  C   UNL     1      37.955 -24.699 -11.811  0.00  0.00    +0.164 C 
ATOM     11  H   UNL     1      35.977 -25.424 -11.740  0.00  0.00    +0.126 HD
ATOM     12  H   UNL     1      39.553 -23.617 -12.559  0.00  0.00    +0.150 HD
ATOM     13  H   UNL     1      37.861 -21.308 -16.590  0.00  0.00    +0.166 HD
ENDROOT
BRANCH   5  15
ATOM     14 CL   UNL     1      36.173 -18.982 -20.788  0.00  0.00    -0.082 Cl
ATOM     15  C   UNL     1      36.064 -21.266 -17.502  0.00  0.00    +0.059 C 
ATOM     16  C   UNL     1      36.507 -20.427 -18.528  0.00  0.00    +0.027 C 
ATOM     17  C   UNL     1      34.733 -21.688 -17.479  0.00  0.00    +0.015 C 
ATOM     18  C   UNL     1      35.624 -20.015 -19.525  0.00  0.00    +0.059 C 
ATOM     19  C   UNL     1      33.850 -21.275 -18.476  0.00  0.00    +0.002 C 
ATOM     20  C   UNL     1      34.295 -20.438 -19.500  0.00  0.00    +0.011 C 
ENDBRANCH   5  15
BRANCH   6  21
ATOM     21  O   UNL     1      34.147 -24.454 -13.966  0.00  0.00    -0.453 OA
BRANCH  21  22
ATOM     22  C   UNL     1      33.134 -23.613 -13.445  0.00  0.00    +0.208 C 
BRANCH  22  23
ATOM     23  C   UNL     1      31.895 -23.743 -14.328  0.00  0.00    +0.044 C 
ATOM     24  C   UNL     1      30.717 -24.316 -13.528  0.00  0.00    +0.004 C 
ATOM     25  C   UNL     1      31.526 -22.388 -14.948  0.00  0.00    +0.004 C 
ATOM     26  C   UNL     1      29.450 -24.406 -14.376  0.00  0.00    +0.000 C 
ATOM     27  C   UNL     1      30.257 -22.482 -15.793  0.00  0.00    +0.000 C 
ATOM     28  C   UNL     1      29.092 -23.061 -14.997  0.00  0.00    +0.000 C 
ENDBRANCH  22  23
ENDBRANCH  21  22
ENDBRANCH   6  21
TORSDOF 4
ENDMDL
MODEL 7
REMARK VINA RESULT:     -10.7      8.335     11.698
REMARK  Name = 4565
REMARK  4 active torsions:
REMARK  status: ('A' for Active; 'I' for Inactive)
REMARK    1  A    between atoms: N_5  and  C_15
REMARK    2  A    between atoms: C_6  and  O_21
REMARK    3  A    between atoms: O_21  and  C_22
REMARK    4  A    between atoms: C_22  and  C_23
REMARK                            x       y       z     vdW  Elec       q    Type
REMARK                         _______ _______ _______ _____ _____    ______ ____
ROOT
ATOM      1  N   UNL     1      34.884 -15.461 -22.084  0.00  0.00    -0.293 NA
ATOM      2  N   UNL     1      33.857 -12.562 -24.100  0.00  0.00    -0.266 NA
ATOM      3  N   UNL     1      34.582 -15.951 -24.456  0.00  0.00    -0.316 NA
ATOM      4  N   UNL     1      33.903 -14.029 -25.778  0.00  0.00    -0.296 N 
ATOM      5  N   UNL     1      35.233 -17.612 -22.942  0.00  0.00    -0.238 N 
ATOM      6  C   UNL     1      34.551 -14.165 -22.267  0.00  0.00    +0.288 C 
ATOM      7  C   UNL     1      34.231 -13.751 -23.543  0.00  0.00    +0.215 C 
ATOM      8  C   UNL     1      34.252 -14.646 -24.605  0.00  0.00    +0.196 C 
ATOM      9  C   UNL     1      34.879 -16.264 -23.176  0.00  0.00    +0.207 C 
ATOM     10  C   UNL     1      33.672 -12.778 -25.441  0.00  0.00    +0.164 C 
ATOM     11  H   UNL     1      33.742 -11.706 -23.627  0.00  0.00    +0.126 HD
ATOM     12  H   UNL     1      33.839 -14.432 -26.674  0.00  0.00    +0.150 HD
ATOM     13  H   UNL     1      35.221 -18.172 -23.752  0.00  0.00    +0.166 HD
ENDROOT
BRANCH   5  15
ATOM     14 CL   UNL     1      33.853 -20.734 -19.111  0.00  0.00    -0.082 Cl
ATOM     15  C   UNL     1      35.598 -18.311 -21.777  0.00  0.00    +0.059 C 
ATOM     16  C   UNL     1      34.654 -19.086 -21.098  0.00  0.00    +0.027 C 
ATOM     17  C   UNL     1      36.907 -18.234 -21.294  0.00  0.00    +0.015 C 
ATOM     18  C   UNL     1      35.018 -19.779 -19.944  0.00  0.00    +0.059 C 
ATOM     19  C   UNL     1      37.270 -18.928 -20.140  0.00  0.00    +0.002 C 
ATOM     20  C   UNL     1      36.325 -19.701 -19.465  0.00  0.00    +0.011 C 
ENDBRANCH   5  15
BRANCH   6  21
ATOM     21  O   UNL     1      34.546 -13.323 -21.181  0.00  0.00    -0.453 OA
BRANCH  21  22
ATOM     22  C   UNL     1      33.482 -13.470 -20.259  0.00  0.00    +0.208 C 
BRANCH  22  23
ATOM     23  C   UNL     1      32.814 -12.110 -20.069  0.00  0.00    +0.044 C 
ATOM     24  C   UNL     1      31.918 -11.773 -21.269  0.00  0.00    +0.004 C 
ATOM     25  C   UNL     1      32.011 -12.078 -18.762  0.00  0.00    +0.004 C 
ATOM     26  C   UNL     1      31.198 -10.441 -21.079  0.00  0.00    +0.000 C 
ATOM     27  C   UNL     1      31.289 -10.745 -18.576  0.00  0.00    +0.000 C 
ATOM     28  C   UNL     1      30.407 -10.410 -19.775  0.00  0.00    +0.000 C 
ENDBRANCH  22  23
ENDBRANCH  21  22
ENDBRANCH   6  21
TORSDOF 4
ENDMDL
MODEL 8
REMARK VINA RESULT:     -10.6      1.906      5.883
REMARK  Name = 4565
REMARK  4 active torsions:
REMARK  status: ('A' for Active; 'I' for Inactive)
REMARK    1  A    between atoms: N_5  and  C_15
REMARK    2  A    between atoms: C_6  and  O_21
REMARK    3  A    between atoms: O_21  and  C_22
REMARK    4  A    between atoms: C_22  and  C_23
REMARK                            x       y       z     vdW  Elec       q    Type
REMARK                         _______ _______ _______ _____ _____    ______ ____
ROOT
ATOM      1  N   UNL     1      33.139 -22.832 -15.562  0.00  0.00    -0.293 NA
ATOM      2  N   UNL     1      30.635 -24.435 -13.399  0.00  0.00    -0.266 NA
ATOM      3  N   UNL     1      30.864 -22.754 -16.441  0.00  0.00    -0.316 NA
ATOM      4  N   UNL     1      29.218 -23.817 -15.004  0.00  0.00    -0.296 N 
ATOM      5  N   UNL     1      32.656 -21.810 -17.613  0.00  0.00    -0.238 N 
ATOM      6  C   UNL     1      32.735 -23.498 -14.459  0.00  0.00    +0.288 C 
ATOM      7  C   UNL     1      31.394 -23.797 -14.338  0.00  0.00    +0.215 C 
ATOM      8  C   UNL     1      30.492 -23.422 -15.324  0.00  0.00    +0.196 C 
ATOM      9  C   UNL     1      32.191 -22.505 -16.474  0.00  0.00    +0.207 C 
ATOM     10  C   UNL     1      29.339 -24.422 -13.842  0.00  0.00    +0.164 C 
ATOM     11  H   UNL     1      30.959 -24.833 -12.558  0.00  0.00    +0.126 HD
ATOM     12  H   UNL     1      28.395 -23.678 -15.527  0.00  0.00    +0.150 HD
ATOM     13  H   UNL     1      31.946 -21.585 -18.258  0.00  0.00    +0.166 HD
ENDROOT
BRANCH   5  15
ATOM     14 CL   UNL     1      37.666 -21.469 -16.559  0.00  0.00    -0.082 Cl
ATOM     15  C   UNL     1      33.935 -21.376 -18.007  0.00  0.00    +0.059 C 
ATOM     16  C   UNL     1      35.039 -21.609 -17.184  0.00  0.00    +0.027 C 
ATOM     17  C   UNL     1      34.106 -20.709 -19.223  0.00  0.00    +0.015 C 
ATOM     18  C   UNL     1      36.307 -21.179 -17.575  0.00  0.00    +0.059 C 
ATOM     19  C   UNL     1      35.374 -20.280 -19.614  0.00  0.00    +0.002 C 
ATOM     20  C   UNL     1      36.475 -20.515 -18.789  0.00  0.00    +0.011 C 
ENDBRANCH   5  15
BRANCH   6  21
ATOM     21  O   UNL     1      33.671 -23.844 -13.515  0.00  0.00    -0.453 OA
BRANCH  21  22
ATOM     22  C   UNL     1      34.965 -23.290 -13.658  0.00  0.00    +0.208 C 
BRANCH  22  23
ATOM     23  C   UNL     1      35.994 -24.397 -13.437  0.00  0.00    +0.044 C 
ATOM     24  C   UNL     1      37.103 -24.326 -14.496  0.00  0.00    +0.004 C 
ATOM     25  C   UNL     1      36.583 -24.315 -12.023  0.00  0.00    +0.004 C 
ATOM     26  C   UNL     1      38.172 -25.391 -14.265  0.00  0.00    +0.000 C 
ATOM     27  C   UNL     1      37.654 -25.380 -11.796  0.00  0.00    +0.000 C 
ATOM     28  C   UNL     1      38.750 -25.312 -12.856  0.00  0.00    +0.000 C 
ENDBRANCH  22  23
ENDBRANCH  21  22
ENDBRANCH   6  21
TORSDOF 4
ENDMDL
MODEL 9
REMARK VINA RESULT:     -10.4      3.316      7.342
REMARK  Name = 4565
REMARK  4 active torsions:
REMARK  status: ('A' for Active; 'I' for Inactive)
REMARK    1  A    between atoms: N_5  and  C_15
REMARK    2  A    between atoms: C_6  and  O_21
REMARK    3  A    between atoms: O_21  and  C_22
REMARK    4  A    between atoms: C_22  and  C_23
REMARK                            x       y       z     vdW  Elec       q    Type
REMARK                         _______ _______ _______ _____ _____    ______ ____
ROOT
ATOM      1  N   UNL     1      35.253 -21.947 -16.769  0.00  0.00    -0.293 NA
ATOM      2  N   UNL     1      36.013 -23.903 -13.748  0.00  0.00    -0.266 NA
ATOM      3  N   UNL     1      37.570 -21.773 -16.024  0.00  0.00    -0.316 NA
ATOM      4  N   UNL     1      38.061 -23.069 -14.027  0.00  0.00    -0.296 N 
ATOM      5  N   UNL     1      36.811 -20.632 -17.920  0.00  0.00    -0.238 N 
ATOM      6  C   UNL     1      34.944 -22.780 -15.751  0.00  0.00    +0.288 C 
ATOM      7  C   UNL     1      35.944 -23.116 -14.862  0.00  0.00    +0.215 C 
ATOM      8  C   UNL     1      37.228 -22.609 -15.015  0.00  0.00    +0.196 C 
ATOM      9  C   UNL     1      36.530 -21.501 -16.841  0.00  0.00    +0.207 C 
ATOM     10  C   UNL     1      37.300 -23.843 -13.283  0.00  0.00    +0.164 C 
ATOM     11  H   UNL     1      35.274 -24.419 -13.351  0.00  0.00    +0.126 HD
ATOM     12  H   UNL     1      39.016 -22.865 -13.902  0.00  0.00    +0.150 HD
ATOM     13  H   UNL     1      37.746 -20.324 -17.948  0.00  0.00    +0.166 HD
ENDROOT
BRANCH   5  15
ATOM     14 CL   UNL     1      36.471 -17.695 -22.114  0.00  0.00    -0.082 Cl
ATOM     15  C   UNL     1      36.016 -20.121 -18.962  0.00  0.00    +0.059 C 
ATOM     16  C   UNL     1      36.572 -19.260 -19.912  0.00  0.00    +0.027 C 
ATOM     17  C   UNL     1      34.666 -20.472 -19.051  0.00  0.00    +0.015 C 
ATOM     18  C   UNL     1      35.783 -18.755 -20.944  0.00  0.00    +0.059 C 
ATOM     19  C   UNL     1      33.878 -19.966 -20.084  0.00  0.00    +0.002 C 
ATOM     20  C   UNL     1      34.437 -19.107 -21.032  0.00  0.00    +0.011 C 
ENDBRANCH   5  15
BRANCH   6  21
ATOM     21  O   UNL     1      33.658 -23.252 -15.648  0.00  0.00    -0.453 OA
BRANCH  21  22
ATOM     22  C   UNL     1      32.616 -22.359 -15.996  0.00  0.00    +0.208 C 
BRANCH  22  23
ATOM     23  C   UNL     1      31.414 -22.644 -15.099  0.00  0.00    +0.044 C 
ATOM     24  C   UNL     1      30.121 -22.696 -15.925  0.00  0.00    +0.004 C 
ATOM     25  C   UNL     1      31.616 -23.951 -14.320  0.00  0.00    +0.004 C 
ATOM     26  C   UNL     1      28.910 -23.032 -15.057  0.00  0.00    +0.000 C 
ATOM     27  C   UNL     1      30.403 -24.286 -13.456  0.00  0.00    +0.000 C 
ATOM     28  C   UNL     1      29.119 -24.327 -14.279  0.00  0.00    +0.000 C 
ENDBRANCH  22  23
ENDBRANCH  21  22
ENDBRANCH   6  21
TORSDOF 4
ENDMDL
