MODEL 1
REMARK VINA RESULT:     -11.6      0.000      0.000
REMARK  Name = 5326930
REMARK  4 active torsions:
REMARK  status: ('A' for Active; 'I' for Inactive)
REMARK    1  A    between atoms: C_7  and  C_21
REMARK    2  A    between atoms: C_21  and  C_22
REMARK    3  A    between atoms: C_22  and  C_23
REMARK    4  A    between atoms: C_28  and  O_29
REMARK                            x       y       z     vdW  Elec       q    Type
REMARK                         _______ _______ _______ _____ _____    ______ ____
ROOT
ATOM      1  O   UNL     1      34.847 -23.564 -11.469  0.00  0.00    -0.209 OA
ATOM      2  N   UNL     1      35.761 -23.243 -15.356  0.00  0.00    -0.275 N 
ATOM      3  N   UNL     1      30.426 -22.642 -14.155  0.00  0.00    -0.315 N 
ATOM      4  N   UNL     1      30.966 -22.468 -16.303  0.00  0.00    -0.316 N 
ATOM      5  N   UNL     1      36.449 -23.597 -13.105  0.00  0.00    -0.302 NA
ATOM      6  N   UNL     1      37.976 -23.603 -14.883  0.00  0.00    -0.320 N 
ATOM      7  C   UNL     1      33.434 -22.850 -15.969  0.00  0.00    +0.007 C 
ATOM      8  C   UNL     1      34.417 -23.098 -14.998  0.00  0.00    +0.060 C 
ATOM      9  C   UNL     1      32.096 -22.711 -15.558  0.00  0.00    +0.056 C 
ATOM     10  C   UNL     1      31.785 -22.825 -14.207  0.00  0.00    +0.060 C 
ATOM     11  C   UNL     1      34.063 -23.206 -13.644  0.00  0.00    +0.109 C 
ATOM     12  C   UNL     1      32.734 -23.071 -13.215  0.00  0.00    +0.029 C 
ATOM     13  C   UNL     1      35.148 -23.469 -12.656  0.00  0.00    +0.208 C 
ATOM     14  C   UNL     1      29.984 -22.433 -15.431  0.00  0.00    +0.182 C 
ATOM     15  C   UNL     1      36.703 -23.485 -14.382  0.00  0.00    +0.248 C 
ATOM     16  H   UNL     1      36.032 -23.172 -16.300  0.00  0.00    +0.156 HD
ATOM     17  H   UNL     1      29.870 -22.659 -13.343  0.00  0.00    +0.148 HD
ATOM     18  H   UNL     1      30.905 -22.347 -17.279  0.00  0.00    +0.148 HD
ATOM     19  H   UNL     1      38.135 -23.513 -15.850  0.00  0.00    +0.146 HD
ATOM     20  H   UNL     1      38.730 -23.777 -14.274  0.00  0.00    +0.146 HD
ENDROOT
BRANCH   7  21
ATOM     21  C   UNL     1      33.804 -22.734 -17.414  0.00  0.00    +0.034 C 
BRANCH  21  22
ATOM     22  C   UNL     1      33.194 -21.508 -18.118  0.00  0.00    +0.031 C 
BRANCH  22  23
ATOM     23  C   UNL     1      34.212 -20.685 -18.870  0.00  0.00    -0.022 C 
ATOM     24  C   UNL     1      33.779 -19.756 -19.802  0.00  0.00    -0.001 C 
ATOM     25  C   UNL     1      35.560 -20.875 -18.615  0.00  0.00    -0.001 C 
ATOM     26  C   UNL     1      34.719 -18.995 -20.497  0.00  0.00    +0.037 C 
ATOM     27  C   UNL     1      36.501 -20.113 -19.310  0.00  0.00    +0.037 C 
ATOM     28  C   UNL     1      36.080 -19.174 -20.251  0.00  0.00    +0.139 C 
BRANCH  28  29
ATOM     29  O   UNL     1      36.997 -18.432 -20.929  0.00  0.00    -0.471 OA
ATOM     30  C   UNL     1      36.501 -17.515 -21.902  0.00  0.00    +0.252 C 
ENDBRANCH  28  29
ENDBRANCH  22  23
ENDBRANCH  21  22
ENDBRANCH   7  21
TORSDOF 4
ENDMDL
MODEL 2
REMARK VINA RESULT:     -11.3      1.902      4.439
REMARK  Name = 5326930
REMARK  4 active torsions:
REMARK  status: ('A' for Active; 'I' for Inactive)
REMARK    1  A    between atoms: C_7  and  C_21
REMARK    2  A    between atoms: C_21  and  C_22
REMARK    3  A    between atoms: C_22  and  C_23
REMARK    4  A    between atoms: C_28  and  O_29
REMARK                            x       y       z     vdW  Elec       q    Type
REMARK                         _______ _______ _______ _____ _____    ______ ____
ROOT
ATOM      1  O   UNL     1      28.888 -24.963 -13.541  0.00  0.00    -0.209 OA
ATOM      2  N   UNL     1      29.967 -22.472 -16.486  0.00  0.00    -0.275 N 
ATOM      3  N   UNL     1      34.095 -24.287 -13.334  0.00  0.00    -0.315 N 
ATOM      4  N   UNL     1      34.661 -22.904 -14.978  0.00  0.00    -0.316 N 
ATOM      5  N   UNL     1      28.268 -23.663 -15.321  0.00  0.00    -0.302 NA
ATOM      6  N   UNL     1      27.783 -22.295 -17.160  0.00  0.00    -0.320 N 
ATOM      7  C   UNL     1      32.319 -22.590 -15.854  0.00  0.00    +0.007 C 
ATOM      8  C   UNL     1      30.981 -22.962 -15.656  0.00  0.00    +0.060 C 
ATOM      9  C   UNL     1      33.302 -23.111 -14.992  0.00  0.00    +0.056 C 
ATOM     10  C   UNL     1      32.920 -23.975 -13.970  0.00  0.00    +0.060 C 
ATOM     11  C   UNL     1      30.636 -23.837 -14.614  0.00  0.00    +0.109 C 
ATOM     12  C   UNL     1      31.600 -24.366 -13.743  0.00  0.00    +0.029 C 
ATOM     13  C   UNL     1      29.198 -24.199 -14.450  0.00  0.00    +0.208 C 
ATOM     14  C   UNL     1      35.105 -23.623 -13.972  0.00  0.00    +0.182 C 
ATOM     15  C   UNL     1      28.663 -22.854 -16.268  0.00  0.00    +0.248 C 
ATOM     16  H   UNL     1      30.186 -21.857 -17.223  0.00  0.00    +0.156 HD
ATOM     17  H   UNL     1      34.192 -24.883 -12.557  0.00  0.00    +0.148 HD
ATOM     18  H   UNL     1      35.188 -22.339 -15.589  0.00  0.00    +0.148 HD
ATOM     19  H   UNL     1      28.112 -21.689 -17.863  0.00  0.00    +0.146 HD
ATOM     20  H   UNL     1      26.822 -22.500 -17.097  0.00  0.00    +0.146 HD
ENDROOT
BRANCH   7  21
ATOM     21  C   UNL     1      32.694 -21.658 -16.963  0.00  0.00    +0.034 C 
BRANCH  21  22
ATOM     22  C   UNL     1      33.728 -22.240 -17.945  0.00  0.00    +0.031 C 
BRANCH  22  23
ATOM     23  C   UNL     1      34.448 -21.184 -18.747  0.00  0.00    -0.022 C 
ATOM     24  C   UNL     1      35.832 -21.137 -18.721  0.00  0.00    -0.001 C 
ATOM     25  C   UNL     1      33.711 -20.279 -19.495  0.00  0.00    -0.001 C 
ATOM     26  C   UNL     1      36.498 -20.161 -19.462  0.00  0.00    +0.037 C 
ATOM     27  C   UNL     1      34.377 -19.303 -20.237  0.00  0.00    +0.037 C 
ATOM     28  C   UNL     1      35.770 -19.244 -20.220  0.00  0.00    +0.139 C 
BRANCH  28  29
ATOM     29  O   UNL     1      36.419 -18.291 -20.943  0.00  0.00    -0.471 OA
ATOM     30  C   UNL     1      35.687 -17.658 -21.991  0.00  0.00    +0.252 C 
ENDBRANCH  28  29
ENDBRANCH  22  23
ENDBRANCH  21  22
ENDBRANCH   7  21
TORSDOF 4
ENDMDL
MODEL 3
REMARK VINA RESULT:     -11.2      1.626      2.222
REMARK  Name = 5326930
REMARK  4 active torsions:
REMARK  status: ('A' for Active; 'I' for Inactive)
REMARK    1  A    between atoms: C_7  and  C_21
REMARK    2  A    between atoms: C_21  and  C_22
REMARK    3  A    between atoms: C_22  and  C_23
REMARK    4  A    between atoms: C_28  and  O_29
REMARK                            x       y       z     vdW  Elec       q    Type
REMARK                         _______ _______ _______ _____ _____    ______ ____
ROOT
ATOM      1  O   UNL     1      37.248 -25.600 -11.422  0.00  0.00    -0.209 OA
ATOM      2  N   UNL     1      37.804 -23.627 -14.863  0.00  0.00    -0.275 N 
ATOM      3  N   UNL     1      32.779 -23.138 -12.678  0.00  0.00    -0.315 N 
ATOM      4  N   UNL     1      33.120 -22.054 -14.586  0.00  0.00    -0.316 N 
ATOM      5  N   UNL     1      38.651 -25.034 -13.141  0.00  0.00    -0.302 NA
ATOM      6  N   UNL     1      39.971 -24.371 -14.961  0.00  0.00    -0.320 N 
ATOM      7  C   UNL     1      35.518 -22.778 -14.857  0.00  0.00    +0.007 C 
ATOM      8  C   UNL     1      36.542 -23.535 -14.266  0.00  0.00    +0.060 C 
ATOM      9  C   UNL     1      34.267 -22.717 -14.217  0.00  0.00    +0.056 C 
ATOM     10  C   UNL     1      34.080 -23.405 -13.023  0.00  0.00    +0.060 C 
ATOM     11  C   UNL     1      36.315 -24.215 -13.060  0.00  0.00    +0.109 C 
ATOM     12  C   UNL     1      35.074 -24.166 -12.407  0.00  0.00    +0.029 C 
ATOM     13  C   UNL     1      37.439 -25.003 -12.477  0.00  0.00    +0.208 C 
ATOM     14  C   UNL     1      32.248 -22.328 -13.642  0.00  0.00    +0.182 C 
ATOM     15  C   UNL     1      38.790 -24.375 -14.261  0.00  0.00    +0.248 C 
ATOM     16  H   UNL     1      37.986 -23.158 -15.709  0.00  0.00    +0.156 HD
ATOM     17  H   UNL     1      32.312 -23.472 -11.878  0.00  0.00    +0.148 HD
ATOM     18  H   UNL     1      32.981 -21.495 -15.385  0.00  0.00    +0.148 HD
ATOM     19  H   UNL     1      40.043 -23.865 -15.802  0.00  0.00    +0.146 HD
ATOM     20  H   UNL     1      40.746 -24.875 -14.621  0.00  0.00    +0.146 HD
ENDROOT
BRANCH   7  21
ATOM     21  C   UNL     1      35.754 -22.050 -16.143  0.00  0.00    +0.034 C 
BRANCH  21  22
ATOM     22  C   UNL     1      34.650 -22.268 -17.194  0.00  0.00    +0.031 C 
BRANCH  22  23
ATOM     23  C   UNL     1      34.705 -21.276 -18.330  0.00  0.00    -0.022 C 
ATOM     24  C   UNL     1      33.523 -20.782 -18.858  0.00  0.00    -0.001 C 
ATOM     25  C   UNL     1      35.936 -20.877 -18.825  0.00  0.00    -0.001 C 
ATOM     26  C   UNL     1      33.571 -19.865 -19.907  0.00  0.00    +0.037 C 
ATOM     27  C   UNL     1      35.985 -19.959 -19.875  0.00  0.00    +0.037 C 
ATOM     28  C   UNL     1      34.803 -19.454 -20.416  0.00  0.00    +0.139 C 
BRANCH  28  29
ATOM     29  O   UNL     1      34.852 -18.559 -21.440  0.00  0.00    -0.471 OA
ATOM     30  C   UNL     1      36.081 -17.862 -21.637  0.00  0.00    +0.252 C 
ENDBRANCH  28  29
ENDBRANCH  22  23
ENDBRANCH  21  22
ENDBRANCH   7  21
TORSDOF 4
ENDMDL
MODEL 4
REMARK VINA RESULT:     -11.1      1.218      3.993
REMARK  Name = 5326930
REMARK  4 active torsions:
REMARK  status: ('A' for Active; 'I' for Inactive)
REMARK    1  A    between atoms: C_7  and  C_21
REMARK    2  A    between atoms: C_21  and  C_22
REMARK    3  A    between atoms: C_22  and  C_23
REMARK    4  A    between atoms: C_28  and  O_29
REMARK                            x       y       z     vdW  Elec       q    Type
REMARK                         _______ _______ _______ _____ _____    ______ ____
ROOT
ATOM      1  O   UNL     1      30.827 -23.342 -12.183  0.00  0.00    -0.209 OA
ATOM      2  N   UNL     1      31.573 -22.528 -16.034  0.00  0.00    -0.275 N 
ATOM      3  N   UNL     1      35.995 -23.803 -13.019  0.00  0.00    -0.315 N 
ATOM      4  N   UNL     1      36.375 -23.348 -15.159  0.00  0.00    -0.316 N 
ATOM      5  N   UNL     1      30.021 -22.753 -14.244  0.00  0.00    -0.302 NA
ATOM      6  N   UNL     1      29.341 -22.157 -16.406  0.00  0.00    -0.320 N 
ATOM      7  C   UNL     1      33.966 -22.900 -15.749  0.00  0.00    +0.007 C 
ATOM      8  C   UNL     1      32.665 -22.858 -15.224  0.00  0.00    +0.060 C 
ATOM      9  C   UNL     1      35.030 -23.238 -14.893  0.00  0.00    +0.056 C 
ATOM     10  C   UNL     1      34.765 -23.519 -13.556  0.00  0.00    +0.060 C 
ATOM     11  C   UNL     1      32.438 -23.148 -13.870  0.00  0.00    +0.109 C 
ATOM     12  C   UNL     1      33.485 -23.487 -13.001  0.00  0.00    +0.029 C 
ATOM     13  C   UNL     1      31.035 -23.089 -13.367  0.00  0.00    +0.208 C 
ATOM     14  C   UNL     1      36.923 -23.687 -14.015  0.00  0.00    +0.182 C 
ATOM     15  C   UNL     1      30.308 -22.495 -15.493  0.00  0.00    +0.248 C 
ATOM     16  H   UNL     1      31.710 -22.321 -16.987  0.00  0.00    +0.156 HD
ATOM     17  H   UNL     1      36.175 -24.046 -12.082  0.00  0.00    +0.148 HD
ATOM     18  H   UNL     1      36.829 -23.203 -16.022  0.00  0.00    +0.148 HD
ATOM     19  H   UNL     1      29.590 -21.969 -17.340  0.00  0.00    +0.146 HD
ATOM     20  H   UNL     1      28.398 -22.103 -16.127  0.00  0.00    +0.146 HD
ENDROOT
BRANCH   7  21
ATOM     21  C   UNL     1      34.216 -22.592 -17.191  0.00  0.00    +0.034 C 
BRANCH  21  22
ATOM     22  C   UNL     1      35.337 -21.563 -17.425  0.00  0.00    +0.031 C 
BRANCH  22  23
ATOM     23  C   UNL     1      35.133 -20.731 -18.666  0.00  0.00    -0.022 C 
ATOM     24  C   UNL     1      36.234 -20.187 -19.308  0.00  0.00    -0.001 C 
ATOM     25  C   UNL     1      33.848 -20.523 -19.141  0.00  0.00    -0.001 C 
ATOM     26  C   UNL     1      36.047 -19.417 -20.456  0.00  0.00    +0.037 C 
ATOM     27  C   UNL     1      33.660 -19.753 -20.290  0.00  0.00    +0.037 C 
ATOM     28  C   UNL     1      34.759 -19.200 -20.946  0.00  0.00    +0.139 C 
BRANCH  28  29
ATOM     29  O   UNL     1      34.575 -18.448 -22.065  0.00  0.00    -0.471 OA
ATOM     30  C   UNL     1      35.670 -17.639 -22.493  0.00  0.00    +0.252 C 
ENDBRANCH  28  29
ENDBRANCH  22  23
ENDBRANCH  21  22
ENDBRANCH   7  21
TORSDOF 4
ENDMDL
MODEL 5
REMARK VINA RESULT:     -10.9      3.056      6.516
REMARK  Name = 5326930
REMARK  4 active torsions:
REMARK  status: ('A' for Active; 'I' for Inactive)
REMARK    1  A    between atoms: C_7  and  C_21
REMARK    2  A    between atoms: C_21  and  C_22
REMARK    3  A    between atoms: C_22  and  C_23
REMARK    4  A    between atoms: C_28  and  O_29
REMARK                            x       y       z     vdW  Elec       q    Type
REMARK                         _______ _______ _______ _____ _____    ______ ____
ROOT
ATOM      1  O   UNL     1      37.429 -21.086 -16.781  0.00  0.00    -0.209 OA
ATOM      2  N   UNL     1      33.858 -22.773 -16.113  0.00  0.00    -0.275 N 
ATOM      3  N   UNL     1      37.454 -23.202 -11.971  0.00  0.00    -0.315 N 
ATOM      4  N   UNL     1      35.463 -24.127 -11.631  0.00  0.00    -0.316 N 
ATOM      5  N   UNL     1      35.326 -21.567 -17.547  0.00  0.00    -0.302 NA
ATOM      6  N   UNL     1      33.145 -22.130 -18.195  0.00  0.00    -0.320 N 
ATOM      7  C   UNL     1      34.514 -23.504 -13.881  0.00  0.00    +0.007 C 
ATOM      8  C   UNL     1      34.809 -22.855 -15.090  0.00  0.00    +0.060 C 
ATOM      9  C   UNL     1      35.504 -23.559 -12.883  0.00  0.00    +0.056 C 
ATOM     10  C   UNL     1      36.743 -22.972 -13.122  0.00  0.00    +0.060 C 
ATOM     11  C   UNL     1      36.070 -22.275 -15.293  0.00  0.00    +0.109 C 
ATOM     12  C   UNL     1      37.071 -22.319 -14.310  0.00  0.00    +0.029 C 
ATOM     13  C   UNL     1      36.329 -21.597 -16.596  0.00  0.00    +0.208 C 
ATOM     14  C   UNL     1      36.648 -23.895 -11.113  0.00  0.00    +0.182 C 
ATOM     15  C   UNL     1      34.175 -22.130 -17.288  0.00  0.00    +0.248 C 
ATOM     16  H   UNL     1      32.967 -23.174 -15.993  0.00  0.00    +0.156 HD
ATOM     17  H   UNL     1      38.380 -22.919 -11.797  0.00  0.00    +0.148 HD
ATOM     18  H   UNL     1      34.709 -24.604 -11.214  0.00  0.00    +0.148 HD
ATOM     19  H   UNL     1      32.290 -22.562 -17.970  0.00  0.00    +0.146 HD
ATOM     20  H   UNL     1      33.262 -21.696 -19.072  0.00  0.00    +0.146 HD
ENDROOT
BRANCH   7  21
ATOM     21  C   UNL     1      33.171 -24.125 -13.659  0.00  0.00    +0.034 C 
BRANCH  21  22
ATOM     22  C   UNL     1      32.070 -23.115 -13.286  0.00  0.00    +0.031 C 
BRANCH  22  23
ATOM     23  C   UNL     1      30.894 -23.140 -14.230  0.00  0.00    -0.022 C 
ATOM     24  C   UNL     1      30.670 -22.056 -15.065  0.00  0.00    -0.001 C 
ATOM     25  C   UNL     1      30.058 -24.245 -14.245  0.00  0.00    -0.001 C 
ATOM     26  C   UNL     1      29.583 -22.078 -15.938  0.00  0.00    +0.037 C 
ATOM     27  C   UNL     1      28.970 -24.267 -15.119  0.00  0.00    +0.037 C 
ATOM     28  C   UNL     1      28.733 -23.184 -15.965  0.00  0.00    +0.139 C 
BRANCH  28  29
ATOM     29  O   UNL     1      27.671 -23.206 -16.816  0.00  0.00    -0.471 OA
ATOM     30  C   UNL     1      27.129 -21.947 -17.212  0.00  0.00    +0.252 C 
ENDBRANCH  28  29
ENDBRANCH  22  23
ENDBRANCH  21  22
ENDBRANCH   7  21
TORSDOF 4
ENDMDL
MODEL 6
REMARK VINA RESULT:     -10.3      3.283      5.971
REMARK  Name = 5326930
REMARK  4 active torsions:
REMARK  status: ('A' for Active; 'I' for Inactive)
REMARK    1  A    between atoms: C_7  and  C_21
REMARK    2  A    between atoms: C_21  and  C_22
REMARK    3  A    between atoms: C_22  and  C_23
REMARK    4  A    between atoms: C_28  and  O_29
REMARK                            x       y       z     vdW  Elec       q    Type
REMARK                         _______ _______ _______ _____ _____    ______ ____
ROOT
ATOM      1  O   UNL     1      38.451 -23.176 -13.837  0.00  0.00    -0.209 OA
ATOM      2  N   UNL     1      34.897 -23.285 -11.993  0.00  0.00    -0.275 N 
ATOM      3  N   UNL     1      34.699 -22.189 -17.381  0.00  0.00    -0.315 N 
ATOM      4  N   UNL     1      32.743 -22.258 -16.329  0.00  0.00    -0.316 N 
ATOM      5  N   UNL     1      37.267 -23.478 -11.900  0.00  0.00    -0.302 NA
ATOM      6  N   UNL     1      35.926 -23.762 -10.000  0.00  0.00    -0.320 N 
ATOM      7  C   UNL     1      33.702 -22.783 -14.058  0.00  0.00    +0.007 C 
ATOM      8  C   UNL     1      34.901 -23.010 -13.364  0.00  0.00    +0.060 C 
ATOM      9  C   UNL     1      33.759 -22.511 -15.437  0.00  0.00    +0.056 C 
ATOM     10  C   UNL     1      34.997 -22.473 -16.072  0.00  0.00    +0.060 C 
ATOM     11  C   UNL     1      36.130 -22.964 -14.040  0.00  0.00    +0.109 C 
ATOM     12  C   UNL     1      36.208 -22.694 -15.414  0.00  0.00    +0.029 C 
ATOM     13  C   UNL     1      37.372 -23.214 -13.253  0.00  0.00    +0.208 C 
ATOM     14  C   UNL     1      33.341 -22.069 -17.483  0.00  0.00    +0.182 C 
ATOM     15  C   UNL     1      36.088 -23.504 -11.338  0.00  0.00    +0.248 C 
ATOM     16  H   UNL     1      34.047 -23.322 -11.499  0.00  0.00    +0.156 HD
ATOM     17  H   UNL     1      35.348 -22.089 -18.114  0.00  0.00    +0.148 HD
ATOM     18  H   UNL     1      31.777 -22.226 -16.142  0.00  0.00    +0.148 HD
ATOM     19  H   UNL     1      35.024 -23.775  -9.607  0.00  0.00    +0.146 HD
ATOM     20  H   UNL     1      36.713 -23.934  -9.433  0.00  0.00    +0.146 HD
ENDROOT
BRANCH   7  21
ATOM     21  C   UNL     1      32.388 -22.831 -13.344  0.00  0.00    +0.034 C 
BRANCH  21  22
ATOM     22  C   UNL     1      31.477 -23.988 -13.792  0.00  0.00    +0.031 C 
BRANCH  22  23
ATOM     23  C   UNL     1      30.292 -23.532 -14.607  0.00  0.00    -0.022 C 
ATOM     24  C   UNL     1      29.834 -22.231 -14.472  0.00  0.00    -0.001 C 
ATOM     25  C   UNL     1      29.682 -24.423 -15.475  0.00  0.00    -0.001 C 
ATOM     26  C   UNL     1      28.739 -21.809 -15.225  0.00  0.00    +0.037 C 
ATOM     27  C   UNL     1      28.586 -24.001 -16.229  0.00  0.00    +0.037 C 
ATOM     28  C   UNL     1      28.115 -22.694 -16.104  0.00  0.00    +0.139 C 
BRANCH  28  29
ATOM     29  O   UNL     1      27.045 -22.283 -16.838  0.00  0.00    -0.471 OA
ATOM     30  C   UNL     1      26.386 -21.091 -16.416  0.00  0.00    +0.252 C 
ENDBRANCH  28  29
ENDBRANCH  22  23
ENDBRANCH  21  22
ENDBRANCH   7  21
TORSDOF 4
ENDMDL
MODEL 7
REMARK VINA RESULT:     -10.3      6.919     10.554
REMARK  Name = 5326930
REMARK  4 active torsions:
REMARK  status: ('A' for Active; 'I' for Inactive)
REMARK    1  A    between atoms: C_7  and  C_21
REMARK    2  A    between atoms: C_21  and  C_22
REMARK    3  A    between atoms: C_22  and  C_23
REMARK    4  A    between atoms: C_28  and  O_29
REMARK                            x       y       z     vdW  Elec       q    Type
REMARK                         _______ _______ _______ _____ _____    ______ ____
ROOT
ATOM      1  O   UNL     1      33.636 -18.567 -25.554  0.00  0.00    -0.209 OA
ATOM      2  N   UNL     1      34.166 -15.056 -23.699  0.00  0.00    -0.275 N 
ATOM      3  N   UNL     1      35.909 -19.462 -20.901  0.00  0.00    -0.315 N 
ATOM      4  N   UNL     1      36.189 -17.499 -19.899  0.00  0.00    -0.316 N 
ATOM      5  N   UNL     1      33.401 -16.289 -25.585  0.00  0.00    -0.302 NA
ATOM      6  N   UNL     1      33.225 -13.955 -25.476  0.00  0.00    -0.320 N 
ATOM      7  C   UNL     1      35.182 -16.127 -21.757  0.00  0.00    +0.007 C 
ATOM      8  C   UNL     1      34.592 -16.208 -23.029  0.00  0.00    +0.060 C 
ATOM      9  C   UNL     1      35.594 -17.314 -21.126  0.00  0.00    +0.056 C 
ATOM     10  C   UNL     1      35.407 -18.530 -21.775  0.00  0.00    +0.060 C 
ATOM     11  C   UNL     1      34.421 -17.454 -23.651  0.00  0.00    +0.109 C 
ATOM     12  C   UNL     1      34.825 -18.649 -23.038  0.00  0.00    +0.029 C 
ATOM     13  C   UNL     1      33.790 -17.481 -25.002  0.00  0.00    +0.208 C 
ATOM     14  C   UNL     1      36.363 -18.797 -19.797  0.00  0.00    +0.182 C 
ATOM     15  C   UNL     1      33.592 -15.166 -24.945  0.00  0.00    +0.248 C 
ATOM     16  H   UNL     1      34.276 -14.172 -23.280  0.00  0.00    +0.156 HD
ATOM     17  H   UNL     1      35.935 -20.435 -21.045  0.00  0.00    +0.148 HD
ATOM     18  H   UNL     1      36.432 -16.808 -19.241  0.00  0.00    +0.148 HD
ATOM     19  H   UNL     1      33.383 -13.127 -24.969  0.00  0.00    +0.146 HD
ATOM     20  H   UNL     1      32.804 -13.915 -26.366  0.00  0.00    +0.146 HD
ENDROOT
BRANCH   7  21
ATOM     21  C   UNL     1      35.368 -14.802 -21.088  0.00  0.00    +0.034 C 
BRANCH  21  22
ATOM     22  C   UNL     1      34.287 -14.475 -20.040  0.00  0.00    +0.031 C 
BRANCH  22  23
ATOM     23  C   UNL     1      33.437 -13.285 -20.412  0.00  0.00    -0.022 C 
ATOM     24  C   UNL     1      32.409 -12.895 -19.569  0.00  0.00    -0.001 C 
ATOM     25  C   UNL     1      33.699 -12.605 -21.591  0.00  0.00    -0.001 C 
ATOM     26  C   UNL     1      31.623 -11.795 -19.912  0.00  0.00    +0.037 C 
ATOM     27  C   UNL     1      32.913 -11.505 -21.934  0.00  0.00    +0.037 C 
ATOM     28  C   UNL     1      31.875 -11.100 -21.095  0.00  0.00    +0.139 C 
BRANCH  28  29
ATOM     29  O   UNL     1      31.108 -10.027 -21.431  0.00  0.00    -0.471 OA
ATOM     30  C   UNL     1      31.762  -8.936 -22.075  0.00  0.00    +0.252 C 
ENDBRANCH  28  29
ENDBRANCH  22  23
ENDBRANCH  21  22
ENDBRANCH   7  21
TORSDOF 4
ENDMDL
MODEL 8
REMARK VINA RESULT:     -10.1      1.246      1.913
REMARK  Name = 5326930
REMARK  4 active torsions:
REMARK  status: ('A' for Active; 'I' for Inactive)
REMARK    1  A    between atoms: C_7  and  C_21
REMARK    2  A    between atoms: C_21  and  C_22
REMARK    3  A    between atoms: C_22  and  C_23
REMARK    4  A    between atoms: C_28  and  O_29
REMARK                            x       y       z     vdW  Elec       q    Type
REMARK                         _______ _______ _______ _____ _____    ______ ____
ROOT
ATOM      1  O   UNL     1      32.773 -24.527 -12.146  0.00  0.00    -0.209 OA
ATOM      2  N   UNL     1      33.938 -22.591 -15.454  0.00  0.00    -0.275 N 
ATOM      3  N   UNL     1      28.496 -23.163 -14.878  0.00  0.00    -0.315 N 
ATOM      4  N   UNL     1      29.175 -22.092 -16.702  0.00  0.00    -0.316 N 
ATOM      5  N   UNL     1      34.487 -23.717 -13.431  0.00  0.00    -0.302 NA
ATOM      6  N   UNL     1      36.135 -22.837 -14.845  0.00  0.00    -0.320 N 
ATOM      7  C   UNL     1      31.636 -22.272 -16.194  0.00  0.00    +0.007 C 
ATOM      8  C   UNL     1      32.563 -22.763 -15.260  0.00  0.00    +0.060 C 
ATOM      9  C   UNL     1      30.265 -22.471 -15.953  0.00  0.00    +0.056 C 
ATOM     10  C   UNL     1      29.867 -23.145 -14.803  0.00  0.00    +0.060 C 
ATOM     11  C   UNL     1      32.122 -23.437 -14.112  0.00  0.00    +0.109 C 
ATOM     12  C   UNL     1      30.759 -23.645 -13.854  0.00  0.00    +0.029 C 
ATOM     13  C   UNL     1      33.151 -23.936 -13.154  0.00  0.00    +0.208 C 
ATOM     14  C   UNL     1      28.132 -22.523 -16.029  0.00  0.00    +0.182 C 
ATOM     15  C   UNL     1      34.824 -23.081 -14.522  0.00  0.00    +0.248 C 
ATOM     16  H   UNL     1      34.270 -22.121 -16.252  0.00  0.00    +0.156 HD
ATOM     17  H   UNL     1      27.886 -23.567 -14.220  0.00  0.00    +0.148 HD
ATOM     18  H   UNL     1      29.176 -21.604 -17.558  0.00  0.00    +0.148 HD
ATOM     19  H   UNL     1      36.356 -22.354 -15.674  0.00  0.00    +0.146 HD
ATOM     20  H   UNL     1      36.855 -23.145 -14.248  0.00  0.00    +0.146 HD
ENDROOT
BRANCH   7  21
ATOM     21  C   UNL     1      32.100 -21.552 -17.420  0.00  0.00    +0.034 C 
BRANCH  21  22
ATOM     22  C   UNL     1      33.414 -22.100 -18.006  0.00  0.00    +0.031 C 
BRANCH  22  23
ATOM     23  C   UNL     1      34.171 -21.083 -18.826  0.00  0.00    -0.022 C 
ATOM     24  C   UNL     1      35.555 -21.062 -18.773  0.00  0.00    -0.001 C 
ATOM     25  C   UNL     1      33.467 -20.188 -19.615  0.00  0.00    -0.001 C 
ATOM     26  C   UNL     1      36.255 -20.123 -19.529  0.00  0.00    +0.037 C 
ATOM     27  C   UNL     1      34.167 -19.248 -20.373  0.00  0.00    +0.037 C 
ATOM     28  C   UNL     1      35.560 -19.215 -20.330  0.00  0.00    +0.139 C 
BRANCH  28  29
ATOM     29  O   UNL     1      36.242 -18.298 -21.068  0.00  0.00    -0.471 OA
ATOM     30  C   UNL     1      35.756 -18.029 -22.382  0.00  0.00    +0.252 C 
ENDBRANCH  28  29
ENDBRANCH  22  23
ENDBRANCH  21  22
ENDBRANCH   7  21
TORSDOF 4
ENDMDL
MODEL 9
REMARK VINA RESULT:     -10.0      2.892      6.146
REMARK  Name = 5326930
REMARK  4 active torsions:
REMARK  status: ('A' for Active; 'I' for Inactive)
REMARK    1  A    between atoms: C_7  and  C_21
REMARK    2  A    between atoms: C_21  and  C_22
REMARK    3  A    between atoms: C_22  and  C_23
REMARK    4  A    between atoms: C_28  and  O_29
REMARK                            x       y       z     vdW  Elec       q    Type
REMARK                         _______ _______ _______ _____ _____    ______ ____
ROOT
ATOM      1  O   UNL     1      33.263 -22.024 -18.837  0.00  0.00    -0.209 OA
ATOM      2  N   UNL     1      35.459 -22.035 -15.487  0.00  0.00    -0.275 N 
ATOM      3  N   UNL     1      30.221 -23.595 -14.851  0.00  0.00    -0.315 N 
ATOM      4  N   UNL     1      31.466 -23.592 -13.011  0.00  0.00    -0.316 N 
ATOM      5  N   UNL     1      35.286 -21.652 -17.829  0.00  0.00    -0.302 NA
ATOM      6  N   UNL     1      37.290 -21.315 -16.663  0.00  0.00    -0.320 N 
ATOM      7  C   UNL     1      33.575 -22.801 -14.141  0.00  0.00    +0.007 C 
ATOM      8  C   UNL     1      34.119 -22.424 -15.379  0.00  0.00    +0.060 C 
ATOM      9  C   UNL     1      32.223 -23.185 -14.085  0.00  0.00    +0.056 C 
ATOM     10  C   UNL     1      31.465 -23.178 -15.252  0.00  0.00    +0.060 C 
ATOM     11  C   UNL     1      33.323 -22.430 -16.534  0.00  0.00    +0.109 C 
ATOM     12  C   UNL     1      31.972 -22.809 -16.499  0.00  0.00    +0.029 C 
ATOM     13  C   UNL     1      33.953 -22.021 -17.822  0.00  0.00    +0.208 C 
ATOM     14  C   UNL     1      30.272 -23.829 -13.506  0.00  0.00    +0.182 C 
ATOM     15  C   UNL     1      35.965 -21.670 -16.713  0.00  0.00    +0.248 C 
ATOM     16  H   UNL     1      36.035 -22.022 -14.689  0.00  0.00    +0.156 HD
ATOM     17  H   UNL     1      29.433 -23.705 -15.430  0.00  0.00    +0.148 HD
ATOM     18  H   UNL     1      31.756 -23.685 -12.074  0.00  0.00    +0.148 HD
ATOM     19  H   UNL     1      37.774 -21.339 -15.807  0.00  0.00    +0.146 HD
ATOM     20  H   UNL     1      37.756 -21.036 -17.485  0.00  0.00    +0.146 HD
ENDROOT
BRANCH   7  21
ATOM     21  C   UNL     1      34.418 -22.796 -12.905  0.00  0.00    +0.034 C 
BRANCH  21  22
ATOM     22  C   UNL     1      34.974 -24.181 -12.523  0.00  0.00    +0.031 C 
BRANCH  22  23
ATOM     23  C   UNL     1      36.456 -24.317 -12.769  0.00  0.00    -0.022 C 
ATOM     24  C   UNL     1      37.347 -23.933 -11.781  0.00  0.00    -0.001 C 
ATOM     25  C   UNL     1      36.899 -24.823 -13.981  0.00  0.00    -0.001 C 
ATOM     26  C   UNL     1      38.718 -24.058 -12.008  0.00  0.00    +0.037 C 
ATOM     27  C   UNL     1      38.270 -24.949 -14.209  0.00  0.00    +0.037 C 
ATOM     28  C   UNL     1      39.179 -24.567 -13.222  0.00  0.00    +0.139 C 
BRANCH  28  29
ATOM     29  O   UNL     1      40.516 -24.688 -13.445  0.00  0.00    -0.471 OA
ATOM     30  C   UNL     1      40.944 -25.785 -14.251  0.00  0.00    +0.252 C 
ENDBRANCH  28  29
ENDBRANCH  22  23
ENDBRANCH  21  22
ENDBRANCH   7  21
TORSDOF 4
ENDMDL
