MODEL 1
REMARK VINA RESULT:     -12.8      0.000      0.000
REMARK  Name = 9799284
REMARK  5 active torsions:
REMARK  status: ('A' for Active; 'I' for Inactive)
REMARK    1  A    between atoms: N_1  and  C_19
REMARK    2  A    between atoms: C_2  and  C_8
REMARK    3  A    between atoms: C_8  and  N_10
REMARK    4  A    between atoms: C_19  and  C_21
REMARK    5  A    between atoms: C_21  and  C_23
REMARK                            x       y       z     vdW  Elec       q    Type
REMARK                         _______ _______ _______ _____ _____    ______ ____
ROOT
ATOM      1  N   UNL     1      35.231 -23.301 -13.263  0.00  0.00    +0.392 N 
ATOM      2  C   UNL     1      34.330 -22.418 -15.910  0.00  0.00    +0.016 C 
ATOM      3  C   UNL     1      35.810 -22.632 -15.574  0.00  0.00    -0.021 C 
ATOM      4  C   UNL     1      33.460 -23.282 -14.991  0.00  0.00    -0.021 C 
ATOM      5  C   UNL     1      36.077 -22.422 -14.082  0.00  0.00    -0.077 C 
ATOM      6  C   UNL     1      33.805 -23.051 -13.519  0.00  0.00    -0.077 C 
ATOM      7  H   UNL     1      35.433 -24.266 -13.524  0.00  0.00    -0.079 HD
ENDROOT
BRANCH   2   8
ATOM      8  C   UNL     1      34.050 -22.725 -17.379  0.00  0.00    +0.094 C 
BRANCH   8  10
ATOM      9  O   UNL     1      32.599 -21.050 -19.429  0.00  0.00    -0.270 OA
ATOM     10  N   UNL     1      34.537 -21.677 -18.224  0.00  0.00    -0.272 N 
ATOM     11  C   UNL     1      35.937 -21.244 -18.194  0.00  0.00    +0.121 C 
ATOM     12  C   UNL     1      33.780 -20.952 -19.152  0.00  0.00    +0.249 C 
ATOM     13  C   UNL     1      35.961 -20.160 -19.216  0.00  0.00    +0.002 C 
ATOM     14  C   UNL     1      34.695 -19.991 -19.777  0.00  0.00    +0.051 C 
ATOM     15  C   UNL     1      37.019 -19.373 -19.631  0.00  0.00    -0.002 C 
ATOM     16  C   UNL     1      34.431 -19.050 -20.754  0.00  0.00    +0.004 C 
ATOM     17  C   UNL     1      36.779 -18.412 -20.619  0.00  0.00    -0.000 C 
ATOM     18  C   UNL     1      35.496 -18.253 -21.175  0.00  0.00    +0.000 C 
ENDBRANCH   8  10
ENDBRANCH   2   8
BRANCH   1  19
ATOM     19  C   UNL     1      35.534 -23.127 -11.844  0.00  0.00    -0.006 C 
BRANCH  19  21
ATOM     20  O   UNL     1      36.076 -24.946 -10.353  0.00  0.00    -0.294 OA
ATOM     21  C   UNL     1      36.359 -24.307 -11.364  0.00  0.00    +0.152 C 
BRANCH  21  23
ATOM     22  F   UNL     1      40.849 -25.789 -14.334  0.00  0.00    -0.204 F 
ATOM     23  C   UNL     1      37.561 -24.704 -12.158  0.00  0.00    +0.033 C 
ATOM     24  C   UNL     1      37.493 -25.842 -12.929  0.00  0.00    +0.005 C 
ATOM     25  C   UNL     1      38.686 -23.917 -12.087  0.00  0.00    +0.005 C 
ATOM     26  C   UNL     1      38.615 -26.211 -13.672  0.00  0.00    +0.030 C 
ATOM     27  C   UNL     1      39.807 -24.285 -12.829  0.00  0.00    +0.030 C 
ATOM     28  C   UNL     1      39.772 -25.433 -13.622  0.00  0.00    +0.140 C 
ENDBRANCH  21  23
ENDBRANCH  19  21
ENDBRANCH   1  19
TORSDOF 5
ENDMDL
MODEL 2
REMARK VINA RESULT:     -11.9      7.058     10.941
REMARK  Name = 9799284
REMARK  5 active torsions:
REMARK  status: ('A' for Active; 'I' for Inactive)
REMARK    1  A    between atoms: N_1  and  C_19
REMARK    2  A    between atoms: C_2  and  C_8
REMARK    3  A    between atoms: C_8  and  N_10
REMARK    4  A    between atoms: C_19  and  C_21
REMARK    5  A    between atoms: C_21  and  C_23
REMARK                            x       y       z     vdW  Elec       q    Type
REMARK                         _______ _______ _______ _____ _____    ______ ____
ROOT
ATOM      1  N   UNL     1      34.956 -16.007 -21.294  0.00  0.00    +0.392 N 
ATOM      2  C   UNL     1      34.098 -13.252 -21.810  0.00  0.00    +0.016 C 
ATOM      3  C   UNL     1      34.196 -14.304 -22.920  0.00  0.00    -0.021 C 
ATOM      4  C   UNL     1      33.879 -13.942 -20.459  0.00  0.00    -0.021 C 
ATOM      5  C   UNL     1      35.242 -15.369 -22.586  0.00  0.00    -0.077 C 
ATOM      6  C   UNL     1      34.936 -15.019 -20.207  0.00  0.00    -0.077 C 
ATOM      7  H   UNL     1      34.029 -16.431 -21.351  0.00  0.00    -0.079 HD
ENDROOT
BRANCH   2   8
ATOM      8  C   UNL     1      32.984 -12.249 -22.100  0.00  0.00    +0.094 C 
BRANCH   8  10
ATOM      9  O   UNL     1      32.305  -9.350 -21.597  0.00  0.00    -0.270 OA
ATOM     10  N   UNL     1      33.508 -11.061 -22.706  0.00  0.00    -0.272 N 
ATOM     11  C   UNL     1      34.540 -11.111 -23.745  0.00  0.00    +0.121 C 
ATOM     12  C   UNL     1      33.126  -9.749 -22.402  0.00  0.00    +0.249 C 
ATOM     13  C   UNL     1      34.757  -9.669 -24.053  0.00  0.00    +0.002 C 
ATOM     14  C   UNL     1      33.926  -8.872 -23.264  0.00  0.00    +0.051 C 
ATOM     15  C   UNL     1      35.622  -9.090 -24.962  0.00  0.00    -0.002 C 
ATOM     16  C   UNL     1      33.920  -7.493 -23.344  0.00  0.00    +0.004 C 
ATOM     17  C   UNL     1      35.636  -7.695 -25.063  0.00  0.00    -0.000 C 
ATOM     18  C   UNL     1      34.792  -6.904 -24.261  0.00  0.00    +0.000 C 
ENDBRANCH   8  10
ENDBRANCH   2   8
BRANCH   1  19
ATOM     19  C   UNL     1      35.934 -17.057 -21.014  0.00  0.00    -0.006 C 
BRANCH  19  21
ATOM     20  O   UNL     1      35.072 -18.685 -22.573  0.00  0.00    -0.294 OA
ATOM     21  C   UNL     1      35.348 -18.400 -21.410  0.00  0.00    +0.152 C 
BRANCH  21  23
ATOM     22  F   UNL     1      34.420 -22.177 -17.404  0.00  0.00    -0.204 F 
ATOM     23  C   UNL     1      35.099 -19.411 -20.339  0.00  0.00    +0.033 C 
ATOM     24  C   UNL     1      36.182 -19.977 -19.705  0.00  0.00    +0.005 C 
ATOM     25  C   UNL     1      33.800 -19.735 -20.028  0.00  0.00    +0.005 C 
ATOM     26  C   UNL     1      35.950 -20.920 -18.703  0.00  0.00    +0.030 C 
ATOM     27  C   UNL     1      33.567 -20.678 -19.027  0.00  0.00    +0.030 C 
ATOM     28  C   UNL     1      34.643 -21.271 -18.365  0.00  0.00    +0.140 C 
ENDBRANCH  21  23
ENDBRANCH  19  21
ENDBRANCH   1  19
TORSDOF 5
ENDMDL
MODEL 3
REMARK VINA RESULT:     -11.6      7.346     13.463
REMARK  Name = 9799284
REMARK  5 active torsions:
REMARK  status: ('A' for Active; 'I' for Inactive)
REMARK    1  A    between atoms: N_1  and  C_19
REMARK    2  A    between atoms: C_2  and  C_8
REMARK    3  A    between atoms: C_8  and  N_10
REMARK    4  A    between atoms: C_19  and  C_21
REMARK    5  A    between atoms: C_21  and  C_23
REMARK                            x       y       z     vdW  Elec       q    Type
REMARK                         _______ _______ _______ _____ _____    ______ ____
ROOT
ATOM      1  N   UNL     1      34.232 -13.819 -23.630  0.00  0.00    +0.392 N 
ATOM      2  C   UNL     1      35.030 -16.452 -22.618  0.00  0.00    +0.016 C 
ATOM      3  C   UNL     1      34.961 -16.133 -24.115  0.00  0.00    -0.021 C 
ATOM      4  C   UNL     1      35.257 -15.162 -21.823  0.00  0.00    -0.021 C 
ATOM      5  C   UNL     1      33.938 -15.033 -24.403  0.00  0.00    -0.077 C 
ATOM      6  C   UNL     1      34.224 -14.095 -22.186  0.00  0.00    -0.077 C 
ATOM      7  H   UNL     1      35.168 -13.503 -23.884  0.00  0.00    -0.079 HD
ENDROOT
BRANCH   2   8
ATOM      8  C   UNL     1      36.122 -17.478 -22.324  0.00  0.00    +0.094 C 
BRANCH   8  10
ATOM      9  O   UNL     1      37.707 -18.974 -20.235  0.00  0.00    -0.270 OA
ATOM     10  N   UNL     1      35.688 -18.422 -21.339  0.00  0.00    -0.272 N 
ATOM     11  C   UNL     1      34.282 -18.816 -21.209  0.00  0.00    +0.121 C 
ATOM     12  C   UNL     1      36.506 -19.069 -20.405  0.00  0.00    +0.249 C 
ATOM     13  C   UNL     1      34.323 -19.787 -20.080  0.00  0.00    +0.002 C 
ATOM     14  C   UNL     1      35.628 -19.934 -19.610  0.00  0.00    +0.051 C 
ATOM     15  C   UNL     1      33.289 -20.497 -19.500  0.00  0.00    -0.002 C 
ATOM     16  C   UNL     1      35.955 -20.775 -18.565  0.00  0.00    +0.004 C 
ATOM     17  C   UNL     1      33.592 -21.357 -18.439  0.00  0.00    -0.000 C 
ATOM     18  C   UNL     1      34.914 -21.494 -17.975  0.00  0.00    +0.000 C 
ENDBRANCH   8  10
ENDBRANCH   2   8
BRANCH   1  19
ATOM     19  C   UNL     1      33.277 -12.760 -23.954  0.00  0.00    -0.006 C 
BRANCH  19  21
ATOM     20  O   UNL     1      33.916 -12.169 -26.205  0.00  0.00    -0.294 OA
ATOM     21  C   UNL     1      33.878 -11.858 -25.017  0.00  0.00    +0.152 C 
BRANCH  21  23
ATOM     22  F   UNL     1      35.989  -6.936 -23.440  0.00  0.00    -0.204 F 
ATOM     23  C   UNL     1      34.443 -10.542 -24.594  0.00  0.00    +0.033 C 
ATOM     24  C   UNL     1      35.362  -9.927 -25.414  0.00  0.00    +0.005 C 
ATOM     25  C   UNL     1      34.022  -9.995 -23.405  0.00  0.00    +0.005 C 
ATOM     26  C   UNL     1      35.890  -8.697 -25.020  0.00  0.00    +0.030 C 
ATOM     27  C   UNL     1      34.548  -8.766 -23.011  0.00  0.00    +0.030 C 
ATOM     28  C   UNL     1      35.483  -8.116 -23.818  0.00  0.00    +0.140 C 
ENDBRANCH  21  23
ENDBRANCH  19  21
ENDBRANCH   1  19
TORSDOF 5
ENDMDL
MODEL 4
REMARK VINA RESULT:     -11.6      4.748     10.161
REMARK  Name = 9799284
REMARK  5 active torsions:
REMARK  status: ('A' for Active; 'I' for Inactive)
REMARK    1  A    between atoms: N_1  and  C_19
REMARK    2  A    between atoms: C_2  and  C_8
REMARK    3  A    between atoms: C_8  and  N_10
REMARK    4  A    between atoms: C_19  and  C_21
REMARK    5  A    between atoms: C_21  and  C_23
REMARK                            x       y       z     vdW  Elec       q    Type
REMARK                         _______ _______ _______ _____ _____    ______ ____
ROOT
ATOM      1  N   UNL     1      35.847 -19.030 -20.528  0.00  0.00    +0.392 N 
ATOM      2  C   UNL     1      34.544 -20.968 -18.755  0.00  0.00    +0.016 C 
ATOM      3  C   UNL     1      33.776 -20.189 -19.827  0.00  0.00    -0.021 C 
ATOM      4  C   UNL     1      36.020 -21.079 -19.152  0.00  0.00    -0.021 C 
ATOM      5  C   UNL     1      34.445 -18.846 -20.127  0.00  0.00    -0.077 C 
ATOM      6  C   UNL     1      36.615 -19.707 -19.475  0.00  0.00    -0.077 C 
ATOM      7  H   UNL     1      35.861 -19.623 -21.358  0.00  0.00    -0.079 HD
ENDROOT
BRANCH   2   8
ATOM      8  C   UNL     1      33.931 -22.347 -18.532  0.00  0.00    +0.094 C 
BRANCH   8  10
ATOM      9  O   UNL     1      35.410 -23.057 -15.997  0.00  0.00    -0.270 OA
ATOM     10  N   UNL     1      33.448 -22.484 -17.190  0.00  0.00    -0.272 N 
ATOM     11  C   UNL     1      32.038 -22.272 -16.848  0.00  0.00    +0.121 C 
ATOM     12  C   UNL     1      34.219 -22.819 -16.071  0.00  0.00    +0.249 C 
ATOM     13  C   UNL     1      32.024 -22.517 -15.378  0.00  0.00    +0.002 C 
ATOM     14  C   UNL     1      33.304 -22.838 -14.925  0.00  0.00    +0.051 C 
ATOM     15  C   UNL     1      30.963 -22.464 -14.494  0.00  0.00    -0.002 C 
ATOM     16  C   UNL     1      33.578 -23.113 -13.599  0.00  0.00    +0.004 C 
ATOM     17  C   UNL     1      31.213 -22.739 -13.146  0.00  0.00    -0.000 C 
ATOM     18  C   UNL     1      32.510 -23.060 -12.702  0.00  0.00    +0.000 C 
ENDBRANCH   8  10
ENDBRANCH   2   8
BRANCH   1  19
ATOM     19  C   UNL     1      36.457 -17.744 -20.861  0.00  0.00    -0.006 C 
BRANCH  19  21
ATOM     20  O   UNL     1      35.574 -17.780 -23.106  0.00  0.00    -0.294 OA
ATOM     21  C   UNL     1      35.745 -17.153 -22.064  0.00  0.00    +0.152 C 
BRANCH  21  23
ATOM     22  F   UNL     1      33.831 -11.919 -21.714  0.00  0.00    -0.204 F 
ATOM     23  C   UNL     1      35.234 -15.752 -21.970  0.00  0.00    +0.033 C 
ATOM     24  C   UNL     1      34.993 -15.060 -23.135  0.00  0.00    +0.005 C 
ATOM     25  C   UNL     1      35.023 -15.210 -20.724  0.00  0.00    +0.005 C 
ATOM     26  C   UNL     1      34.514 -13.753 -23.048  0.00  0.00    +0.030 C 
ATOM     27  C   UNL     1      34.544 -13.904 -20.636  0.00  0.00    +0.030 C 
ATOM     28  C   UNL     1      34.290 -13.175 -21.798  0.00  0.00    +0.140 C 
ENDBRANCH  21  23
ENDBRANCH  19  21
ENDBRANCH   1  19
TORSDOF 5
ENDMDL
MODEL 5
REMARK VINA RESULT:     -11.6      3.363      6.187
REMARK  Name = 9799284
REMARK  5 active torsions:
REMARK  status: ('A' for Active; 'I' for Inactive)
REMARK    1  A    between atoms: N_1  and  C_19
REMARK    2  A    between atoms: C_2  and  C_8
REMARK    3  A    between atoms: C_8  and  N_10
REMARK    4  A    between atoms: C_19  and  C_21
REMARK    5  A    between atoms: C_21  and  C_23
REMARK                            x       y       z     vdW  Elec       q    Type
REMARK                         _______ _______ _______ _____ _____    ______ ____
ROOT
ATOM      1  N   UNL     1      34.352 -21.100 -18.627  0.00  0.00    +0.392 N 
ATOM      2  C   UNL     1      35.827 -19.229 -20.336  0.00  0.00    +0.016 C 
ATOM      3  C   UNL     1      34.348 -19.032 -19.985  0.00  0.00    -0.021 C 
ATOM      4  C   UNL     1      36.511 -20.063 -19.247  0.00  0.00    -0.021 C 
ATOM      5  C   UNL     1      33.662 -20.368 -19.697  0.00  0.00    -0.077 C 
ATOM      6  C   UNL     1      35.753 -21.365 -18.984  0.00  0.00    -0.077 C 
ATOM      7  H   UNL     1      34.346 -20.515 -17.791  0.00  0.00    -0.079 HD
ENDROOT
BRANCH   2   8
ATOM      8  C   UNL     1      36.531 -17.888 -20.524  0.00  0.00    +0.094 C 
BRANCH   8  10
ATOM      9  O   UNL     1      35.293 -15.145 -20.284  0.00  0.00    -0.270 OA
ATOM     10  N   UNL     1      35.861 -17.090 -21.507  0.00  0.00    -0.272 N 
ATOM     11  C   UNL     1      35.678 -17.551 -22.886  0.00  0.00    +0.121 C 
ATOM     12  C   UNL     1      35.316 -15.818 -21.298  0.00  0.00    +0.249 C 
ATOM     13  C   UNL     1      34.951 -16.410 -23.512  0.00  0.00    +0.002 C 
ATOM     14  C   UNL     1      34.740 -15.395 -22.579  0.00  0.00    +0.051 C 
ATOM     15  C   UNL     1      34.504 -16.267 -24.812  0.00  0.00    -0.002 C 
ATOM     16  C   UNL     1      34.088 -14.218 -22.891  0.00  0.00    +0.004 C 
ATOM     17  C   UNL     1      33.840 -15.085 -25.155  0.00  0.00    -0.000 C 
ATOM     18  C   UNL     1      33.634 -14.069 -24.203  0.00  0.00    +0.000 C 
ENDBRANCH   8  10
ENDBRANCH   2   8
BRANCH   1  19
ATOM     19  C   UNL     1      33.655 -22.350 -18.327  0.00  0.00    -0.006 C 
BRANCH  19  21
ATOM     20  O   UNL     1      31.685 -21.634 -17.131  0.00  0.00    -0.294 OA
ATOM     21  C   UNL     1      32.797 -22.156 -17.090  0.00  0.00    +0.152 C 
BRANCH  21  23
ATOM     22  F   UNL     1      34.794 -23.887 -12.173  0.00  0.00    -0.204 F 
ATOM     23  C   UNL     1      33.331 -22.620 -15.775  0.00  0.00    +0.033 C 
ATOM     24  C   UNL     1      34.690 -22.784 -15.638  0.00  0.00    +0.005 C 
ATOM     25  C   UNL     1      32.444 -22.864 -14.753  0.00  0.00    +0.005 C 
ATOM     26  C   UNL     1      35.190 -23.216 -14.409  0.00  0.00    +0.030 C 
ATOM     27  C   UNL     1      32.942 -23.295 -13.524  0.00  0.00    +0.030 C 
ATOM     28  C   UNL     1      34.315 -23.472 -13.352  0.00  0.00    +0.140 C 
ENDBRANCH  21  23
ENDBRANCH  19  21
ENDBRANCH   1  19
TORSDOF 5
ENDMDL
MODEL 6
REMARK VINA RESULT:     -11.5      4.241      7.051
REMARK  Name = 9799284
REMARK  5 active torsions:
REMARK  status: ('A' for Active; 'I' for Inactive)
REMARK    1  A    between atoms: N_1  and  C_19
REMARK    2  A    between atoms: C_2  and  C_8
REMARK    3  A    between atoms: C_8  and  N_10
REMARK    4  A    between atoms: C_19  and  C_21
REMARK    5  A    between atoms: C_21  and  C_23
REMARK                            x       y       z     vdW  Elec       q    Type
REMARK                         _______ _______ _______ _____ _____    ______ ____
ROOT
ATOM      1  N   UNL     1      35.422 -20.725 -19.156  0.00  0.00    +0.392 N 
ATOM      2  C   UNL     1      35.541 -18.562 -21.132  0.00  0.00    +0.016 C 
ATOM      3  C   UNL     1      36.783 -19.347 -20.696  0.00  0.00    -0.021 C 
ATOM      4  C   UNL     1      34.287 -19.418 -20.924  0.00  0.00    -0.021 C 
ATOM      5  C   UNL     1      36.626 -19.892 -19.275  0.00  0.00    -0.077 C 
ATOM      6  C   UNL     1      34.214 -19.961 -19.495  0.00  0.00    -0.077 C 
ATOM      7  H   UNL     1      35.504 -21.495 -19.820  0.00  0.00    -0.079 HD
ENDROOT
BRANCH   2   8
ATOM      8  C   UNL     1      35.659 -18.107 -22.584  0.00  0.00    +0.094 C 
BRANCH   8  10
ATOM      9  O   UNL     1      34.413 -16.706 -24.950  0.00  0.00    -0.270 OA
ATOM     10  N   UNL     1      35.236 -16.747 -22.731  0.00  0.00    -0.272 N 
ATOM     11  C   UNL     1      35.365 -15.772 -21.645  0.00  0.00    +0.121 C 
ATOM     12  C   UNL     1      34.663 -16.186 -23.879  0.00  0.00    +0.249 C 
ATOM     13  C   UNL     1      34.803 -14.533 -22.254  0.00  0.00    +0.002 C 
ATOM     14  C   UNL     1      34.392 -14.779 -23.565  0.00  0.00    +0.051 C 
ATOM     15  C   UNL     1      34.660 -13.275 -21.702  0.00  0.00    -0.002 C 
ATOM     16  C   UNL     1      33.833 -13.803 -24.366  0.00  0.00    +0.004 C 
ATOM     17  C   UNL     1      34.096 -12.268 -22.492  0.00  0.00    -0.000 C 
ATOM     18  C   UNL     1      33.686 -12.530 -23.812  0.00  0.00    +0.000 C 
ENDBRANCH   8  10
ENDBRANCH   2   8
BRANCH   1  19
ATOM     19  C   UNL     1      35.315 -21.280 -17.807  0.00  0.00    -0.006 C 
BRANCH  19  21
ATOM     20  O   UNL     1      33.931 -23.021 -18.743  0.00  0.00    -0.294 OA
ATOM     21  C   UNL     1      34.197 -22.306 -17.780  0.00  0.00    +0.152 C 
BRANCH  21  23
ATOM     22  F   UNL     1      31.186 -22.837 -13.108  0.00  0.00    -0.204 F 
ATOM     23  C   UNL     1      33.392 -22.447 -16.530  0.00  0.00    +0.033 C 
ATOM     24  C   UNL     1      32.027 -22.286 -16.604  0.00  0.00    +0.005 C 
ATOM     25  C   UNL     1      34.045 -22.734 -15.354  0.00  0.00    +0.005 C 
ATOM     26  C   UNL     1      31.275 -22.419 -15.437  0.00  0.00    +0.030 C 
ATOM     27  C   UNL     1      33.294 -22.867 -14.188  0.00  0.00    +0.030 C 
ATOM     28  C   UNL     1      31.909 -22.709 -14.229  0.00  0.00    +0.140 C 
ENDBRANCH  21  23
ENDBRANCH  19  21
ENDBRANCH   1  19
TORSDOF 5
ENDMDL
MODEL 7
REMARK VINA RESULT:     -11.4      7.791     11.781
REMARK  Name = 9799284
REMARK  5 active torsions:
REMARK  status: ('A' for Active; 'I' for Inactive)
REMARK    1  A    between atoms: N_1  and  C_19
REMARK    2  A    between atoms: C_2  and  C_8
REMARK    3  A    between atoms: C_8  and  N_10
REMARK    4  A    between atoms: C_19  and  C_21
REMARK    5  A    between atoms: C_21  and  C_23
REMARK                            x       y       z     vdW  Elec       q    Type
REMARK                         _______ _______ _______ _____ _____    ______ ____
ROOT
ATOM      1  N   UNL     1      34.510 -14.900 -21.841  0.00  0.00    +0.392 N 
ATOM      2  C   UNL     1      33.075 -12.465 -21.060  0.00  0.00    +0.016 C 
ATOM      3  C   UNL     1      33.081 -12.991 -22.500  0.00  0.00    -0.021 C 
ATOM      4  C   UNL     1      33.325 -13.622 -20.086  0.00  0.00    -0.021 C 
ATOM      5  C   UNL     1      34.349 -13.793 -22.794  0.00  0.00    -0.077 C 
ATOM      6  C   UNL     1      34.585 -14.404 -20.460  0.00  0.00    -0.077 C 
ATOM      7  H   UNL     1      33.689 -15.501 -21.915  0.00  0.00    -0.079 HD
ENDROOT
BRANCH   2   8
ATOM      8  C   UNL     1      31.764 -11.751 -20.741  0.00  0.00    +0.094 C 
BRANCH   8  10
ATOM      9  O   UNL     1      31.926  -9.999 -18.287  0.00  0.00    -0.270 OA
ATOM     10  N   UNL     1      31.964 -10.338 -20.629  0.00  0.00    -0.272 N 
ATOM     11  C   UNL     1      32.133  -9.484 -21.808  0.00  0.00    +0.121 C 
ATOM     12  C   UNL     1      32.025  -9.609 -19.436  0.00  0.00    +0.249 C 
ATOM     13  C   UNL     1      32.307  -8.132 -21.205  0.00  0.00    +0.002 C 
ATOM     14  C   UNL     1      32.243  -8.208 -19.813  0.00  0.00    +0.051 C 
ATOM     15  C   UNL     1      32.508  -6.916 -21.829  0.00  0.00    -0.002 C 
ATOM     16  C   UNL     1      32.374  -7.100 -18.999  0.00  0.00    +0.004 C 
ATOM     17  C   UNL     1      32.643  -5.777 -21.027  0.00  0.00    -0.000 C 
ATOM     18  C   UNL     1      32.577  -5.869 -19.624  0.00  0.00    +0.000 C 
ENDBRANCH   8  10
ENDBRANCH   2   8
BRANCH   1  19
ATOM     19  C   UNL     1      35.697 -15.688 -22.167  0.00  0.00    -0.006 C 
BRANCH  19  21
ATOM     20  O   UNL     1      34.763 -17.467 -23.504  0.00  0.00    -0.294 OA
ATOM     21  C   UNL     1      35.281 -17.122 -22.445  0.00  0.00    +0.152 C 
BRANCH  21  23
ATOM     22  F   UNL     1      36.148 -20.958 -18.483  0.00  0.00    -0.204 F 
ATOM     23  C   UNL     1      35.513 -18.147 -21.384  0.00  0.00    +0.033 C 
ATOM     24  C   UNL     1      34.454 -18.928 -20.981  0.00  0.00    +0.005 C 
ATOM     25  C   UNL     1      36.776 -18.272 -20.854  0.00  0.00    +0.005 C 
ATOM     26  C   UNL     1      34.670 -19.887 -19.991  0.00  0.00    +0.030 C 
ATOM     27  C   UNL     1      36.993 -19.231 -19.865  0.00  0.00    +0.030 C 
ATOM     28  C   UNL     1      35.940 -20.038 -19.433  0.00  0.00    +0.140 C 
ENDBRANCH  21  23
ENDBRANCH  19  21
ENDBRANCH   1  19
TORSDOF 5
ENDMDL
MODEL 8
REMARK VINA RESULT:     -11.4      3.694      9.439
REMARK  Name = 9799284
REMARK  5 active torsions:
REMARK  status: ('A' for Active; 'I' for Inactive)
REMARK    1  A    between atoms: N_1  and  C_19
REMARK    2  A    between atoms: C_2  and  C_8
REMARK    3  A    between atoms: C_8  and  N_10
REMARK    4  A    between atoms: C_19  and  C_21
REMARK    5  A    between atoms: C_21  and  C_23
REMARK                            x       y       z     vdW  Elec       q    Type
REMARK                         _______ _______ _______ _____ _____    ______ ____
ROOT
ATOM      1  N   UNL     1      34.950 -20.534 -19.147  0.00  0.00    +0.392 N 
ATOM      2  C   UNL     1      34.504 -22.381 -16.914  0.00  0.00    +0.016 C 
ATOM      3  C   UNL     1      35.738 -21.475 -16.998  0.00  0.00    -0.021 C 
ATOM      4  C   UNL     1      33.352 -21.763 -17.713  0.00  0.00    -0.021 C 
ATOM      5  C   UNL     1      36.089 -21.148 -18.451  0.00  0.00    -0.077 C 
ATOM      6  C   UNL     1      33.782 -21.425 -19.142  0.00  0.00    -0.077 C 
ATOM      7  H   UNL     1      34.697 -19.682 -18.646  0.00  0.00    -0.079 HD
ENDROOT
BRANCH   2   8
ATOM      8  C   UNL     1      34.098 -22.623 -15.463  0.00  0.00    +0.094 C 
BRANCH   8  10
ATOM      9  O   UNL     1      35.430 -25.332 -15.511  0.00  0.00    -0.270 OA
ATOM     10  N   UNL     1      35.201 -23.121 -14.697  0.00  0.00    -0.272 N 
ATOM     11  C   UNL     1      35.888 -22.296 -13.700  0.00  0.00    +0.121 C 
ATOM     12  C   UNL     1      35.753 -24.404 -14.792  0.00  0.00    +0.249 C 
ATOM     13  C   UNL     1      36.936 -23.221 -13.184  0.00  0.00    +0.002 C 
ATOM     14  C   UNL     1      36.855 -24.457 -13.826  0.00  0.00    +0.051 C 
ATOM     15  C   UNL     1      37.898 -22.999 -12.217  0.00  0.00    -0.002 C 
ATOM     16  C   UNL     1      37.709 -25.504 -13.540  0.00  0.00    +0.004 C 
ATOM     17  C   UNL     1      38.777 -24.043 -11.908  0.00  0.00    -0.000 C 
ATOM     18  C   UNL     1      38.683 -25.284 -12.564  0.00  0.00    +0.000 C 
ENDBRANCH   8  10
ENDBRANCH   2   8
BRANCH   1  19
ATOM     19  C   UNL     1      35.318 -20.179 -20.517  0.00  0.00    -0.006 C 
BRANCH  19  21
ATOM     20  O   UNL     1      36.329 -18.169 -19.645  0.00  0.00    -0.294 OA
ATOM     21  C   UNL     1      35.719 -18.716 -20.560  0.00  0.00    +0.152 C 
BRANCH  21  23
ATOM     22  F   UNL     1      34.353 -15.722 -25.071  0.00  0.00    -0.204 F 
ATOM     23  C   UNL     1      35.354 -17.915 -21.767  0.00  0.00    +0.033 C 
ATOM     24  C   UNL     1      34.829 -18.570 -22.858  0.00  0.00    +0.005 C 
ATOM     25  C   UNL     1      35.556 -16.555 -21.741  0.00  0.00    +0.005 C 
ATOM     26  C   UNL     1      34.487 -17.822 -23.985  0.00  0.00    +0.030 C 
ATOM     27  C   UNL     1      35.214 -15.807 -22.867  0.00  0.00    +0.030 C 
ATOM     28  C   UNL     1      34.680 -16.440 -23.989  0.00  0.00    +0.140 C 
ENDBRANCH  21  23
ENDBRANCH  19  21
ENDBRANCH   1  19
TORSDOF 5
ENDMDL
MODEL 9
REMARK VINA RESULT:     -11.4      4.236      6.690
REMARK  Name = 9799284
REMARK  5 active torsions:
REMARK  status: ('A' for Active; 'I' for Inactive)
REMARK    1  A    between atoms: N_1  and  C_19
REMARK    2  A    between atoms: C_2  and  C_8
REMARK    3  A    between atoms: C_8  and  N_10
REMARK    4  A    between atoms: C_19  and  C_21
REMARK    5  A    between atoms: C_21  and  C_23
REMARK                            x       y       z     vdW  Elec       q    Type
REMARK                         _______ _______ _______ _____ _____    ______ ____
ROOT
ATOM      1  N   UNL     1      34.274 -20.861 -18.532  0.00  0.00    +0.392 N 
ATOM      2  C   UNL     1      35.807 -19.271 -20.459  0.00  0.00    +0.016 C 
ATOM      3  C   UNL     1      34.381 -18.900 -20.036  0.00  0.00    -0.021 C 
ATOM      4  C   UNL     1      36.478 -20.095 -19.355  0.00  0.00    -0.021 C 
ATOM      5  C   UNL     1      33.588 -20.137 -19.611  0.00  0.00    -0.077 C 
ATOM      6  C   UNL     1      35.615 -21.292 -18.952  0.00  0.00    -0.077 C 
ATOM      7  H   UNL     1      34.381 -20.224 -17.743  0.00  0.00    -0.079 HD
ENDROOT
BRANCH   2   8
ATOM      8  C   UNL     1      36.625 -18.024 -20.787  0.00  0.00    +0.094 C 
BRANCH   8  10
ATOM      9  O   UNL     1      35.392 -15.305 -20.337  0.00  0.00    -0.270 OA
ATOM     10  N   UNL     1      35.918 -17.171 -21.695  0.00  0.00    -0.272 N 
ATOM     11  C   UNL     1      35.686 -17.548 -23.092  0.00  0.00    +0.121 C 
ATOM     12  C   UNL     1      35.379 -15.915 -21.390  0.00  0.00    +0.249 C 
ATOM     13  C   UNL     1      34.935 -16.374 -23.622  0.00  0.00    +0.002 C 
ATOM     14  C   UNL     1      34.757 -15.418 -22.621  0.00  0.00    +0.051 C 
ATOM     15  C   UNL     1      34.440 -16.155 -24.893  0.00  0.00    -0.002 C 
ATOM     16  C   UNL     1      34.092 -14.227 -22.838  0.00  0.00    +0.004 C 
ATOM     17  C   UNL     1      33.763 -14.956 -25.140  0.00  0.00    -0.000 C 
ATOM     18  C   UNL     1      33.590 -14.001 -24.121  0.00  0.00    +0.000 C 
ENDBRANCH   8  10
ENDBRANCH   2   8
BRANCH   1  19
ATOM     19  C   UNL     1      33.479 -22.010 -18.101  0.00  0.00    -0.006 C 
BRANCH  19  21
ATOM     20  O   UNL     1      35.159 -22.618 -16.479  0.00  0.00    -0.294 OA
ATOM     21  C   UNL     1      33.968 -22.469 -16.739  0.00  0.00    +0.152 C 
BRANCH  21  23
ATOM     22  F   UNL     1      30.182 -23.511 -12.770  0.00  0.00    -0.204 F 
ATOM     23  C   UNL     1      32.955 -22.749 -15.678  0.00  0.00    +0.033 C 
ATOM     24  C   UNL     1      33.391 -23.206 -14.455  0.00  0.00    +0.005 C 
ATOM     25  C   UNL     1      31.626 -22.537 -15.963  0.00  0.00    +0.005 C 
ATOM     26  C   UNL     1      32.446 -23.466 -13.463  0.00  0.00    +0.030 C 
ATOM     27  C   UNL     1      30.680 -22.796 -14.972  0.00  0.00    +0.030 C 
ATOM     28  C   UNL     1      31.090 -23.261 -13.722  0.00  0.00    +0.140 C 
ENDBRANCH  21  23
ENDBRANCH  19  21
ENDBRANCH   1  19
TORSDOF 5
ENDMDL
