MODEL 1
REMARK VINA RESULT:     -11.8      0.000      0.000
REMARK  Name = 9890801
REMARK  11 active torsions:
REMARK  status: ('A' for Active; 'I' for Inactive)
REMARK    1  A    between atoms: N_1  and  S_2
REMARK    2  A    between atoms: N_1  and  C_11
REMARK    3  A    between atoms: N_1  and  C_22
REMARK    4  A    between atoms: S_2  and  C_6
REMARK    5  A    between atoms: C_11  and  C_13
REMARK    6  A    between atoms: C_12  and  C_18
REMARK    7  A    between atoms: C_22  and  C_23
REMARK    8  A    between atoms: C_26  and  O_29
REMARK    9  A    between atoms: O_29  and  C_30
REMARK   10  A    between atoms: C_30  and  C_32
REMARK   11  A    between atoms: C_32  and  O_33
REMARK                            x       y       z     vdW  Elec       q    Type
REMARK                         _______ _______ _______ _____ _____    ______ ____
ROOT
ATOM      1  N   UNL     1      34.769 -22.572 -15.372  0.00  0.00    -0.147 NA
ENDROOT
BRANCH   1   2
ATOM      2  S   UNL     1      36.079 -23.609 -14.940  0.00  0.00    +0.065 S 
ATOM      3  O   UNL     1      37.320 -23.060 -15.456  0.00  0.00    -0.153 OA
ATOM      4  O   UNL     1      35.727 -24.984 -15.242  0.00  0.00    -0.153 OA
BRANCH   2   6
ATOM      5  N   UNL     1      35.283 -24.140 -11.019  0.00  0.00    -0.241 NA
ATOM      6  C   UNL     1      36.130 -23.454 -13.176  0.00  0.00    +0.141 C 
ATOM      7  C   UNL     1      37.008 -22.570 -12.559  0.00  0.00    +0.023 C 
ATOM      8  C   UNL     1      35.295 -24.210 -12.368  0.00  0.00    +0.119 C 
ATOM      9  C   UNL     1      37.025 -22.471 -11.172  0.00  0.00    +0.022 C 
ATOM     10  C   UNL     1      36.150 -23.271 -10.454  0.00  0.00    +0.099 C 
ENDBRANCH   2   6
ENDBRANCH   1   2
BRANCH   1  11
ATOM     11  C   UNL     1      34.121 -22.787 -16.689  0.00  0.00    +0.122 C 
BRANCH  11  13
ATOM     12  C   UNL     1      35.209 -19.814 -19.569  0.00  0.00    -0.023 C 
ATOM     13  C   UNL     1      34.501 -21.752 -17.692  0.00  0.00    -0.004 C 
ATOM     14  C   UNL     1      33.879 -20.214 -19.450  0.00  0.00    -0.005 C 
ATOM     15  C   UNL     1      36.186 -20.382 -18.751  0.00  0.00    -0.005 C 
ATOM     16  C   UNL     1      33.524 -21.183 -18.512  0.00  0.00    -0.003 C 
ATOM     17  C   UNL     1      35.831 -21.351 -17.812  0.00  0.00    -0.003 C 
BRANCH  12  18
ATOM     18  C   UNL     1      35.601 -18.747 -20.606  0.00  0.00    +0.019 C 
ATOM     19  C   UNL     1      34.967 -19.091 -21.971  0.00  0.00    +0.004 C 
ATOM     20  C   UNL     1      37.137 -18.708 -20.754  0.00  0.00    +0.004 C 
ATOM     21  C   UNL     1      35.142 -17.319 -20.236  0.00  0.00    +0.004 C 
ENDBRANCH  12  18
ENDBRANCH  11  13
ENDBRANCH   1  11
BRANCH   1  22
ATOM     22  C   UNL     1      33.784 -22.227 -14.315  0.00  0.00    +0.123 C 
BRANCH  22  23
ATOM     23  C   UNL     1      32.426 -22.808 -14.591  0.00  0.00    -0.001 C 
ATOM     24  C   UNL     1      31.540 -22.140 -15.436  0.00  0.00    +0.034 C 
ATOM     25  C   UNL     1      32.052 -24.015 -14.002  0.00  0.00    -0.003 C 
ATOM     26  C   UNL     1      30.279 -22.679 -15.692  0.00  0.00    +0.139 C 
ATOM     27  C   UNL     1      30.790 -24.555 -14.258  0.00  0.00    +0.003 C 
ATOM     28  C   UNL     1      29.904 -23.887 -15.103  0.00  0.00    +0.037 C 
BRANCH  26  29
ATOM     29  O   UNL     1      29.413 -22.027 -16.515  0.00  0.00    -0.464 OA
BRANCH  29  30
ATOM     30  C   UNL     1      28.102 -22.579 -16.645  0.00  0.00    +0.314 C 
BRANCH  30  32
ATOM     31  O   UNL     1      26.753 -20.574 -16.902  0.00  0.00    -0.246 OA
ATOM     32  C   UNL     1      27.077 -21.553 -16.247  0.00  0.00    +0.359 C 
BRANCH  32  33
ATOM     33  O   UNL     1      26.548 -21.867 -15.038  0.00  0.00    -0.478 OA
ATOM     34  H   UNL     1      25.705 -21.537 -14.795  0.00  0.00    +0.295 HD
ENDBRANCH  32  33
ENDBRANCH  30  32
ENDBRANCH  29  30
ENDBRANCH  26  29
ENDBRANCH  22  23
ENDBRANCH   1  22
TORSDOF 11
ENDMDL
MODEL 2
REMARK VINA RESULT:     -10.5      2.511      6.403
REMARK  Name = 9890801
REMARK  11 active torsions:
REMARK  status: ('A' for Active; 'I' for Inactive)
REMARK    1  A    between atoms: N_1  and  S_2
REMARK    2  A    between atoms: N_1  and  C_11
REMARK    3  A    between atoms: N_1  and  C_22
REMARK    4  A    between atoms: S_2  and  C_6
REMARK    5  A    between atoms: C_11  and  C_13
REMARK    6  A    between atoms: C_12  and  C_18
REMARK    7  A    between atoms: C_22  and  C_23
REMARK    8  A    between atoms: C_26  and  O_29
REMARK    9  A    between atoms: O_29  and  C_30
REMARK   10  A    between atoms: C_30  and  C_32
REMARK   11  A    between atoms: C_32  and  O_33
REMARK                            x       y       z     vdW  Elec       q    Type
REMARK                         _______ _______ _______ _____ _____    ______ ____
ROOT
ATOM      1  N   UNL     1      33.654 -22.869 -15.863  0.00  0.00    -0.147 NA
ENDROOT
BRANCH   1   2
ATOM      2  S   UNL     1      32.600 -23.085 -14.515  0.00  0.00    +0.065 S 
ATOM      3  O   UNL     1      32.678 -21.922 -13.649  0.00  0.00    -0.153 OA
ATOM      4  O   UNL     1      32.799 -24.408 -13.953  0.00  0.00    -0.153 OA
BRANCH   2   6
ATOM      5  N   UNL     1      29.318 -21.868 -16.524  0.00  0.00    -0.241 NA
ATOM      6  C   UNL     1      30.998 -23.071 -15.270  0.00  0.00    +0.141 C 
ATOM      7  C   UNL     1      30.172 -24.188 -15.221  0.00  0.00    +0.023 C 
ATOM      8  C   UNL     1      30.528 -21.945 -15.929  0.00  0.00    +0.119 C 
ATOM      9  C   UNL     1      28.919 -24.147 -15.824  0.00  0.00    +0.022 C 
ATOM     10  C   UNL     1      28.543 -22.973 -16.457  0.00  0.00    +0.099 C 
ENDBRANCH   2   6
ENDBRANCH   1   2
BRANCH   1  11
ATOM     11  C   UNL     1      33.047 -22.815 -17.216  0.00  0.00    +0.122 C 
BRANCH  11  13
ATOM     12  C   UNL     1      34.845 -19.841 -19.715  0.00  0.00    -0.023 C 
ATOM     13  C   UNL     1      33.674 -21.780 -18.086  0.00  0.00    -0.004 C 
ATOM     14  C   UNL     1      33.468 -19.828 -19.496  0.00  0.00    -0.005 C 
ATOM     15  C   UNL     1      35.637 -20.823 -19.120  0.00  0.00    -0.005 C 
ATOM     16  C   UNL     1      32.882 -20.797 -18.682  0.00  0.00    -0.003 C 
ATOM     17  C   UNL     1      35.051 -21.793 -18.305  0.00  0.00    -0.003 C 
BRANCH  12  18
ATOM     18  C   UNL     1      35.491 -18.774 -20.615  0.00  0.00    +0.019 C 
ATOM     19  C   UNL     1      35.064 -19.002 -22.080  0.00  0.00    +0.004 C 
ATOM     20  C   UNL     1      37.029 -18.871 -20.512  0.00  0.00    +0.004 C 
ATOM     21  C   UNL     1      35.100 -17.326 -20.245  0.00  0.00    +0.004 C 
ENDBRANCH  12  18
ENDBRANCH  11  13
ENDBRANCH   1  11
BRANCH   1  22
ATOM     22  C   UNL     1      34.775 -21.906 -15.717  0.00  0.00    +0.123 C 
BRANCH  22  23
ATOM     23  C   UNL     1      36.043 -22.571 -15.261  0.00  0.00    -0.001 C 
ATOM     24  C   UNL     1      35.983 -23.745 -14.509  0.00  0.00    +0.034 C 
ATOM     25  C   UNL     1      37.279 -22.016 -15.591  0.00  0.00    -0.003 C 
ATOM     26  C   UNL     1      37.160 -24.362 -14.086  0.00  0.00    +0.139 C 
ATOM     27  C   UNL     1      38.456 -22.633 -15.167  0.00  0.00    +0.003 C 
ATOM     28  C   UNL     1      38.397 -23.806 -14.415  0.00  0.00    +0.037 C 
BRANCH  26  29
ATOM     29  O   UNL     1      37.104 -25.506 -13.351  0.00  0.00    -0.464 OA
BRANCH  29  30
ATOM     30  C   UNL     1      37.916 -25.564 -12.178  0.00  0.00    +0.314 C 
BRANCH  30  32
ATOM     31  O   UNL     1      36.170 -24.929 -10.611  0.00  0.00    -0.246 OA
ATOM     32  C   UNL     1      37.284 -24.753 -11.081  0.00  0.00    +0.359 C 
BRANCH  32  33
ATOM     33  O   UNL     1      38.135 -23.778 -10.672  0.00  0.00    -0.478 OA
ATOM     34  H   UNL     1      37.828 -22.899 -10.572  0.00  0.00    +0.295 HD
ENDBRANCH  32  33
ENDBRANCH  30  32
ENDBRANCH  29  30
ENDBRANCH  26  29
ENDBRANCH  22  23
ENDBRANCH   1  22
TORSDOF 11
ENDMDL
MODEL 3
REMARK VINA RESULT:     -10.4      2.341      6.199
REMARK  Name = 9890801
REMARK  11 active torsions:
REMARK  status: ('A' for Active; 'I' for Inactive)
REMARK    1  A    between atoms: N_1  and  S_2
REMARK    2  A    between atoms: N_1  and  C_11
REMARK    3  A    between atoms: N_1  and  C_22
REMARK    4  A    between atoms: S_2  and  C_6
REMARK    5  A    between atoms: C_11  and  C_13
REMARK    6  A    between atoms: C_12  and  C_18
REMARK    7  A    between atoms: C_22  and  C_23
REMARK    8  A    between atoms: C_26  and  O_29
REMARK    9  A    between atoms: O_29  and  C_30
REMARK   10  A    between atoms: C_30  and  C_32
REMARK   11  A    between atoms: C_32  and  O_33
REMARK                            x       y       z     vdW  Elec       q    Type
REMARK                         _______ _______ _______ _____ _____    ______ ____
ROOT
ATOM      1  N   UNL     1      34.428 -22.376 -17.138  0.00  0.00    -0.147 NA
ENDROOT
BRANCH   1   2
ATOM      2  S   UNL     1      33.739 -21.687 -18.561  0.00  0.00    +0.065 S 
ATOM      3  O   UNL     1      32.609 -20.851 -18.196  0.00  0.00    -0.153 OA
ATOM      4  O   UNL     1      33.566 -22.722 -19.564  0.00  0.00    -0.153 OA
BRANCH   2   6
ATOM      5  N   UNL     1      35.659 -18.579 -20.278  0.00  0.00    -0.241 NA
ATOM      6  C   UNL     1      35.025 -20.611 -19.133  0.00  0.00    +0.141 C 
ATOM      7  C   UNL     1      36.363 -20.914 -18.912  0.00  0.00    +0.023 C 
ATOM      8  C   UNL     1      34.728 -19.441 -19.815  0.00  0.00    +0.119 C 
ATOM      9  C   UNL     1      37.351 -20.049 -19.372  0.00  0.00    +0.022 C 
ATOM     10  C   UNL     1      36.949 -18.905 -20.043  0.00  0.00    +0.099 C 
ENDBRANCH   2   6
ENDBRANCH   1   2
BRANCH   1  11
ATOM     11  C   UNL     1      35.043 -21.454 -16.151  0.00  0.00    +0.122 C 
BRANCH  11  13
ATOM     12  C   UNL     1      37.734 -23.448 -13.484  0.00  0.00    -0.023 C 
ATOM     13  C   UNL     1      35.980 -22.149 -15.222  0.00  0.00    -0.004 C 
ATOM     14  C   UNL     1      38.178 -23.028 -14.737  0.00  0.00    -0.005 C 
ATOM     15  C   UNL     1      36.412 -23.220 -13.099  0.00  0.00    -0.005 C 
ATOM     16  C   UNL     1      37.302 -22.379 -15.606  0.00  0.00    -0.003 C 
ATOM     17  C   UNL     1      35.535 -22.570 -13.968  0.00  0.00    -0.003 C 
BRANCH  12  18
ATOM     18  C   UNL     1      38.699 -24.167 -12.526  0.00  0.00    +0.019 C 
ATOM     19  C   UNL     1      38.031 -25.446 -11.978  0.00  0.00    +0.004 C 
ATOM     20  C   UNL     1      39.052 -23.233 -11.349  0.00  0.00    +0.004 C 
ATOM     21  C   UNL     1      40.030 -24.593 -13.185  0.00  0.00    +0.004 C 
ENDBRANCH  12  18
ENDBRANCH  11  13
ENDBRANCH   1  11
BRANCH   1  22
ATOM     22  C   UNL     1      33.693 -23.486 -16.481  0.00  0.00    +0.123 C 
BRANCH  22  23
ATOM     23  C   UNL     1      32.479 -23.004 -15.738  0.00  0.00    -0.001 C 
ATOM     24  C   UNL     1      31.339 -22.615 -16.441  0.00  0.00    +0.034 C 
ATOM     25  C   UNL     1      32.494 -22.945 -14.344  0.00  0.00    -0.003 C 
ATOM     26  C   UNL     1      30.213 -22.167 -15.751  0.00  0.00    +0.139 C 
ATOM     27  C   UNL     1      31.367 -22.496 -13.654  0.00  0.00    +0.003 C 
ATOM     28  C   UNL     1      30.227 -22.107 -14.357  0.00  0.00    +0.037 C 
BRANCH  26  29
ATOM     29  O   UNL     1      29.101 -21.786 -16.436  0.00  0.00    -0.464 OA
BRANCH  29  30
ATOM     30  C   UNL     1      27.862 -22.378 -16.043  0.00  0.00    +0.314 C 
BRANCH  30  32
ATOM     31  O   UNL     1      26.710 -20.456 -16.984  0.00  0.00    -0.246 OA
ATOM     32  C   UNL     1      26.753 -21.371 -16.176  0.00  0.00    +0.359 C 
BRANCH  32  33
ATOM     33  O   UNL     1      25.783 -21.622 -15.260  0.00  0.00    -0.478 OA
ATOM     34  H   UNL     1      25.462 -22.494 -15.143  0.00  0.00    +0.295 HD
ENDBRANCH  32  33
ENDBRANCH  30  32
ENDBRANCH  29  30
ENDBRANCH  26  29
ENDBRANCH  22  23
ENDBRANCH   1  22
TORSDOF 11
ENDMDL
MODEL 4
REMARK VINA RESULT:     -10.2      2.915      6.532
REMARK  Name = 9890801
REMARK  11 active torsions:
REMARK  status: ('A' for Active; 'I' for Inactive)
REMARK    1  A    between atoms: N_1  and  S_2
REMARK    2  A    between atoms: N_1  and  C_11
REMARK    3  A    between atoms: N_1  and  C_22
REMARK    4  A    between atoms: S_2  and  C_6
REMARK    5  A    between atoms: C_11  and  C_13
REMARK    6  A    between atoms: C_12  and  C_18
REMARK    7  A    between atoms: C_22  and  C_23
REMARK    8  A    between atoms: C_26  and  O_29
REMARK    9  A    between atoms: O_29  and  C_30
REMARK   10  A    between atoms: C_30  and  C_32
REMARK   11  A    between atoms: C_32  and  O_33
REMARK                            x       y       z     vdW  Elec       q    Type
REMARK                         _______ _______ _______ _____ _____    ______ ____
ROOT
ATOM      1  N   UNL     1      35.629 -23.989 -12.937  0.00  0.00    -0.147 NA
ENDROOT
BRANCH   1   2
ATOM      2  S   UNL     1      36.848 -24.165 -11.730  0.00  0.00    +0.065 S 
ATOM      3  O   UNL     1      36.448 -25.191 -10.784  0.00  0.00    -0.153 OA
ATOM      4  O   UNL     1      37.237 -22.855 -11.240  0.00  0.00    -0.153 OA
BRANCH   2   6
ATOM      5  N   UNL     1      39.126 -26.562 -14.046  0.00  0.00    -0.241 NA
ATOM      6  C   UNL     1      38.217 -24.808 -12.652  0.00  0.00    +0.141 C 
ATOM      7  C   UNL     1      39.422 -24.117 -12.722  0.00  0.00    +0.023 C 
ATOM      8  C   UNL     1      38.121 -26.016 -13.326  0.00  0.00    +0.119 C 
ATOM      9  C   UNL     1      40.479 -24.647 -13.455  0.00  0.00    +0.022 C 
ATOM     10  C   UNL     1      40.281 -25.862 -14.093  0.00  0.00    +0.099 C 
ENDBRANCH   2   6
ENDBRANCH   1   2
BRANCH   1  11
ATOM     11  C   UNL     1      34.778 -22.775 -12.891  0.00  0.00    +0.122 C 
BRANCH  11  13
ATOM     12  C   UNL     1      30.798 -23.492 -14.293  0.00  0.00    -0.023 C 
ATOM     13  C   UNL     1      33.392 -23.024 -13.380  0.00  0.00    -0.004 C 
ATOM     14  C   UNL     1      31.395 -24.385 -13.404  0.00  0.00    -0.005 C 
ATOM     15  C   UNL     1      31.497 -22.366 -14.727  0.00  0.00    -0.005 C 
ATOM     16  C   UNL     1      32.692 -24.151 -12.947  0.00  0.00    -0.003 C 
ATOM     17  C   UNL     1      32.795 -22.132 -14.270  0.00  0.00    -0.003 C 
BRANCH  12  18
ATOM     18  C   UNL     1      29.369 -23.751 -14.799  0.00  0.00    +0.019 C 
ATOM     19  C   UNL     1      28.496 -22.502 -14.552  0.00  0.00    +0.004 C 
ATOM     20  C   UNL     1      28.761 -24.953 -14.045  0.00  0.00    +0.004 C 
ATOM     21  C   UNL     1      29.290 -24.072 -16.308  0.00  0.00    +0.004 C 
ENDBRANCH  12  18
ENDBRANCH  11  13
ENDBRANCH   1  11
BRANCH   1  22
ATOM     22  C   UNL     1      35.974 -24.375 -14.329  0.00  0.00    +0.123 C 
BRANCH  22  23
ATOM     23  C   UNL     1      36.234 -23.181 -15.203  0.00  0.00    -0.001 C 
ATOM     24  C   UNL     1      35.313 -22.821 -16.186  0.00  0.00    +0.034 C 
ATOM     25  C   UNL     1      37.398 -22.432 -15.031  0.00  0.00    -0.003 C 
ATOM     26  C   UNL     1      35.555 -21.713 -16.998  0.00  0.00    +0.139 C 
ATOM     27  C   UNL     1      37.641 -21.323 -15.843  0.00  0.00    +0.003 C 
ATOM     28  C   UNL     1      36.719 -20.964 -16.826  0.00  0.00    +0.037 C 
BRANCH  26  29
ATOM     29  O   UNL     1      34.657 -21.362 -17.959  0.00  0.00    -0.464 OA
BRANCH  29  30
ATOM     30  C   UNL     1      35.164 -20.668 -19.098  0.00  0.00    +0.314 C 
BRANCH  30  32
ATOM     31  O   UNL     1      34.148 -19.268 -20.805  0.00  0.00    -0.246 OA
ATOM     32  C   UNL     1      34.039 -19.972 -19.812  0.00  0.00    +0.359 C 
BRANCH  32  33
ATOM     33  O   UNL     1      32.860 -20.235 -19.194  0.00  0.00    -0.478 OA
ATOM     34  H   UNL     1      32.804 -20.929 -18.567  0.00  0.00    +0.295 HD
ENDBRANCH  32  33
ENDBRANCH  30  32
ENDBRANCH  29  30
ENDBRANCH  26  29
ENDBRANCH  22  23
ENDBRANCH   1  22
TORSDOF 11
ENDMDL
MODEL 5
REMARK VINA RESULT:     -10.0      2.889      6.668
REMARK  Name = 9890801
REMARK  11 active torsions:
REMARK  status: ('A' for Active; 'I' for Inactive)
REMARK    1  A    between atoms: N_1  and  S_2
REMARK    2  A    between atoms: N_1  and  C_11
REMARK    3  A    between atoms: N_1  and  C_22
REMARK    4  A    between atoms: S_2  and  C_6
REMARK    5  A    between atoms: C_11  and  C_13
REMARK    6  A    between atoms: C_12  and  C_18
REMARK    7  A    between atoms: C_22  and  C_23
REMARK    8  A    between atoms: C_26  and  O_29
REMARK    9  A    between atoms: O_29  and  C_30
REMARK   10  A    between atoms: C_30  and  C_32
REMARK   11  A    between atoms: C_32  and  O_33
REMARK                            x       y       z     vdW  Elec       q    Type
REMARK                         _______ _______ _______ _____ _____    ______ ____
ROOT
ATOM      1  N   UNL     1      35.805 -22.800 -15.242  0.00  0.00    -0.147 NA
ENDROOT
BRANCH   1   2
ATOM      2  S   UNL     1      36.377 -24.293 -14.595  0.00  0.00    +0.065 S 
ATOM      3  O   UNL     1      37.732 -24.533 -15.058  0.00  0.00    -0.153 OA
ATOM      4  O   UNL     1      35.367 -25.319 -14.782  0.00  0.00    -0.153 OA
BRANCH   2   6
ATOM      5  N   UNL     1      35.434 -24.068 -10.677  0.00  0.00    -0.241 NA
ATOM      6  C   UNL     1      36.467 -23.954 -12.859  0.00  0.00    +0.141 C 
ATOM      7  C   UNL     1      37.582 -23.332 -12.308  0.00  0.00    +0.023 C 
ATOM      8  C   UNL     1      35.429 -24.299 -12.008  0.00  0.00    +0.119 C 
ATOM      9  C   UNL     1      37.624 -23.079 -10.940  0.00  0.00    +0.022 C 
ATOM     10  C   UNL     1      36.534 -23.463 -10.176  0.00  0.00    +0.099 C 
ENDBRANCH   2   6
ENDBRANCH   1   2
BRANCH   1  11
ATOM     11  C   UNL     1      34.912 -21.974 -14.393  0.00  0.00    +0.122 C 
BRANCH  11  13
ATOM     12  C   UNL     1      30.783 -23.009 -14.847  0.00  0.00    -0.023 C 
ATOM     13  C   UNL     1      33.474 -22.334 -14.551  0.00  0.00    -0.004 C 
ATOM     14  C   UNL     1      31.587 -22.838 -15.974  0.00  0.00    -0.005 C 
ATOM     15  C   UNL     1      31.324 -22.841 -13.572  0.00  0.00    -0.005 C 
ATOM     16  C   UNL     1      32.932 -22.501 -15.826  0.00  0.00    -0.003 C 
ATOM     17  C   UNL     1      32.670 -22.504 -13.424  0.00  0.00    -0.003 C 
BRANCH  12  18
ATOM     18  C   UNL     1      29.299 -23.378 -15.010  0.00  0.00    +0.019 C 
ATOM     19  C   UNL     1      28.420 -22.152 -14.684  0.00  0.00    +0.004 C 
ATOM     20  C   UNL     1      28.943 -24.531 -14.047  0.00  0.00    +0.004 C 
ATOM     21  C   UNL     1      28.924 -23.843 -16.435  0.00  0.00    +0.004 C 
ENDBRANCH  12  18
ENDBRANCH  11  13
ENDBRANCH   1  11
BRANCH   1  22
ATOM     22  C   UNL     1      36.763 -21.969 -16.016  0.00  0.00    +0.123 C 
BRANCH  22  23
ATOM     23  C   UNL     1      36.159 -21.434 -17.283  0.00  0.00    -0.001 C 
ATOM     24  C   UNL     1      36.799 -20.411 -17.983  0.00  0.00    +0.034 C 
ATOM     25  C   UNL     1      34.958 -21.960 -17.758  0.00  0.00    -0.003 C 
ATOM     26  C   UNL     1      36.237 -19.914 -19.159  0.00  0.00    +0.139 C 
ATOM     27  C   UNL     1      34.396 -21.462 -18.935  0.00  0.00    +0.003 C 
ATOM     28  C   UNL     1      35.036 -20.439 -19.635  0.00  0.00    +0.037 C 
BRANCH  26  29
ATOM     29  O   UNL     1      36.859 -18.915 -19.842  0.00  0.00    -0.464 OA
BRANCH  29  30
ATOM     30  C   UNL     1      36.260 -18.495 -21.068  0.00  0.00    +0.314 C 
BRANCH  30  32
ATOM     31  O   UNL     1      35.442 -16.478 -19.988  0.00  0.00    -0.246 OA
ATOM     32  C   UNL     1      35.881 -17.043 -20.978  0.00  0.00    +0.359 C 
BRANCH  32  33
ATOM     33  O   UNL     1      36.098 -16.429 -22.168  0.00  0.00    -0.478 OA
ATOM     34  H   UNL     1      35.683 -15.611 -22.357  0.00  0.00    +0.295 HD
ENDBRANCH  32  33
ENDBRANCH  30  32
ENDBRANCH  29  30
ENDBRANCH  26  29
ENDBRANCH  22  23
ENDBRANCH   1  22
TORSDOF 11
ENDMDL
MODEL 6
REMARK VINA RESULT:      -9.8      3.289      7.751
REMARK  Name = 9890801
REMARK  11 active torsions:
REMARK  status: ('A' for Active; 'I' for Inactive)
REMARK    1  A    between atoms: N_1  and  S_2
REMARK    2  A    between atoms: N_1  and  C_11
REMARK    3  A    between atoms: N_1  and  C_22
REMARK    4  A    between atoms: S_2  and  C_6
REMARK    5  A    between atoms: C_11  and  C_13
REMARK    6  A    between atoms: C_12  and  C_18
REMARK    7  A    between atoms: C_22  and  C_23
REMARK    8  A    between atoms: C_26  and  O_29
REMARK    9  A    between atoms: O_29  and  C_30
REMARK   10  A    between atoms: C_30  and  C_32
REMARK   11  A    between atoms: C_32  and  O_33
REMARK                            x       y       z     vdW  Elec       q    Type
REMARK                         _______ _______ _______ _____ _____    ______ ____
ROOT
ATOM      1  N   UNL     1      33.099 -22.587 -15.908  0.00  0.00    -0.147 NA
ENDROOT
BRANCH   1   2
ATOM      2  S   UNL     1      32.012 -22.813 -14.588  0.00  0.00    +0.065 S 
ATOM      3  O   UNL     1      32.049 -21.646 -13.726  0.00  0.00    -0.153 OA
ATOM      4  O   UNL     1      32.215 -24.131 -14.015  0.00  0.00    -0.153 OA
BRANCH   2   6
ATOM      5  N   UNL     1      28.612 -21.585 -16.384  0.00  0.00    -0.241 NA
ATOM      6  C   UNL     1      30.431 -22.826 -15.387  0.00  0.00    +0.141 C 
ATOM      7  C   UNL     1      29.769 -24.021 -15.646  0.00  0.00    +0.023 C 
ATOM      8  C   UNL     1      29.815 -21.646 -15.773  0.00  0.00    +0.119 C 
ATOM      9  C   UNL     1      28.528 -23.999 -16.275  0.00  0.00    +0.022 C 
ATOM     10  C   UNL     1      27.998 -22.766 -16.620  0.00  0.00    +0.099 C 
ENDBRANCH   2   6
ENDBRANCH   1   2
BRANCH   1  11
ATOM     11  C   UNL     1      34.049 -23.683 -16.219  0.00  0.00    +0.122 C 
BRANCH  11  13
ATOM     12  C   UNL     1      37.132 -24.082 -13.275  0.00  0.00    -0.023 C 
ATOM     13  C   UNL     1      35.123 -23.821 -15.193  0.00  0.00    -0.004 C 
ATOM     14  C   UNL     1      36.680 -25.205 -13.968  0.00  0.00    -0.005 C 
ATOM     15  C   UNL     1      36.581 -22.828 -13.542  0.00  0.00    -0.005 C 
ATOM     16  C   UNL     1      35.675 -25.075 -14.926  0.00  0.00    -0.003 C 
ATOM     17  C   UNL     1      35.576 -22.698 -14.501  0.00  0.00    -0.003 C 
BRANCH  12  18
ATOM     18  C   UNL     1      38.239 -24.225 -12.216  0.00  0.00    +0.019 C 
ATOM     19  C   UNL     1      39.595 -24.472 -12.911  0.00  0.00    +0.004 C 
ATOM     20  C   UNL     1      37.918 -25.417 -11.290  0.00  0.00    +0.004 C 
ATOM     21  C   UNL     1      38.406 -22.980 -11.317  0.00  0.00    +0.004 C 
ENDBRANCH  12  18
ENDBRANCH  11  13
ENDBRANCH   1  11
BRANCH   1  22
ATOM     22  C   UNL     1      32.570 -21.943 -17.137  0.00  0.00    +0.123 C 
BRANCH  22  23
ATOM     23  C   UNL     1      33.659 -21.342 -17.979  0.00  0.00    -0.001 C 
ATOM     24  C   UNL     1      33.334 -20.511 -19.052  0.00  0.00    +0.034 C 
ATOM     25  C   UNL     1      34.996 -21.614 -17.688  0.00  0.00    -0.003 C 
ATOM     26  C   UNL     1      34.345 -19.954 -19.834  0.00  0.00    +0.139 C 
ATOM     27  C   UNL     1      36.007 -21.056 -18.471  0.00  0.00    +0.003 C 
ATOM     28  C   UNL     1      35.682 -20.226 -19.544  0.00  0.00    +0.037 C 
BRANCH  26  29
ATOM     29  O   UNL     1      34.029 -19.144 -20.882  0.00  0.00    -0.464 OA
BRANCH  29  30
ATOM     30  C   UNL     1      35.085 -18.806 -21.781  0.00  0.00    +0.314 C 
BRANCH  30  32
ATOM     31  O   UNL     1      35.338 -16.737 -20.532  0.00  0.00    -0.246 OA
ATOM     32  C   UNL     1      35.506 -17.380 -21.557  0.00  0.00    +0.359 C 
BRANCH  32  33
ATOM     33  O   UNL     1      36.114 -16.892 -22.668  0.00  0.00    -0.478 OA
ATOM     34  H   UNL     1      36.508 -17.479 -23.283  0.00  0.00    +0.295 HD
ENDBRANCH  32  33
ENDBRANCH  30  32
ENDBRANCH  29  30
ENDBRANCH  26  29
ENDBRANCH  22  23
ENDBRANCH   1  22
TORSDOF 11
ENDMDL
MODEL 7
REMARK VINA RESULT:      -9.6      3.144      7.306
REMARK  Name = 9890801
REMARK  11 active torsions:
REMARK  status: ('A' for Active; 'I' for Inactive)
REMARK    1  A    between atoms: N_1  and  S_2
REMARK    2  A    between atoms: N_1  and  C_11
REMARK    3  A    between atoms: N_1  and  C_22
REMARK    4  A    between atoms: S_2  and  C_6
REMARK    5  A    between atoms: C_11  and  C_13
REMARK    6  A    between atoms: C_12  and  C_18
REMARK    7  A    between atoms: C_22  and  C_23
REMARK    8  A    between atoms: C_26  and  O_29
REMARK    9  A    between atoms: O_29  and  C_30
REMARK   10  A    between atoms: C_30  and  C_32
REMARK   11  A    between atoms: C_32  and  O_33
REMARK                            x       y       z     vdW  Elec       q    Type
REMARK                         _______ _______ _______ _____ _____    ______ ____
ROOT
ATOM      1  N   UNL     1      33.140 -22.670 -14.691  0.00  0.00    -0.147 NA
ENDROOT
BRANCH   1   2
ATOM      2  S   UNL     1      31.981 -23.564 -13.778  0.00  0.00    +0.065 S 
ATOM      3  O   UNL     1      31.886 -23.007 -12.441  0.00  0.00    -0.153 OA
ATOM      4  O   UNL     1      32.227 -24.985 -13.944  0.00  0.00    -0.153 OA
BRANCH   2   6
ATOM      5  N   UNL     1      28.682 -21.620 -15.054  0.00  0.00    -0.241 NA
ATOM      6  C   UNL     1      30.462 -23.193 -14.611  0.00  0.00    +0.141 C 
ATOM      7  C   UNL     1      29.857 -24.126 -15.446  0.00  0.00    +0.023 C 
ATOM      8  C   UNL     1      29.840 -21.965 -14.450  0.00  0.00    +0.119 C 
ATOM      9  C   UNL     1      28.664 -23.806 -16.087  0.00  0.00    +0.022 C 
ATOM     10  C   UNL     1      28.123 -22.550 -15.859  0.00  0.00    +0.099 C 
ENDBRANCH   2   6
ENDBRANCH   1   2
BRANCH   1  11
ATOM     11  C   UNL     1      34.198 -21.945 -13.946  0.00  0.00    +0.122 C 
BRANCH  11  13
ATOM     12  C   UNL     1      37.940 -24.025 -13.954  0.00  0.00    -0.023 C 
ATOM     13  C   UNL     1      35.502 -22.669 -13.949  0.00  0.00    -0.004 C 
ATOM     14  C   UNL     1      36.881 -24.498 -13.180  0.00  0.00    -0.005 C 
ATOM     15  C   UNL     1      37.781 -22.874 -14.726  0.00  0.00    -0.005 C 
ATOM     16  C   UNL     1      35.662 -23.820 -13.177  0.00  0.00    -0.003 C 
ATOM     17  C   UNL     1      36.561 -22.196 -14.724  0.00  0.00    -0.003 C 
BRANCH  12  18
ATOM     18  C   UNL     1      39.285 -24.771 -13.956  0.00  0.00    +0.019 C 
ATOM     19  C   UNL     1      39.045 -26.275 -13.706  0.00  0.00    +0.004 C 
ATOM     20  C   UNL     1      40.191 -24.208 -12.840  0.00  0.00    +0.004 C 
ATOM     21  C   UNL     1      40.066 -24.647 -15.283  0.00  0.00    +0.004 C 
ENDBRANCH  12  18
ENDBRANCH  11  13
ENDBRANCH   1  11
BRANCH   1  22
ATOM     22  C   UNL     1      33.658 -23.283 -15.940  0.00  0.00    +0.123 C 
BRANCH  22  23
ATOM     23  C   UNL     1      33.639 -22.324 -17.096  0.00  0.00    -0.001 C 
ATOM     24  C   UNL     1      34.797 -22.108 -17.843  0.00  0.00    +0.034 C 
ATOM     25  C   UNL     1      32.462 -21.649 -17.422  0.00  0.00    -0.003 C 
ATOM     26  C   UNL     1      34.778 -21.217 -18.916  0.00  0.00    +0.139 C 
ATOM     27  C   UNL     1      32.445 -20.757 -18.496  0.00  0.00    +0.003 C 
ATOM     28  C   UNL     1      33.603 -20.541 -19.242  0.00  0.00    +0.037 C 
BRANCH  26  29
ATOM     29  O   UNL     1      35.908 -21.004 -19.644  0.00  0.00    -0.464 OA
BRANCH  29  30
ATOM     30  C   UNL     1      36.555 -19.741 -19.485  0.00  0.00    +0.314 C 
BRANCH  30  32
ATOM     31  O   UNL     1      35.605 -19.033 -21.607  0.00  0.00    -0.246 OA
ATOM     32  C   UNL     1      36.009 -18.760 -20.487  0.00  0.00    +0.359 C 
BRANCH  32  33
ATOM     33  O   UNL     1      36.024 -17.506 -19.969  0.00  0.00    -0.478 OA
ATOM     34  H   UNL     1      36.769 -16.953 -20.101  0.00  0.00    +0.295 HD
ENDBRANCH  32  33
ENDBRANCH  30  32
ENDBRANCH  29  30
ENDBRANCH  26  29
ENDBRANCH  22  23
ENDBRANCH   1  22
TORSDOF 11
ENDMDL
MODEL 8
REMARK VINA RESULT:      -9.5      3.197      6.891
REMARK  Name = 9890801
REMARK  11 active torsions:
REMARK  status: ('A' for Active; 'I' for Inactive)
REMARK    1  A    between atoms: N_1  and  S_2
REMARK    2  A    between atoms: N_1  and  C_11
REMARK    3  A    between atoms: N_1  and  C_22
REMARK    4  A    between atoms: S_2  and  C_6
REMARK    5  A    between atoms: C_11  and  C_13
REMARK    6  A    between atoms: C_12  and  C_18
REMARK    7  A    between atoms: C_22  and  C_23
REMARK    8  A    between atoms: C_26  and  O_29
REMARK    9  A    between atoms: O_29  and  C_30
REMARK   10  A    between atoms: C_30  and  C_32
REMARK   11  A    between atoms: C_32  and  O_33
REMARK                            x       y       z     vdW  Elec       q    Type
REMARK                         _______ _______ _______ _____ _____    ______ ____
ROOT
ATOM      1  N   UNL     1      35.661 -23.144 -14.985  0.00  0.00    -0.147 NA
ENDROOT
BRANCH   1   2
ATOM      2  S   UNL     1      36.087 -24.703 -14.380  0.00  0.00    +0.065 S 
ATOM      3  O   UNL     1      36.053 -25.668 -15.463  0.00  0.00    -0.153 OA
ATOM      4  O   UNL     1      35.343 -24.969 -13.163  0.00  0.00    -0.153 OA
BRANCH   2   6
ATOM      5  N   UNL     1      39.406 -23.626 -12.350  0.00  0.00    -0.241 NA
ATOM      6  C   UNL     1      37.785 -24.489 -13.921  0.00  0.00    +0.141 C 
ATOM      7  C   UNL     1      38.810 -24.984 -14.720  0.00  0.00    +0.023 C 
ATOM      8  C   UNL     1      38.133 -23.823 -12.757  0.00  0.00    +0.119 C 
ATOM      9  C   UNL     1      40.134 -24.801 -14.333  0.00  0.00    +0.022 C 
ATOM     10  C   UNL     1      40.376 -24.121 -13.150  0.00  0.00    +0.099 C 
ENDBRANCH   2   6
ENDBRANCH   1   2
BRANCH   1  11
ATOM     11  C   UNL     1      34.814 -22.277 -14.129  0.00  0.00    +0.122 C 
BRANCH  11  13
ATOM     12  C   UNL     1      30.629 -22.864 -14.811  0.00  0.00    -0.023 C 
ATOM     13  C   UNL     1      33.356 -22.482 -14.367  0.00  0.00    -0.004 C 
ATOM     14  C   UNL     1      31.108 -22.707 -13.511  0.00  0.00    -0.005 C 
ATOM     15  C   UNL     1      31.513 -22.831 -15.890  0.00  0.00    -0.005 C 
ATOM     16  C   UNL     1      32.471 -22.517 -13.289  0.00  0.00    -0.003 C 
ATOM     17  C   UNL     1      32.877 -22.639 -15.668  0.00  0.00    -0.003 C 
BRANCH  12  18
ATOM     18  C   UNL     1      29.125 -23.078 -15.056  0.00  0.00    +0.019 C 
ATOM     19  C   UNL     1      28.864 -23.242 -16.569  0.00  0.00    +0.004 C 
ATOM     20  C   UNL     1      28.337 -21.858 -14.533  0.00  0.00    +0.004 C 
ATOM     21  C   UNL     1      28.550 -24.328 -14.355  0.00  0.00    +0.004 C 
ENDBRANCH  12  18
ENDBRANCH  11  13
ENDBRANCH   1  11
BRANCH   1  22
ATOM     22  C   UNL     1      36.708 -22.370 -15.700  0.00  0.00    +0.123 C 
BRANCH  22  23
ATOM     23  C   UNL     1      36.191 -21.749 -16.966  0.00  0.00    -0.001 C 
ATOM     24  C   UNL     1      36.896 -20.709 -17.571  0.00  0.00    +0.034 C 
ATOM     25  C   UNL     1      35.006 -22.213 -17.537  0.00  0.00    -0.003 C 
ATOM     26  C   UNL     1      36.415 -20.132 -18.747  0.00  0.00    +0.139 C 
ATOM     27  C   UNL     1      34.525 -21.636 -18.713  0.00  0.00    +0.003 C 
ATOM     28  C   UNL     1      35.230 -20.595 -19.318  0.00  0.00    +0.037 C 
BRANCH  26  29
ATOM     29  O   UNL     1      37.102 -19.116 -19.337  0.00  0.00    -0.464 OA
BRANCH  29  30
ATOM     30  C   UNL     1      36.831 -18.865 -20.716  0.00  0.00    +0.314 C 
BRANCH  30  32
ATOM     31  O   UNL     1      35.634 -16.867 -20.021  0.00  0.00    -0.246 OA
ATOM     32  C   UNL     1      36.244 -17.490 -20.878  0.00  0.00    +0.359 C 
BRANCH  32  33
ATOM     33  O   UNL     1      36.489 -17.021 -22.127  0.00  0.00    -0.478 OA
ATOM     34  H   UNL     1      36.069 -16.239 -22.426  0.00  0.00    +0.295 HD
ENDBRANCH  32  33
ENDBRANCH  30  32
ENDBRANCH  29  30
ENDBRANCH  26  29
ENDBRANCH  22  23
ENDBRANCH   1  22
TORSDOF 11
ENDMDL
MODEL 9
REMARK VINA RESULT:      -9.5     10.036     14.150
REMARK  Name = 9890801
REMARK  11 active torsions:
REMARK  status: ('A' for Active; 'I' for Inactive)
REMARK    1  A    between atoms: N_1  and  S_2
REMARK    2  A    between atoms: N_1  and  C_11
REMARK    3  A    between atoms: N_1  and  C_22
REMARK    4  A    between atoms: S_2  and  C_6
REMARK    5  A    between atoms: C_11  and  C_13
REMARK    6  A    between atoms: C_12  and  C_18
REMARK    7  A    between atoms: C_22  and  C_23
REMARK    8  A    between atoms: C_26  and  O_29
REMARK    9  A    between atoms: O_29  and  C_30
REMARK   10  A    between atoms: C_30  and  C_32
REMARK   11  A    between atoms: C_32  and  O_33
REMARK                            x       y       z     vdW  Elec       q    Type
REMARK                         _______ _______ _______ _____ _____    ______ ____
ROOT
ATOM      1  N   UNL     1      33.345 -11.322 -22.706  0.00  0.00    -0.147 NA
ENDROOT
BRANCH   1   2
ATOM      2  S   UNL     1      34.011 -10.347 -23.964  0.00  0.00    +0.065 S 
ATOM      3  O   UNL     1      33.359 -10.667 -25.221  0.00  0.00    -0.153 OA
ATOM      4  O   UNL     1      35.460 -10.378 -23.883  0.00  0.00    -0.153 OA
BRANCH   2   6
ATOM      5  N   UNL     1      31.830  -6.967 -23.627  0.00  0.00    -0.241 NA
ATOM      6  C   UNL     1      33.494  -8.716 -23.505  0.00  0.00    +0.141 C 
ATOM      7  C   UNL     1      34.291  -7.913 -22.696  0.00  0.00    +0.023 C 
ATOM      8  C   UNL     1      32.283  -8.201 -23.940  0.00  0.00    +0.119 C 
ATOM      9  C   UNL     1      33.858  -6.636 -22.352  0.00  0.00    +0.022 C 
ATOM     10  C   UNL     1      32.631  -6.215 -22.839  0.00  0.00    +0.099 C 
ENDBRANCH   2   6
ENDBRANCH   1   2
BRANCH   1  11
ATOM     11  C   UNL     1      34.245 -11.737 -21.601  0.00  0.00    +0.122 C 
BRANCH  11  13
ATOM     12  C   UNL     1      35.170 -15.915 -21.708  0.00  0.00    -0.023 C 
ATOM     13  C   UNL     1      34.566 -13.193 -21.638  0.00  0.00    -0.004 C 
ATOM     14  C   UNL     1      35.038 -15.200 -22.898  0.00  0.00    -0.005 C 
ATOM     15  C   UNL     1      34.999 -15.270 -20.483  0.00  0.00    -0.005 C 
ATOM     16  C   UNL     1      34.737 -13.839 -22.863  0.00  0.00    -0.003 C 
ATOM     17  C   UNL     1      34.698 -13.908 -20.448  0.00  0.00    -0.003 C 
BRANCH  12  18
ATOM     18  C   UNL     1      35.500 -17.417 -21.746  0.00  0.00    +0.019 C 
ATOM     19  C   UNL     1      37.030 -17.611 -21.801  0.00  0.00    +0.004 C 
ATOM     20  C   UNL     1      34.861 -18.057 -22.997  0.00  0.00    +0.004 C 
ATOM     21  C   UNL     1      34.984 -18.201 -20.519  0.00  0.00    +0.004 C 
ENDBRANCH  12  18
ENDBRANCH  11  13
ENDBRANCH   1  11
BRANCH   1  22
ATOM     22  C   UNL     1      31.983 -10.986 -22.219  0.00  0.00    +0.123 C 
BRANCH  22  23
ATOM     23  C   UNL     1      31.966 -10.661 -20.753  0.00  0.00    -0.001 C 
ATOM     24  C   UNL     1      32.236  -9.362 -20.323  0.00  0.00    +0.034 C 
ATOM     25  C   UNL     1      31.683 -11.659 -19.821  0.00  0.00    -0.003 C 
ATOM     26  C   UNL     1      32.221  -9.060 -18.961  0.00  0.00    +0.139 C 
ATOM     27  C   UNL     1      31.668 -11.357 -18.458  0.00  0.00    +0.003 C 
ATOM     28  C   UNL     1      31.937 -10.058 -18.029  0.00  0.00    +0.037 C 
BRANCH  26  29
ATOM     29  O   UNL     1      32.485  -7.793 -18.541  0.00  0.00    -0.464 OA
BRANCH  29  30
ATOM     30  C   UNL     1      32.017  -6.725 -19.365  0.00  0.00    +0.314 C 
BRANCH  30  32
ATOM     31  O   UNL     1      32.698  -5.231 -17.574  0.00  0.00    -0.246 OA
ATOM     32  C   UNL     1      32.374  -5.405 -18.739  0.00  0.00    +0.359 C 
BRANCH  32  33
ATOM     33  O   UNL     1      32.289  -4.413 -19.660  0.00  0.00    -0.478 OA
ATOM     34  H   UNL     1      31.473  -4.237 -20.086  0.00  0.00    +0.295 HD
ENDBRANCH  32  33
ENDBRANCH  30  32
ENDBRANCH  29  30
ENDBRANCH  26  29
ENDBRANCH  22  23
ENDBRANCH   1  22
TORSDOF 11
ENDMDL
