MODEL 1
REMARK VINA RESULT:     -11.9      0.000      0.000
REMARK  Name = 11524144
REMARK  6 active torsions:
REMARK  status: ('A' for Active; 'I' for Inactive)
REMARK    1  A    between atoms: C_1  and  O_22
REMARK    2  A    between atoms: C_2  and  C_10
REMARK    3  A    between atoms: C_12  and  C_17
REMARK    4  A    between atoms: O_22  and  C_23
REMARK    5  A    between atoms: C_23  and  C_24
REMARK    6  A    between atoms: C_24  and  N_25
REMARK                            x       y       z     vdW  Elec       q    Type
REMARK                         _______ _______ _______ _____ _____    ______ ____
ROOT
ATOM      1  C   UNL     1      34.981 -19.383 -21.003  0.00  0.00    +0.138 C 
ATOM      2  C   UNL     1      35.005 -20.786 -18.603  0.00  0.00    -0.001 C 
ATOM      3  C   UNL     1      33.780 -19.767 -20.419  0.00  0.00    +0.037 C 
ATOM      4  C   UNL     1      36.194 -19.694 -20.400  0.00  0.00    +0.037 C 
ATOM      5  C   UNL     1      33.792 -20.471 -19.215  0.00  0.00    +0.003 C 
ATOM      6  C   UNL     1      36.206 -20.398 -19.196  0.00  0.00    +0.003 C 
ENDROOT
BRANCH   2  10
ATOM      7  N   UNL     1      34.026 -22.844 -15.616  0.00  0.00    -0.193 N 
ATOM      8  N   UNL     1      36.332 -22.237 -15.321  0.00  0.00    -0.231 NA
ATOM      9  N   UNL     1      33.037 -23.533 -14.988  0.00  0.00    -0.179 NA
ATOM     10  C   UNL     1      35.017 -21.529 -17.334  0.00  0.00    +0.019 C 
ATOM     11  C   UNL     1      35.209 -22.866 -14.880  0.00  0.00    +0.137 C 
ATOM     12  C   UNL     1      34.947 -23.601 -13.745  0.00  0.00    +0.121 C 
ATOM     13  C   UNL     1      33.950 -22.173 -16.834  0.00  0.00    +0.145 C 
ATOM     14  C   UNL     1      36.230 -21.620 -16.461  0.00  0.00    +0.097 C 
ATOM     15  C   UNL     1      33.604 -23.982 -13.867  0.00  0.00    +0.103 C 
BRANCH  12  17
ATOM     16  N   UNL     1      37.773 -24.383 -10.695  0.00  0.00    -0.242 NA
ATOM     17  C   UNL     1      35.902 -23.867 -12.714  0.00  0.00    -0.007 C 
ATOM     18  C   UNL     1      35.867 -23.147 -11.521  0.00  0.00    +0.017 C 
ATOM     19  C   UNL     1      36.877 -24.845 -12.893  0.00  0.00    +0.017 C 
ATOM     20  C   UNL     1      36.814 -23.441 -10.554  0.00  0.00    +0.099 C 
ATOM     21  C   UNL     1      37.779 -25.063 -11.864  0.00  0.00    +0.099 C 
ENDBRANCH  12  17
ENDBRANCH   2  10
BRANCH   1  22
ATOM     22  O   UNL     1      34.970 -18.691 -22.186  0.00  0.00    -0.478 OA
BRANCH  22  23
ATOM     23  C   UNL     1      35.955 -17.679 -22.347  0.00  0.00    +0.183 C 
BRANCH  23  24
ATOM     24  C   UNL     1      35.355 -16.537 -23.151  0.00  0.00    -0.029 C 
BRANCH  24  25
ATOM     25  N   UNL     1      35.311 -15.312 -22.354  0.00  0.00    +0.389 N 
ATOM     26  C   UNL     1      34.375 -14.346 -22.946  0.00  0.00    -0.077 C 
ATOM     27  C   UNL     1      34.948 -15.618 -20.963  0.00  0.00    -0.077 C 
ATOM     28  C   UNL     1      34.353 -13.039 -22.151  0.00  0.00    -0.023 C 
ATOM     29  C   UNL     1      34.944 -14.353 -20.103  0.00  0.00    -0.023 C 
ATOM     30  C   UNL     1      34.021 -13.289 -20.684  0.00  0.00    -0.004 C 
ATOM     31  H   UNL     1      36.239 -14.889 -22.351  0.00  0.00    -0.080 HD
ENDBRANCH  24  25
ENDBRANCH  23  24
ENDBRANCH  22  23
ENDBRANCH   1  22
TORSDOF 6
ENDMDL
MODEL 2
REMARK VINA RESULT:     -11.8      0.801      1.677
REMARK  Name = 11524144
REMARK  6 active torsions:
REMARK  status: ('A' for Active; 'I' for Inactive)
REMARK    1  A    between atoms: C_1  and  O_22
REMARK    2  A    between atoms: C_2  and  C_10
REMARK    3  A    between atoms: C_12  and  C_17
REMARK    4  A    between atoms: O_22  and  C_23
REMARK    5  A    between atoms: C_23  and  C_24
REMARK    6  A    between atoms: C_24  and  N_25
REMARK                            x       y       z     vdW  Elec       q    Type
REMARK                         _______ _______ _______ _____ _____    ______ ____
ROOT
ATOM      1  C   UNL     1      34.641 -19.363 -20.982  0.00  0.00    +0.138 C 
ATOM      2  C   UNL     1      34.758 -20.778 -18.593  0.00  0.00    -0.001 C 
ATOM      3  C   UNL     1      35.876 -19.683 -20.433  0.00  0.00    +0.037 C 
ATOM      4  C   UNL     1      33.463 -19.743 -20.350  0.00  0.00    +0.037 C 
ATOM      5  C   UNL     1      35.935 -20.393 -19.233  0.00  0.00    +0.003 C 
ATOM      6  C   UNL     1      33.522 -20.453 -19.150  0.00  0.00    +0.003 C 
ENDROOT
BRANCH   2  10
ATOM      7  N   UNL     1      33.901 -22.859 -15.584  0.00  0.00    -0.193 N 
ATOM      8  N   UNL     1      36.208 -22.227 -15.362  0.00  0.00    -0.231 NA
ATOM      9  N   UNL     1      32.941 -23.562 -14.927  0.00  0.00    -0.179 NA
ATOM     10  C   UNL     1      34.820 -21.526 -17.328  0.00  0.00    +0.019 C 
ATOM     11  C   UNL     1      35.107 -22.870 -14.887  0.00  0.00    +0.137 C 
ATOM     12  C   UNL     1      34.891 -23.612 -13.747  0.00  0.00    +0.121 C 
ATOM     13  C   UNL     1      33.777 -22.184 -16.796  0.00  0.00    +0.145 C 
ATOM     14  C   UNL     1      36.062 -21.607 -16.495  0.00  0.00    +0.097 C 
ATOM     15  C   UNL     1      33.549 -24.008 -13.827  0.00  0.00    +0.103 C 
BRANCH  12  17
ATOM     16  N   UNL     1      37.824 -24.374 -10.795  0.00  0.00    -0.242 NA
ATOM     17  C   UNL     1      35.882 -23.871 -12.749  0.00  0.00    -0.007 C 
ATOM     18  C   UNL     1      35.895 -23.137 -11.565  0.00  0.00    +0.017 C 
ATOM     19  C   UNL     1      36.844 -24.857 -12.952  0.00  0.00    +0.017 C 
ATOM     20  C   UNL     1      36.876 -23.425 -10.630  0.00  0.00    +0.099 C 
ATOM     21  C   UNL     1      37.782 -25.068 -11.954  0.00  0.00    +0.099 C 
ENDBRANCH  12  17
ENDBRANCH   2  10
BRANCH   1  22
ATOM     22  O   UNL     1      34.583 -18.665 -22.161  0.00  0.00    -0.478 OA
BRANCH  22  23
ATOM     23  C   UNL     1      35.769 -17.997 -22.570  0.00  0.00    +0.183 C 
BRANCH  23  24
ATOM     24  C   UNL     1      35.699 -16.551 -22.104  0.00  0.00    -0.029 C 
BRANCH  24  25
ATOM     25  N   UNL     1      34.682 -15.815 -22.854  0.00  0.00    +0.389 N 
ATOM     26  C   UNL     1      34.727 -14.386 -22.516  0.00  0.00    -0.077 C 
ATOM     27  C   UNL     1      34.856 -16.026 -24.298  0.00  0.00    -0.077 C 
ATOM     28  C   UNL     1      33.636 -13.609 -23.256  0.00  0.00    -0.023 C 
ATOM     29  C   UNL     1      33.770 -15.303 -25.096  0.00  0.00    -0.023 C 
ATOM     30  C   UNL     1      33.734 -13.816 -24.764  0.00  0.00    -0.004 C 
ATOM     31  H   UNL     1      33.762 -16.171 -22.593  0.00  0.00    -0.080 HD
ENDBRANCH  24  25
ENDBRANCH  23  24
ENDBRANCH  22  23
ENDBRANCH   1  22
TORSDOF 6
ENDMDL
MODEL 3
REMARK VINA RESULT:     -11.3      2.262      3.945
REMARK  Name = 11524144
REMARK  6 active torsions:
REMARK  status: ('A' for Active; 'I' for Inactive)
REMARK    1  A    between atoms: C_1  and  O_22
REMARK    2  A    between atoms: C_2  and  C_10
REMARK    3  A    between atoms: C_12  and  C_17
REMARK    4  A    between atoms: O_22  and  C_23
REMARK    5  A    between atoms: C_23  and  C_24
REMARK    6  A    between atoms: C_24  and  N_25
REMARK                            x       y       z     vdW  Elec       q    Type
REMARK                         _______ _______ _______ _____ _____    ______ ____
ROOT
ATOM      1  C   UNL     1      35.220 -16.575 -23.476  0.00  0.00    +0.138 C 
ATOM      2  C   UNL     1      35.047 -18.369 -21.360  0.00  0.00    -0.001 C 
ATOM      3  C   UNL     1      35.685 -16.204 -22.220  0.00  0.00    +0.037 C 
ATOM      4  C   UNL     1      34.671 -17.835 -23.685  0.00  0.00    +0.037 C 
ATOM      5  C   UNL     1      35.598 -17.104 -21.158  0.00  0.00    +0.003 C 
ATOM      6  C   UNL     1      34.583 -18.735 -22.623  0.00  0.00    +0.003 C 
ENDROOT
BRANCH   2  10
ATOM      7  N   UNL     1      33.794 -20.794 -18.778  0.00  0.00    -0.193 N 
ATOM      8  N   UNL     1      36.146 -20.503 -18.380  0.00  0.00    -0.231 NA
ATOM      9  N   UNL     1      32.725 -21.470 -18.280  0.00  0.00    -0.179 NA
ATOM     10  C   UNL     1      34.955 -19.318 -20.240  0.00  0.00    +0.019 C 
ATOM     11  C   UNL     1      34.953 -21.072 -18.056  0.00  0.00    +0.137 C 
ATOM     12  C   UNL     1      34.591 -21.960 -17.067  0.00  0.00    +0.121 C 
ATOM     13  C   UNL     1      33.815 -19.918 -19.861  0.00  0.00    +0.145 C 
ATOM     14  C   UNL     1      36.133 -19.691 -19.395  0.00  0.00    +0.097 C 
ATOM     15  C   UNL     1      33.218 -22.165 -17.255  0.00  0.00    +0.103 C 
BRANCH  12  17
ATOM     16  N   UNL     1      37.258 -23.565 -14.201  0.00  0.00    -0.242 NA
ATOM     17  C   UNL     1      35.492 -22.503 -16.097  0.00  0.00    -0.007 C 
ATOM     18  C   UNL     1      36.750 -21.933 -15.911  0.00  0.00    +0.017 C 
ATOM     19  C   UNL     1      35.121 -23.605 -15.332  0.00  0.00    +0.017 C 
ATOM     20  C   UNL     1      37.586 -22.497 -14.960  0.00  0.00    +0.099 C 
ATOM     21  C   UNL     1      36.030 -24.093 -14.406  0.00  0.00    +0.099 C 
ENDBRANCH  12  17
ENDBRANCH   2  10
BRANCH   1  22
ATOM     22  O   UNL     1      35.306 -15.691 -24.520  0.00  0.00    -0.478 OA
BRANCH  22  23
ATOM     23  C   UNL     1      34.083 -15.286 -25.120  0.00  0.00    +0.183 C 
BRANCH  23  24
ATOM     24  C   UNL     1      33.417 -14.254 -24.224  0.00  0.00    -0.029 C 
BRANCH  24  25
ATOM     25  N   UNL     1      34.019 -12.936 -24.419  0.00  0.00    +0.389 N 
ATOM     26  C   UNL     1      33.495 -12.306 -25.639  0.00  0.00    -0.077 C 
ATOM     27  C   UNL     1      33.789 -12.087 -23.241  0.00  0.00    -0.077 C 
ATOM     28  C   UNL     1      34.151 -10.947 -25.884  0.00  0.00    -0.023 C 
ATOM     29  C   UNL     1      34.455 -10.721 -23.408  0.00  0.00    -0.023 C 
ATOM     30  C   UNL     1      33.984 -10.025 -24.680  0.00  0.00    -0.004 C 
ATOM     31  H   UNL     1      35.026 -13.050 -24.532  0.00  0.00    -0.080 HD
ENDBRANCH  24  25
ENDBRANCH  23  24
ENDBRANCH  22  23
ENDBRANCH   1  22
TORSDOF 6
ENDMDL
MODEL 4
REMARK VINA RESULT:     -11.2      1.886      3.302
REMARK  Name = 11524144
REMARK  6 active torsions:
REMARK  status: ('A' for Active; 'I' for Inactive)
REMARK    1  A    between atoms: C_1  and  O_22
REMARK    2  A    between atoms: C_2  and  C_10
REMARK    3  A    between atoms: C_12  and  C_17
REMARK    4  A    between atoms: O_22  and  C_23
REMARK    5  A    between atoms: C_23  and  C_24
REMARK    6  A    between atoms: C_24  and  N_25
REMARK                            x       y       z     vdW  Elec       q    Type
REMARK                         _______ _______ _______ _____ _____    ______ ____
ROOT
ATOM      1  C   UNL     1      35.231 -16.969 -23.122  0.00  0.00    +0.138 C 
ATOM      2  C   UNL     1      35.073 -18.742 -20.986  0.00  0.00    -0.001 C 
ATOM      3  C   UNL     1      35.929 -16.700 -21.951  0.00  0.00    +0.037 C 
ATOM      4  C   UNL     1      34.455 -18.117 -23.236  0.00  0.00    +0.037 C 
ATOM      5  C   UNL     1      35.850 -17.589 -20.879  0.00  0.00    +0.003 C 
ATOM      6  C   UNL     1      34.376 -19.006 -22.164  0.00  0.00    +0.003 C 
ENDROOT
BRANCH   2  10
ATOM      7  N   UNL     1      33.836 -21.118 -18.352  0.00  0.00    -0.193 N 
ATOM      8  N   UNL     1      36.202 -20.875 -18.017  0.00  0.00    -0.231 NA
ATOM      9  N   UNL     1      32.765 -21.766 -17.821  0.00  0.00    -0.179 NA
ATOM     10  C   UNL     1      34.989 -19.679 -19.856  0.00  0.00    +0.019 C 
ATOM     11  C   UNL     1      35.006 -21.416 -17.657  0.00  0.00    +0.137 C 
ATOM     12  C   UNL     1      34.651 -22.287 -16.652  0.00  0.00    +0.121 C 
ATOM     13  C   UNL     1      33.847 -20.252 -19.442  0.00  0.00    +0.145 C 
ATOM     14  C   UNL     1      36.181 -20.071 -19.038  0.00  0.00    +0.097 C 
ATOM     15  C   UNL     1      33.270 -22.463 -16.803  0.00  0.00    +0.103 C 
BRANCH  12  17
ATOM     16  N   UNL     1      37.351 -23.927 -13.837  0.00  0.00    -0.242 NA
ATOM     17  C   UNL     1      35.565 -22.841 -15.701  0.00  0.00    -0.007 C 
ATOM     18  C   UNL     1      35.202 -23.955 -14.946  0.00  0.00    +0.017 C 
ATOM     19  C   UNL     1      36.823 -22.273 -15.521  0.00  0.00    +0.017 C 
ATOM     20  C   UNL     1      36.122 -24.453 -14.037  0.00  0.00    +0.099 C 
ATOM     21  C   UNL     1      37.670 -22.848 -14.586  0.00  0.00    +0.099 C 
ENDBRANCH  12  17
ENDBRANCH   2  10
BRANCH   1  22
ATOM     22  O   UNL     1      35.309 -16.096 -24.175  0.00  0.00    -0.478 OA
BRANCH  22  23
ATOM     23  C   UNL     1      34.386 -15.014 -24.181  0.00  0.00    +0.183 C 
BRANCH  23  24
ATOM     24  C   UNL     1      34.823 -13.994 -23.141  0.00  0.00    -0.029 C 
BRANCH  24  25
ATOM     25  N   UNL     1      33.721 -13.682 -22.230  0.00  0.00    +0.389 N 
ATOM     26  C   UNL     1      34.115 -13.943 -20.838  0.00  0.00    -0.077 C 
ATOM     27  C   UNL     1      33.288 -12.290 -22.407  0.00  0.00    -0.077 C 
ATOM     28  C   UNL     1      32.958 -13.669 -19.877  0.00  0.00    -0.023 C 
ATOM     29  C   UNL     1      32.104 -11.961 -21.497  0.00  0.00    -0.023 C 
ATOM     30  C   UNL     1      32.430 -12.247 -20.036  0.00  0.00    -0.004 C 
ATOM     31  H   UNL     1      32.932 -14.289 -22.452  0.00  0.00    -0.080 HD
ENDBRANCH  24  25
ENDBRANCH  23  24
ENDBRANCH  22  23
ENDBRANCH   1  22
TORSDOF 6
ENDMDL
MODEL 5
REMARK VINA RESULT:     -11.0      2.336     11.612
REMARK  Name = 11524144
REMARK  6 active torsions:
REMARK  status: ('A' for Active; 'I' for Inactive)
REMARK    1  A    between atoms: C_1  and  O_22
REMARK    2  A    between atoms: C_2  and  C_10
REMARK    3  A    between atoms: C_12  and  C_17
REMARK    4  A    between atoms: O_22  and  C_23
REMARK    5  A    between atoms: C_23  and  C_24
REMARK    6  A    between atoms: C_24  and  N_25
REMARK                            x       y       z     vdW  Elec       q    Type
REMARK                         _______ _______ _______ _____ _____    ______ ____
ROOT
ATOM      1  C   UNL     1      36.200 -20.903 -18.489  0.00  0.00    +0.138 C 
ATOM      2  C   UNL     1      35.554 -18.941 -20.350  0.00  0.00    -0.001 C 
ATOM      3  C   UNL     1      34.888 -20.779 -18.930  0.00  0.00    +0.037 C 
ATOM      4  C   UNL     1      37.193 -20.057 -18.969  0.00  0.00    +0.037 C 
ATOM      5  C   UNL     1      34.563 -19.794 -19.864  0.00  0.00    +0.003 C 
ATOM      6  C   UNL     1      36.868 -19.072 -19.903  0.00  0.00    +0.003 C 
ENDROOT
BRANCH   2  10
ATOM      7  N   UNL     1      34.595 -17.125 -23.496  0.00  0.00    -0.193 N 
ATOM      8  N   UNL     1      34.938 -15.456 -21.802  0.00  0.00    -0.231 NA
ATOM      9  N   UNL     1      34.258 -17.230 -24.808  0.00  0.00    -0.179 NA
ATOM     10  C   UNL     1      35.212 -17.903 -21.333  0.00  0.00    +0.019 C 
ATOM     11  C   UNL     1      34.623 -15.795 -23.082  0.00  0.00    +0.137 C 
ATOM     12  C   UNL     1      34.288 -15.038 -24.182  0.00  0.00    +0.121 C 
ATOM     13  C   UNL     1      34.892 -18.159 -22.611  0.00  0.00    +0.145 C 
ATOM     14  C   UNL     1      35.209 -16.442 -21.001  0.00  0.00    +0.097 C 
ATOM     15  C   UNL     1      34.077 -15.970 -25.207  0.00  0.00    +0.103 C 
BRANCH  12  17
ATOM     16  N   UNL     1      34.027 -10.815 -24.194  0.00  0.00    -0.242 NA
ATOM     17  C   UNL     1      34.200 -13.610 -24.187  0.00  0.00    -0.007 C 
ATOM     18  C   UNL     1      34.355 -12.893 -23.002  0.00  0.00    +0.017 C 
ATOM     19  C   UNL     1      33.958 -12.925 -25.374  0.00  0.00    +0.017 C 
ATOM     20  C   UNL     1      34.261 -11.512 -23.059  0.00  0.00    +0.099 C 
ATOM     21  C   UNL     1      33.881 -11.541 -25.324  0.00  0.00    +0.099 C 
ENDBRANCH  12  17
ENDBRANCH   2  10
BRANCH   1  22
ATOM     22  O   UNL     1      36.519 -21.871 -17.572  0.00  0.00    -0.478 OA
BRANCH  22  23
ATOM     23  C   UNL     1      36.970 -21.426 -16.300  0.00  0.00    +0.183 C 
BRANCH  23  24
ATOM     24  C   UNL     1      36.330 -22.290 -15.225  0.00  0.00    -0.029 C 
BRANCH  24  25
ATOM     25  N   UNL     1      37.137 -23.484 -14.976  0.00  0.00    +0.389 N 
ATOM     26  C   UNL     1      38.153 -23.214 -13.948  0.00  0.00    -0.077 C 
ATOM     27  C   UNL     1      36.278 -24.612 -14.589  0.00  0.00    -0.077 C 
ATOM     28  C   UNL     1      39.037 -24.438 -13.710  0.00  0.00    -0.023 C 
ATOM     29  C   UNL     1      37.102 -25.883 -14.372  0.00  0.00    -0.023 C 
ATOM     30  C   UNL     1      38.204 -25.662 -13.343  0.00  0.00    -0.004 C 
ATOM     31  H   UNL     1      37.621 -23.738 -15.837  0.00  0.00    -0.080 HD
ENDBRANCH  24  25
ENDBRANCH  23  24
ENDBRANCH  22  23
ENDBRANCH   1  22
TORSDOF 6
ENDMDL
MODEL 6
REMARK VINA RESULT:     -10.9      5.654     10.331
REMARK  Name = 11524144
REMARK  6 active torsions:
REMARK  status: ('A' for Active; 'I' for Inactive)
REMARK    1  A    between atoms: C_1  and  O_22
REMARK    2  A    between atoms: C_2  and  C_10
REMARK    3  A    between atoms: C_12  and  C_17
REMARK    4  A    between atoms: O_22  and  C_23
REMARK    5  A    between atoms: C_23  and  C_24
REMARK    6  A    between atoms: C_24  and  N_25
REMARK                            x       y       z     vdW  Elec       q    Type
REMARK                         _______ _______ _______ _____ _____    ______ ____
ROOT
ATOM      1  C   UNL     1      33.455  -9.234 -23.917  0.00  0.00    +0.138 C 
ATOM      2  C   UNL     1      34.003 -11.924 -23.483  0.00  0.00    -0.001 C 
ATOM      3  C   UNL     1      33.177  -9.801 -22.680  0.00  0.00    +0.037 C 
ATOM      4  C   UNL     1      34.005  -9.998 -24.940  0.00  0.00    +0.037 C 
ATOM      5  C   UNL     1      33.451 -11.152 -22.461  0.00  0.00    +0.003 C 
ATOM      6  C   UNL     1      34.279 -11.348 -24.722  0.00  0.00    +0.003 C 
ENDROOT
BRANCH   2  10
ATOM      7  N   UNL     1      34.414 -15.636 -23.897  0.00  0.00    -0.193 N 
ATOM      8  N   UNL     1      35.031 -15.113 -21.635  0.00  0.00    -0.231 NA
ATOM      9  N   UNL     1      34.306 -16.704 -24.731  0.00  0.00    -0.179 NA
ATOM     10  C   UNL     1      34.291 -13.348 -23.254  0.00  0.00    +0.019 C 
ATOM     11  C   UNL     1      34.853 -16.022 -22.632  0.00  0.00    +0.137 C 
ATOM     12  C   UNL     1      35.028 -17.386 -22.680  0.00  0.00    +0.121 C 
ATOM     13  C   UNL     1      34.139 -14.302 -24.187  0.00  0.00    +0.145 C 
ATOM     14  C   UNL     1      34.767 -13.876 -21.936  0.00  0.00    +0.097 C 
ATOM     15  C   UNL     1      34.678 -17.746 -23.988  0.00  0.00    +0.103 C 
BRANCH  12  17
ATOM     16  N   UNL     1      36.342 -19.747 -19.424  0.00  0.00    -0.242 NA
ATOM     17  C   UNL     1      35.473 -18.185 -21.579  0.00  0.00    -0.007 C 
ATOM     18  C   UNL     1      34.595 -19.063 -20.948  0.00  0.00    +0.017 C 
ATOM     19  C   UNL     1      36.787 -18.091 -21.129  0.00  0.00    +0.017 C 
ATOM     20  C   UNL     1      35.074 -19.813 -19.887  0.00  0.00    +0.099 C 
ATOM     21  C   UNL     1      37.168 -18.886 -20.059  0.00  0.00    +0.099 C 
ENDBRANCH  12  17
ENDBRANCH   2  10
BRANCH   1  22
ATOM     22  O   UNL     1      33.186  -7.907 -24.131  0.00  0.00    -0.478 OA
BRANCH  22  23
ATOM     23  C   UNL     1      31.986  -7.396 -23.565  0.00  0.00    +0.183 C 
BRANCH  23  24
ATOM     24  C   UNL     1      32.281  -6.046 -22.931  0.00  0.00    -0.029 C 
BRANCH  24  25
ATOM     25  N   UNL     1      32.078  -6.100 -21.484  0.00  0.00    +0.389 N 
ATOM     26  C   UNL     1      33.233  -6.725 -20.825  0.00  0.00    -0.077 C 
ATOM     27  C   UNL     1      31.825  -4.755 -20.950  0.00  0.00    -0.077 C 
ATOM     28  C   UNL     1      33.016  -6.834 -19.315  0.00  0.00    -0.023 C 
ATOM     29  C   UNL     1      31.562  -4.799 -19.444  0.00  0.00    -0.023 C 
ATOM     30  C   UNL     1      32.708  -5.473 -18.700  0.00  0.00    -0.004 C 
ATOM     31  H   UNL     1      31.257  -6.674 -21.290  0.00  0.00    -0.080 HD
ENDBRANCH  24  25
ENDBRANCH  23  24
ENDBRANCH  22  23
ENDBRANCH   1  22
TORSDOF 6
ENDMDL
MODEL 7
REMARK VINA RESULT:     -10.5      4.479     13.155
REMARK  Name = 11524144
REMARK  6 active torsions:
REMARK  status: ('A' for Active; 'I' for Inactive)
REMARK    1  A    between atoms: C_1  and  O_22
REMARK    2  A    between atoms: C_2  and  C_10
REMARK    3  A    between atoms: C_12  and  C_17
REMARK    4  A    between atoms: O_22  and  C_23
REMARK    5  A    between atoms: C_23  and  C_24
REMARK    6  A    between atoms: C_24  and  N_25
REMARK                            x       y       z     vdW  Elec       q    Type
REMARK                         _______ _______ _______ _____ _____    ______ ____
ROOT
ATOM      1  C   UNL     1      35.215 -16.221 -22.814  0.00  0.00    +0.138 C 
ATOM      2  C   UNL     1      34.185 -13.671 -22.403  0.00  0.00    -0.001 C 
ATOM      3  C   UNL     1      35.279 -15.649 -21.549  0.00  0.00    +0.037 C 
ATOM      4  C   UNL     1      34.640 -15.531 -23.875  0.00  0.00    +0.037 C 
ATOM      5  C   UNL     1      34.763 -14.369 -21.342  0.00  0.00    +0.003 C 
ATOM      6  C   UNL     1      34.124 -14.252 -23.669  0.00  0.00    +0.003 C 
ENDROOT
BRANCH   2  10
ATOM      7  N   UNL     1      32.403 -10.683 -20.984  0.00  0.00    -0.193 N 
ATOM      8  N   UNL     1      33.397  -9.985 -23.057  0.00  0.00    -0.231 NA
ATOM      9  N   UNL     1      31.644 -10.191 -19.969  0.00  0.00    -0.179 NA
ATOM     10  C   UNL     1      33.642 -12.322 -22.185  0.00  0.00    +0.019 C 
ATOM     11  C   UNL     1      32.655  -9.711 -21.949  0.00  0.00    +0.137 C 
ATOM     12  C   UNL     1      32.028  -8.564 -21.518  0.00  0.00    +0.121 C 
ATOM     13  C   UNL     1      32.902 -11.977 -21.119  0.00  0.00    +0.145 C 
ATOM     14  C   UNL     1      33.849 -11.200 -23.154  0.00  0.00    +0.097 C 
ATOM     15  C   UNL     1      31.427  -8.919 -20.303  0.00  0.00    +0.103 C 
BRANCH  12  17
ATOM     16  N   UNL     1      32.062  -4.887 -23.612  0.00  0.00    -0.242 NA
ATOM     17  C   UNL     1      32.039  -7.320 -22.226  0.00  0.00    -0.007 C 
ATOM     18  C   UNL     1      31.832  -7.294 -23.603  0.00  0.00    +0.017 C 
ATOM     19  C   UNL     1      32.258  -6.126 -21.544  0.00  0.00    +0.017 C 
ATOM     20  C   UNL     1      31.853  -6.065 -24.242  0.00  0.00    +0.099 C 
ATOM     21  C   UNL     1      32.259  -4.948 -22.276  0.00  0.00    +0.099 C 
ENDBRANCH  12  17
ENDBRANCH   2  10
BRANCH   1  22
ATOM     22  O   UNL     1      35.721 -17.478 -23.017  0.00  0.00    -0.478 OA
BRANCH  22  23
ATOM     23  C   UNL     1      35.223 -18.513 -22.180  0.00  0.00    +0.183 C 
BRANCH  23  24
ATOM     24  C   UNL     1      36.109 -18.615 -20.948  0.00  0.00    -0.029 C 
BRANCH  24  25
ATOM     25  N   UNL     1      35.412 -19.311 -19.867  0.00  0.00    +0.389 N 
ATOM     26  C   UNL     1      34.040 -19.648 -20.274  0.00  0.00    -0.077 C 
ATOM     27  C   UNL     1      36.157 -20.511 -19.465  0.00  0.00    -0.077 C 
ATOM     28  C   UNL     1      33.280 -20.334 -19.137  0.00  0.00    -0.023 C 
ATOM     29  C   UNL     1      35.467 -21.225 -18.302  0.00  0.00    -0.023 C 
ATOM     30  C   UNL     1      34.022 -21.571 -18.642  0.00  0.00    -0.004 C 
ATOM     31  H   UNL     1      35.356 -18.690 -19.060  0.00  0.00    -0.080 HD
ENDBRANCH  24  25
ENDBRANCH  23  24
ENDBRANCH  22  23
ENDBRANCH   1  22
TORSDOF 6
ENDMDL
MODEL 8
REMARK VINA RESULT:     -10.5      4.775     13.477
REMARK  Name = 11524144
REMARK  6 active torsions:
REMARK  status: ('A' for Active; 'I' for Inactive)
REMARK    1  A    between atoms: C_1  and  O_22
REMARK    2  A    between atoms: C_2  and  C_10
REMARK    3  A    between atoms: C_12  and  C_17
REMARK    4  A    between atoms: O_22  and  C_23
REMARK    5  A    between atoms: C_23  and  C_24
REMARK    6  A    between atoms: C_24  and  N_25
REMARK                            x       y       z     vdW  Elec       q    Type
REMARK                         _______ _______ _______ _____ _____    ______ ____
ROOT
ATOM      1  C   UNL     1      34.572 -15.879 -23.561  0.00  0.00    +0.138 C 
ATOM      2  C   UNL     1      34.194 -13.139 -23.276  0.00  0.00    -0.001 C 
ATOM      3  C   UNL     1      35.069 -15.229 -22.437  0.00  0.00    +0.037 C 
ATOM      4  C   UNL     1      33.887 -15.173 -24.543  0.00  0.00    +0.037 C 
ATOM      5  C   UNL     1      34.880 -13.854 -22.294  0.00  0.00    +0.003 C 
ATOM      6  C   UNL     1      33.698 -13.798 -24.400  0.00  0.00    +0.003 C 
ENDROOT
BRANCH   2  10
ATOM      7  N   UNL     1      34.361  -9.410 -23.701  0.00  0.00    -0.193 N 
ATOM      8  N   UNL     1      32.905  -9.836 -21.838  0.00  0.00    -0.231 NA
ATOM      9  N   UNL     1      34.880  -8.371 -24.406  0.00  0.00    -0.179 NA
ATOM     10  C   UNL     1      33.995 -11.690 -23.126  0.00  0.00    +0.019 C 
ATOM     11  C   UNL     1      33.533  -8.964 -22.673  0.00  0.00    +0.137 C 
ATOM     12  C   UNL     1      33.534  -7.589 -22.741  0.00  0.00    +0.121 C 
ATOM     13  C   UNL     1      34.580 -10.770 -23.909  0.00  0.00    +0.145 C 
ATOM     14  C   UNL     1      33.128 -11.098 -22.058  0.00  0.00    +0.097 C 
ATOM     15  C   UNL     1      34.376  -7.285 -23.819  0.00  0.00    +0.103 C 
BRANCH  12  17
ATOM     16  N   UNL     1      31.375  -5.062 -20.123  0.00  0.00    -0.242 NA
ATOM     17  C   UNL     1      32.804  -6.733 -21.856  0.00  0.00    -0.007 C 
ATOM     18  C   UNL     1      33.145  -6.663 -20.507  0.00  0.00    +0.017 C 
ATOM     19  C   UNL     1      31.747  -5.966 -22.335  0.00  0.00    +0.017 C 
ATOM     20  C   UNL     1      32.407  -5.821 -19.692  0.00  0.00    +0.099 C 
ATOM     21  C   UNL     1      31.071  -5.154 -21.437  0.00  0.00    +0.099 C 
ENDBRANCH  12  17
ENDBRANCH   2  10
BRANCH   1  22
ATOM     22  O   UNL     1      34.758 -17.230 -23.701  0.00  0.00    -0.478 OA
BRANCH  22  23
ATOM     23  C   UNL     1      35.431 -17.898 -22.643  0.00  0.00    +0.183 C 
BRANCH  23  24
ATOM     24  C   UNL     1      34.401 -18.372 -21.630  0.00  0.00    -0.029 C 
BRANCH  24  25
ATOM     25  N   UNL     1      34.915 -19.506 -20.863  0.00  0.00    +0.389 N 
ATOM     26  C   UNL     1      36.191 -19.157 -20.222  0.00  0.00    -0.077 C 
ATOM     27  C   UNL     1      33.925 -19.945 -19.871  0.00  0.00    -0.077 C 
ATOM     28  C   UNL     1      36.768 -20.347 -19.455  0.00  0.00    -0.023 C 
ATOM     29  C   UNL     1      34.427 -21.162 -19.092  0.00  0.00    -0.023 C 
ATOM     30  C   UNL     1      35.772 -20.882 -18.431  0.00  0.00    -0.004 C 
ATOM     31  H   UNL     1      35.087 -20.282 -21.502  0.00  0.00    -0.080 HD
ENDBRANCH  24  25
ENDBRANCH  23  24
ENDBRANCH  22  23
ENDBRANCH   1  22
TORSDOF 6
ENDMDL
MODEL 9
REMARK VINA RESULT:     -10.4      4.538     13.223
REMARK  Name = 11524144
REMARK  6 active torsions:
REMARK  status: ('A' for Active; 'I' for Inactive)
REMARK    1  A    between atoms: C_1  and  O_22
REMARK    2  A    between atoms: C_2  and  C_10
REMARK    3  A    between atoms: C_12  and  C_17
REMARK    4  A    between atoms: O_22  and  C_23
REMARK    5  A    between atoms: C_23  and  C_24
REMARK    6  A    between atoms: C_24  and  N_25
REMARK                            x       y       z     vdW  Elec       q    Type
REMARK                         _______ _______ _______ _____ _____    ______ ____
ROOT
ATOM      1  C   UNL     1      34.866 -16.344 -23.245  0.00  0.00    +0.138 C 
ATOM      2  C   UNL     1      34.374 -13.611 -23.122  0.00  0.00    -0.001 C 
ATOM      3  C   UNL     1      34.267 -15.704 -24.323  0.00  0.00    +0.037 C 
ATOM      4  C   UNL     1      35.221 -15.631 -22.106  0.00  0.00    +0.037 C 
ATOM      5  C   UNL     1      34.020 -14.332 -24.262  0.00  0.00    +0.003 C 
ATOM      6  C   UNL     1      34.974 -14.260 -22.044  0.00  0.00    +0.003 C 
ENDROOT
BRANCH   2  10
ATOM      7  N   UNL     1      34.326  -9.917 -23.809  0.00  0.00    -0.193 N 
ATOM      8  N   UNL     1      33.016 -10.276 -21.827  0.00  0.00    -0.231 NA
ATOM      9  N   UNL     1      34.746  -8.907 -24.616  0.00  0.00    -0.179 NA
ATOM     10  C   UNL     1      34.113 -12.165 -23.057  0.00  0.00    +0.019 C 
ATOM     11  C   UNL     1      33.544  -9.438 -22.760  0.00  0.00    +0.137 C 
ATOM     12  C   UNL     1      33.472  -8.072 -22.921  0.00  0.00    +0.121 C 
ATOM     13  C   UNL     1      34.599 -11.277 -23.939  0.00  0.00    +0.145 C 
ATOM     14  C   UNL     1      33.287 -11.539 -21.976  0.00  0.00    +0.097 C 
ATOM     15  C   UNL     1      34.226  -7.807 -24.071  0.00  0.00    +0.103 C 
BRANCH  12  17
ATOM     16  N   UNL     1      31.361  -5.463 -20.345  0.00  0.00    -0.242 NA
ATOM     17  C   UNL     1      32.758  -7.190 -22.049  0.00  0.00    -0.007 C 
ATOM     18  C   UNL     1      31.678  -6.452 -22.528  0.00  0.00    +0.017 C 
ATOM     19  C   UNL     1      33.136  -7.062 -20.715  0.00  0.00    +0.017 C 
ATOM     20  C   UNL     1      31.020  -5.611 -21.644  0.00  0.00    +0.099 C 
ATOM     21  C   UNL     1      32.412  -6.194 -19.913  0.00  0.00    +0.099 C 
ENDBRANCH  12  17
ENDBRANCH   2  10
BRANCH   1  22
ATOM     22  O   UNL     1      35.109 -17.692 -23.305  0.00  0.00    -0.478 OA
BRANCH  22  23
ATOM     23  C   UNL     1      34.651 -18.476 -22.211  0.00  0.00    +0.183 C 
BRANCH  23  24
ATOM     24  C   UNL     1      35.735 -18.506 -21.145  0.00  0.00    -0.029 C 
BRANCH  24  25
ATOM     25  N   UNL     1      35.274 -19.232 -19.962  0.00  0.00    +0.389 N 
ATOM     26  C   UNL     1      33.923 -19.766 -20.180  0.00  0.00    -0.077 C 
ATOM     27  C   UNL     1      36.219 -20.303 -19.617  0.00  0.00    -0.077 C 
ATOM     28  C   UNL     1      33.406 -20.487 -18.935  0.00  0.00    -0.023 C 
ATOM     29  C   UNL     1      35.778 -21.042 -18.353  0.00  0.00    -0.023 C 
ATOM     30  C   UNL     1      34.363 -21.591 -18.496  0.00  0.00    -0.004 C 
ATOM     31  H   UNL     1      35.233 -18.584 -19.176  0.00  0.00    -0.080 HD
ENDBRANCH  24  25
ENDBRANCH  23  24
ENDBRANCH  22  23
ENDBRANCH   1  22
TORSDOF 6
ENDMDL
