MODEL 1
REMARK VINA RESULT:     -12.4      0.000      0.000
REMARK  Name = 11234049
REMARK  5 active torsions:
REMARK  status: ('A' for Active; 'I' for Inactive)
REMARK    1  A    between atoms: C_2  and  N_10
REMARK    2  A    between atoms: C_5  and  C_18
REMARK    3  A    between atoms: C_11  and  C_14
REMARK    4  A    between atoms: C_14  and  O_15
REMARK    5  A    between atoms: C_22  and  C_27
REMARK                            x       y       z     vdW  Elec       q    Type
REMARK                         _______ _______ _______ _____ _____    ______ ____
ROOT
ATOM      1  F   UNL     1      33.932 -22.769 -16.613  0.00  0.00    -0.204 F 
ATOM      2  C   UNL     1      35.764 -23.764 -13.631  0.00  0.00    +0.059 C 
ATOM      3  C   UNL     1      35.482 -23.422 -14.958  0.00  0.00    +0.045 C 
ATOM      4  C   UNL     1      34.732 -23.773 -12.688  0.00  0.00    +0.015 C 
ATOM      5  C   UNL     1      33.156 -23.104 -14.390  0.00  0.00    +0.029 C 
ATOM      6  C   UNL     1      34.182 -23.093 -15.337  0.00  0.00    +0.141 C 
ATOM      7  C   UNL     1      33.432 -23.443 -13.066  0.00  0.00    +0.004 C 
ENDROOT
BRANCH   2  10
ATOM      8  O   UNL     1      38.863 -24.939 -12.122  0.00  0.00    -0.434 OA
ATOM      9  O   UNL     1      36.808 -25.355 -11.258  0.00  0.00    -0.226 OA
ATOM     10  N   UNL     1      37.093 -24.101 -13.244  0.00  0.00    -0.221 N 
ATOM     11  C   UNL     1      39.378 -24.440 -13.364  0.00  0.00    +0.220 C 
ATOM     12  C   UNL     1      38.255 -23.596 -13.925  0.00  0.00    +0.148 C 
ATOM     13  C   UNL     1      37.489 -24.849 -12.138  0.00  0.00    +0.409 C 
BRANCH  11  14
ATOM     14  C   UNL     1      39.746 -25.619 -14.254  0.00  0.00    +0.183 C 
BRANCH  14  15
ATOM     15  O   UNL     1      40.506 -25.141 -15.350  0.00  0.00    -0.378 OA
ATOM     16  H   UNL     1      41.294 -24.682 -15.020  0.00  0.00    +0.211 HD
ENDBRANCH  14  15
ENDBRANCH  11  14
ENDBRANCH   2  10
BRANCH   5  18
ATOM     17  N   UNL     1      30.271 -22.052 -16.505  0.00  0.00    -0.234 NA
ATOM     18  C   UNL     1      31.803 -22.763 -14.779  0.00  0.00    +0.021 C 
ATOM     19  C   UNL     1      30.763 -22.811 -13.860  0.00  0.00    +0.004 C 
ATOM     20  C   UNL     1      31.511 -22.382 -16.077  0.00  0.00    +0.100 C 
ATOM     21  C   UNL     1      29.475 -22.478 -14.263  0.00  0.00    +0.029 C 
ATOM     22  C   UNL     1      29.283 -22.108 -15.584  0.00  0.00    +0.146 C 
BRANCH  22  27
ATOM     23  N   UNL     1      27.699 -21.498 -17.335  0.00  0.00    -0.105 NA
ATOM     24  N   UNL     1      26.390 -21.232 -17.224  0.00  0.00    -0.113 N 
ATOM     25  N   UNL     1      26.903 -21.650 -15.221  0.00  0.00    -0.085 NA
ATOM     26  N   UNL     1      25.876 -21.310 -15.988  0.00  0.00    -0.018 NA
ATOM     27  C   UNL     1      27.975 -21.754 -16.055  0.00  0.00    +0.092 C 
ATOM     28  C   UNL     1      25.583 -20.881 -18.364  0.00  0.00    +0.163 C 
ENDBRANCH  22  27
ENDBRANCH   5  18
TORSDOF 5
ENDMDL
MODEL 2
REMARK VINA RESULT:     -12.0      5.396      6.906
REMARK  Name = 11234049
REMARK  5 active torsions:
REMARK  status: ('A' for Active; 'I' for Inactive)
REMARK    1  A    between atoms: C_2  and  N_10
REMARK    2  A    between atoms: C_5  and  C_18
REMARK    3  A    between atoms: C_11  and  C_14
REMARK    4  A    between atoms: C_14  and  O_15
REMARK    5  A    between atoms: C_22  and  C_27
REMARK                            x       y       z     vdW  Elec       q    Type
REMARK                         _______ _______ _______ _____ _____    ______ ____
ROOT
ATOM      1  F   UNL     1      33.532 -22.058 -17.482  0.00  0.00    -0.204 F 
ATOM      2  C   UNL     1      36.109 -22.826 -15.030  0.00  0.00    +0.059 C 
ATOM      3  C   UNL     1      34.877 -22.807 -15.693  0.00  0.00    +0.045 C 
ATOM      4  C   UNL     1      37.182 -22.095 -15.549  0.00  0.00    +0.015 C 
ATOM      5  C   UNL     1      35.795 -21.335 -17.375  0.00  0.00    +0.029 C 
ATOM      6  C   UNL     1      34.721 -22.064 -16.862  0.00  0.00    +0.141 C 
ATOM      7  C   UNL     1      37.026 -21.352 -16.719  0.00  0.00    +0.004 C 
ENDROOT
BRANCH   2  10
ATOM      8  O   UNL     1      37.015 -25.074 -12.313  0.00  0.00    -0.434 OA
ATOM      9  O   UNL     1      38.054 -25.057 -14.329  0.00  0.00    -0.226 OA
ATOM     10  N   UNL     1      36.269 -23.585 -13.836  0.00  0.00    -0.221 N 
ATOM     11  C   UNL     1      36.099 -24.218 -11.617  0.00  0.00    +0.220 C 
ATOM     12  C   UNL     1      35.374 -23.471 -12.715  0.00  0.00    +0.148 C 
ATOM     13  C   UNL     1      37.199 -24.591 -13.590  0.00  0.00    +0.409 C 
BRANCH  11  14
ATOM     14  C   UNL     1      36.888 -23.304 -10.689  0.00  0.00    +0.183 C 
BRANCH  14  15
ATOM     15  O   UNL     1      36.492 -23.563  -9.353  0.00  0.00    -0.378 OA
ATOM     16  H   UNL     1      35.769 -22.966  -9.110  0.00  0.00    +0.211 HD
ENDBRANCH  14  15
ENDBRANCH  11  14
ENDBRANCH   2  10
BRANCH   5  18
ATOM     17  N   UNL     1      34.171 -19.650 -20.277  0.00  0.00    -0.234 NA
ATOM     18  C   UNL     1      35.638 -20.562 -18.589  0.00  0.00    +0.021 C 
ATOM     19  C   UNL     1      36.737 -20.000 -19.225  0.00  0.00    +0.004 C 
ATOM     20  C   UNL     1      34.387 -20.362 -19.147  0.00  0.00    +0.100 C 
ATOM     21  C   UNL     1      36.554 -19.262 -20.389  0.00  0.00    +0.029 C 
ATOM     22  C   UNL     1      35.263 -19.118 -20.870  0.00  0.00    +0.146 C 
BRANCH  22  27
ATOM     23  N   UNL     1      35.369 -17.090 -22.221  0.00  0.00    -0.105 NA
ATOM     24  N   UNL     1      34.922 -16.891 -23.468  0.00  0.00    -0.113 N 
ATOM     25  N   UNL     1      34.394 -18.909 -23.152  0.00  0.00    -0.085 NA
ATOM     26  N   UNL     1      34.336 -17.942 -24.059  0.00  0.00    -0.018 NA
ATOM     27  C   UNL     1      35.016 -18.368 -22.068  0.00  0.00    +0.092 C 
ATOM     28  C   UNL     1      35.060 -15.622 -24.135  0.00  0.00    +0.163 C 
ENDBRANCH  22  27
ENDBRANCH   5  18
TORSDOF 5
ENDMDL
MODEL 3
REMARK VINA RESULT:     -11.9      5.414      6.831
REMARK  Name = 11234049
REMARK  5 active torsions:
REMARK  status: ('A' for Active; 'I' for Inactive)
REMARK    1  A    between atoms: C_2  and  N_10
REMARK    2  A    between atoms: C_5  and  C_18
REMARK    3  A    between atoms: C_11  and  C_14
REMARK    4  A    between atoms: C_14  and  O_15
REMARK    5  A    between atoms: C_22  and  C_27
REMARK                            x       y       z     vdW  Elec       q    Type
REMARK                         _______ _______ _______ _____ _____    ______ ____
ROOT
ATOM      1  F   UNL     1      37.605 -20.378 -16.935  0.00  0.00    -0.204 F 
ATOM      2  C   UNL     1      35.877 -22.911 -14.974  0.00  0.00    +0.059 C 
ATOM      3  C   UNL     1      36.847 -21.992 -15.388  0.00  0.00    +0.045 C 
ATOM      4  C   UNL     1      34.720 -23.083 -15.741  0.00  0.00    +0.015 C 
ATOM      5  C   UNL     1      35.506 -21.430 -17.317  0.00  0.00    +0.029 C 
ATOM      6  C   UNL     1      36.663 -21.253 -16.556  0.00  0.00    +0.141 C 
ATOM      7  C   UNL     1      34.535 -22.343 -16.908  0.00  0.00    +0.004 C 
ENDROOT
BRANCH   2  10
ATOM      8  O   UNL     1      36.822 -25.179 -12.287  0.00  0.00    -0.434 OA
ATOM      9  O   UNL     1      37.741 -25.234 -14.359  0.00  0.00    -0.226 OA
ATOM     10  N   UNL     1      36.067 -23.666 -13.782  0.00  0.00    -0.221 N 
ATOM     11  C   UNL     1      35.994 -24.269 -11.550  0.00  0.00    +0.220 C 
ATOM     12  C   UNL     1      35.246 -23.495 -12.612  0.00  0.00    +0.148 C 
ATOM     13  C   UNL     1      36.956 -24.718 -13.578  0.00  0.00    +0.409 C 
BRANCH  11  14
ATOM     14  C   UNL     1      36.883 -23.390 -10.680  0.00  0.00    +0.183 C 
BRANCH  14  15
ATOM     15  O   UNL     1      36.492 -23.546  -9.327  0.00  0.00    -0.378 OA
ATOM     16  H   UNL     1      36.740 -22.755  -8.826  0.00  0.00    +0.211 HD
ENDBRANCH  14  15
ENDBRANCH  11  14
ENDBRANCH   2  10
BRANCH   5  18
ATOM     17  N   UNL     1      36.271 -19.399 -20.349  0.00  0.00    -0.234 NA
ATOM     18  C   UNL     1      35.309 -20.665 -18.530  0.00  0.00    +0.021 C 
ATOM     19  C   UNL     1      34.036 -20.457 -19.044  0.00  0.00    +0.004 C 
ATOM     20  C   UNL     1      36.385 -20.122 -19.211  0.00  0.00    +0.100 C 
ATOM     21  C   UNL     1      33.879 -19.719 -20.212  0.00  0.00    +0.029 C 
ATOM     22  C   UNL     1      35.018 -19.216 -20.820  0.00  0.00    +0.146 C 
BRANCH  22  27
ATOM     23  N   UNL     1      35.208 -17.146 -22.096  0.00  0.00    -0.105 NA
ATOM     24  N   UNL     1      34.949 -16.936 -23.394  0.00  0.00    -0.113 N 
ATOM     25  N   UNL     1      34.504 -18.990 -23.206  0.00  0.00    -0.085 NA
ATOM     26  N   UNL     1      34.529 -18.001 -24.091  0.00  0.00    -0.018 NA
ATOM     27  C   UNL     1      34.914 -18.446 -22.026  0.00  0.00    +0.092 C 
ATOM     28  C   UNL     1      35.111 -15.642 -24.005  0.00  0.00    +0.163 C 
ENDBRANCH  22  27
ENDBRANCH   5  18
TORSDOF 5
ENDMDL
MODEL 4
REMARK VINA RESULT:     -11.6      5.531      6.720
REMARK  Name = 11234049
REMARK  5 active torsions:
REMARK  status: ('A' for Active; 'I' for Inactive)
REMARK    1  A    between atoms: C_2  and  N_10
REMARK    2  A    between atoms: C_5  and  C_18
REMARK    3  A    between atoms: C_11  and  C_14
REMARK    4  A    between atoms: C_14  and  O_15
REMARK    5  A    between atoms: C_22  and  C_27
REMARK                            x       y       z     vdW  Elec       q    Type
REMARK                         _______ _______ _______ _____ _____    ______ ____
ROOT
ATOM      1  F   UNL     1      33.592 -22.037 -17.488  0.00  0.00    -0.204 F 
ATOM      2  C   UNL     1      36.378 -22.610 -15.218  0.00  0.00    +0.059 C 
ATOM      3  C   UNL     1      35.103 -22.674 -15.791  0.00  0.00    +0.045 C 
ATOM      4  C   UNL     1      37.367 -21.828 -15.824  0.00  0.00    +0.015 C 
ATOM      5  C   UNL     1      35.811 -21.184 -17.556  0.00  0.00    +0.029 C 
ATOM      6  C   UNL     1      34.820 -21.963 -16.956  0.00  0.00    +0.141 C 
ATOM      7  C   UNL     1      37.084 -21.118 -16.990  0.00  0.00    +0.004 C 
ENDROOT
BRANCH   2  10
ATOM      8  O   UNL     1      36.474 -24.331 -12.011  0.00  0.00    -0.434 OA
ATOM      9  O   UNL     1      34.634 -23.279 -12.818  0.00  0.00    -0.226 OA
ATOM     10  N   UNL     1      36.667 -23.336 -14.027  0.00  0.00    -0.221 N 
ATOM     11  C   UNL     1      37.741 -24.745 -12.540  0.00  0.00    +0.220 C 
ATOM     12  C   UNL     1      37.986 -23.810 -13.703  0.00  0.00    +0.148 C 
ATOM     13  C   UNL     1      35.801 -23.608 -12.971  0.00  0.00    +0.409 C 
BRANCH  11  14
ATOM     14  C   UNL     1      37.648 -26.207 -12.954  0.00  0.00    +0.183 C 
BRANCH  14  15
ATOM     15  O   UNL     1      38.535 -26.429 -14.037  0.00  0.00    -0.378 OA
ATOM     16  H   UNL     1      38.242 -25.914 -14.804  0.00  0.00    +0.211 HD
ENDBRANCH  14  15
ENDBRANCH  11  14
ENDBRANCH   2  10
BRANCH   5  18
ATOM     17  N   UNL     1      36.332 -19.119 -20.616  0.00  0.00    -0.234 NA
ATOM     18  C   UNL     1      35.522 -20.444 -18.766  0.00  0.00    +0.021 C 
ATOM     19  C   UNL     1      34.223 -20.339 -19.245  0.00  0.00    +0.004 C 
ATOM     20  C   UNL     1      36.533 -19.824 -19.479  0.00  0.00    +0.100 C 
ATOM     21  C   UNL     1      33.976 -19.621 -20.410  0.00  0.00    +0.029 C 
ATOM     22  C   UNL     1      35.055 -19.036 -21.052  0.00  0.00    +0.146 C 
BRANCH  22  27
ATOM     23  N   UNL     1      35.205 -17.001 -22.388  0.00  0.00    -0.105 NA
ATOM     24  N   UNL     1      34.818 -16.801 -23.656  0.00  0.00    -0.113 N 
ATOM     25  N   UNL     1      34.298 -18.827 -23.374  0.00  0.00    -0.085 NA
ATOM     26  N   UNL     1      34.275 -17.857 -24.279  0.00  0.00    -0.018 NA
ATOM     27  C   UNL     1      34.859 -18.283 -22.258  0.00  0.00    +0.092 C 
ATOM     28  C   UNL     1      34.974 -15.528 -24.310  0.00  0.00    +0.163 C 
ENDBRANCH  22  27
ENDBRANCH   5  18
TORSDOF 5
ENDMDL
MODEL 5
REMARK VINA RESULT:     -11.2      7.655     10.588
REMARK  Name = 11234049
REMARK  5 active torsions:
REMARK  status: ('A' for Active; 'I' for Inactive)
REMARK    1  A    between atoms: C_2  and  N_10
REMARK    2  A    between atoms: C_5  and  C_18
REMARK    3  A    between atoms: C_11  and  C_14
REMARK    4  A    between atoms: C_14  and  O_15
REMARK    5  A    between atoms: C_22  and  C_27
REMARK                            x       y       z     vdW  Elec       q    Type
REMARK                         _______ _______ _______ _____ _____    ______ ____
ROOT
ATOM      1  F   UNL     1      37.539 -19.510 -19.646  0.00  0.00    -0.204 F 
ATOM      2  C   UNL     1      34.994 -18.263 -21.929  0.00  0.00    +0.059 C 
ATOM      3  C   UNL     1      36.238 -18.492 -21.332  0.00  0.00    +0.045 C 
ATOM      4  C   UNL     1      33.850 -18.857 -21.386  0.00  0.00    +0.015 C 
ATOM      5  C   UNL     1      35.192 -19.893 -19.666  0.00  0.00    +0.029 C 
ATOM      6  C   UNL     1      36.337 -19.304 -20.204  0.00  0.00    +0.141 C 
ATOM      7  C   UNL     1      33.949 -19.670 -20.259  0.00  0.00    +0.004 C 
ENDROOT
BRANCH   2  10
ATOM      8  O   UNL     1      34.429 -16.672 -25.155  0.00  0.00    -0.434 OA
ATOM      9  O   UNL     1      33.789 -18.793 -24.671  0.00  0.00    -0.226 OA
ATOM     10  N   UNL     1      34.893 -17.432 -23.082  0.00  0.00    -0.221 N 
ATOM     11  C   UNL     1      34.889 -15.537 -24.409  0.00  0.00    +0.220 C 
ATOM     12  C   UNL     1      35.504 -16.133 -23.161  0.00  0.00    +0.148 C 
ATOM     13  C   UNL     1      34.312 -17.750 -24.307  0.00  0.00    +0.409 C 
BRANCH  11  14
ATOM     14  C   UNL     1      33.705 -14.626 -24.117  0.00  0.00    +0.183 C 
BRANCH  14  15
ATOM     15  O   UNL     1      32.957 -14.459 -25.309  0.00  0.00    -0.378 OA
ATOM     16  H   UNL     1      33.055 -15.247 -25.865  0.00  0.00    +0.211 HD
ENDBRANCH  14  15
ENDBRANCH  11  14
ENDBRANCH   2  10
BRANCH   5  18
ATOM     17  N   UNL     1      36.634 -21.613 -16.689  0.00  0.00    -0.234 NA
ATOM     18  C   UNL     1      35.289 -20.738 -18.494  0.00  0.00    +0.021 C 
ATOM     19  C   UNL     1      34.194 -21.464 -18.045  0.00  0.00    +0.004 C 
ATOM     20  C   UNL     1      36.476 -20.844 -17.791  0.00  0.00    +0.100 C 
ATOM     21  C   UNL     1      34.318 -22.267 -16.917  0.00  0.00    +0.029 C 
ATOM     22  C   UNL     1      35.548 -22.307 -16.281  0.00  0.00    +0.146 C 
BRANCH  22  27
ATOM     23  N   UNL     1      36.680 -24.054 -15.010  0.00  0.00    -0.105 NA
ATOM     24  N   UNL     1      36.418 -24.490 -13.770  0.00  0.00    -0.113 N 
ATOM     25  N   UNL     1      34.948 -22.995 -14.006  0.00  0.00    -0.085 NA
ATOM     26  N   UNL     1      35.399 -23.891 -13.137  0.00  0.00    -0.018 NA
ATOM     27  C   UNL     1      35.733 -23.119 -15.112  0.00  0.00    +0.092 C 
ATOM     28  C   UNL     1      37.184 -25.542 -13.154  0.00  0.00    +0.163 C 
ENDBRANCH  22  27
ENDBRANCH   5  18
TORSDOF 5
ENDMDL
MODEL 6
REMARK VINA RESULT:     -11.1      5.568      6.739
REMARK  Name = 11234049
REMARK  5 active torsions:
REMARK  status: ('A' for Active; 'I' for Inactive)
REMARK    1  A    between atoms: C_2  and  N_10
REMARK    2  A    between atoms: C_5  and  C_18
REMARK    3  A    between atoms: C_11  and  C_14
REMARK    4  A    between atoms: C_14  and  O_15
REMARK    5  A    between atoms: C_22  and  C_27
REMARK                            x       y       z     vdW  Elec       q    Type
REMARK                         _______ _______ _______ _____ _____    ______ ____
ROOT
ATOM      1  F   UNL     1      37.719 -20.039 -17.193  0.00  0.00    -0.204 F 
ATOM      2  C   UNL     1      36.198 -22.673 -15.195  0.00  0.00    +0.059 C 
ATOM      3  C   UNL     1      37.097 -21.692 -15.627  0.00  0.00    +0.045 C 
ATOM      4  C   UNL     1      35.045 -22.929 -15.944  0.00  0.00    +0.015 C 
ATOM      5  C   UNL     1      35.692 -21.234 -17.538  0.00  0.00    +0.029 C 
ATOM      6  C   UNL     1      36.845 -20.974 -16.795  0.00  0.00    +0.141 C 
ATOM      7  C   UNL     1      34.792 -22.210 -17.111  0.00  0.00    +0.004 C 
ENDROOT
BRANCH   2  10
ATOM      8  O   UNL     1      36.205 -24.437 -12.010  0.00  0.00    -0.434 OA
ATOM      9  O   UNL     1      34.372 -23.429 -12.884  0.00  0.00    -0.226 OA
ATOM     10  N   UNL     1      36.456 -23.407 -14.002  0.00  0.00    -0.221 N 
ATOM     11  C   UNL     1      37.506 -24.805 -12.487  0.00  0.00    +0.220 C 
ATOM     12  C   UNL     1      37.773 -23.847 -13.627  0.00  0.00    +0.148 C 
ATOM     13  C   UNL     1      35.554 -23.721 -12.989  0.00  0.00    +0.409 C 
BRANCH  11  14
ATOM     14  C   UNL     1      37.476 -26.264 -12.924  0.00  0.00    +0.183 C 
BRANCH  14  15
ATOM     15  O   UNL     1      38.483 -26.465 -13.901  0.00  0.00    -0.378 OA
ATOM     16  H   UNL     1      38.069 -26.665 -14.755  0.00  0.00    +0.211 HD
ENDBRANCH  14  15
ENDBRANCH  11  14
ENDBRANCH   2  10
BRANCH   5  18
ATOM     17  N   UNL     1      36.277 -19.207 -20.612  0.00  0.00    -0.234 NA
ATOM     18  C   UNL     1      35.426 -20.491 -18.752  0.00  0.00    +0.021 C 
ATOM     19  C   UNL     1      34.130 -20.342 -19.227  0.00  0.00    +0.004 C 
ATOM     20  C   UNL     1      36.456 -19.911 -19.472  0.00  0.00    +0.100 C 
ATOM     21  C   UNL     1      33.905 -19.623 -20.397  0.00  0.00    +0.029 C 
ATOM     22  C   UNL     1      35.003 -19.080 -21.045  0.00  0.00    +0.146 C 
BRANCH  22  27
ATOM     23  N   UNL     1      35.185 -17.048 -22.381  0.00  0.00    -0.105 NA
ATOM     24  N   UNL     1      34.819 -16.848 -23.655  0.00  0.00    -0.113 N 
ATOM     25  N   UNL     1      34.283 -18.870 -23.379  0.00  0.00    -0.085 NA
ATOM     26  N   UNL     1      34.279 -17.901 -24.285  0.00  0.00    -0.018 NA
ATOM     27  C   UNL     1      34.830 -18.328 -22.255  0.00  0.00    +0.092 C 
ATOM     28  C   UNL     1      34.992 -15.577 -24.308  0.00  0.00    +0.163 C 
ENDBRANCH  22  27
ENDBRANCH   5  18
TORSDOF 5
ENDMDL
MODEL 7
REMARK VINA RESULT:      -9.9     11.194     12.250
REMARK  Name = 11234049
REMARK  5 active torsions:
REMARK  status: ('A' for Active; 'I' for Inactive)
REMARK    1  A    between atoms: C_2  and  N_10
REMARK    2  A    between atoms: C_5  and  C_18
REMARK    3  A    between atoms: C_11  and  C_14
REMARK    4  A    between atoms: C_14  and  O_15
REMARK    5  A    between atoms: C_22  and  C_27
REMARK                            x       y       z     vdW  Elec       q    Type
REMARK                         _______ _______ _______ _____ _____    ______ ____
ROOT
ATOM      1  F   UNL     1      34.757 -14.919 -23.893  0.00  0.00    -0.204 F 
ATOM      2  C   UNL     1      35.514 -16.960 -20.977  0.00  0.00    +0.059 C 
ATOM      3  C   UNL     1      35.363 -16.560 -22.309  0.00  0.00    +0.045 C 
ATOM      4  C   UNL     1      35.192 -16.067 -19.950  0.00  0.00    +0.015 C 
ATOM      5  C   UNL     1      34.576 -14.396 -21.581  0.00  0.00    +0.029 C 
ATOM      6  C   UNL     1      34.895 -15.282 -22.611  0.00  0.00    +0.141 C 
ATOM      7  C   UNL     1      34.726 -14.788 -20.251  0.00  0.00    +0.004 C 
ENDROOT
BRANCH   2  10
ATOM      8  O   UNL     1      37.338 -20.049 -20.358  0.00  0.00    -0.434 OA
ATOM      9  O   UNL     1      38.319 -18.132 -21.069  0.00  0.00    -0.226 OA
ATOM     10  N   UNL     1      35.990 -18.266 -20.670  0.00  0.00    -0.221 N 
ATOM     11  C   UNL     1      36.061 -20.417 -19.821  0.00  0.00    +0.220 C 
ATOM     12  C   UNL     1      35.114 -19.359 -20.345  0.00  0.00    +0.148 C 
ATOM     13  C   UNL     1      37.304 -18.723 -20.729  0.00  0.00    +0.409 C 
BRANCH  11  14
ATOM     14  C   UNL     1      36.153 -20.440 -18.301  0.00  0.00    +0.183 C 
BRANCH  14  15
ATOM     15  O   UNL     1      35.579 -21.646 -17.830  0.00  0.00    -0.378 OA
ATOM     16  H   UNL     1      35.094 -21.473 -17.008  0.00  0.00    +0.211 HD
ENDBRANCH  14  15
ENDBRANCH  11  14
ENDBRANCH   2  10
BRANCH   5  18
ATOM     17  N   UNL     1      32.596 -11.244 -21.360  0.00  0.00    -0.234 NA
ATOM     18  C   UNL     1      34.090 -13.067 -21.888  0.00  0.00    +0.021 C 
ATOM     19  C   UNL     1      34.611 -12.346 -22.954  0.00  0.00    +0.004 C 
ATOM     20  C   UNL     1      33.093 -12.480 -21.128  0.00  0.00    +0.100 C 
ATOM     21  C   UNL     1      34.124 -11.071 -23.225  0.00  0.00    +0.029 C 
ATOM     22  C   UNL     1      33.125 -10.571 -22.406  0.00  0.00    +0.146 C 
BRANCH  22  27
ATOM     23  N   UNL     1      33.156  -8.365 -23.446  0.00  0.00    -0.105 NA
ATOM     24  N   UNL     1      32.279  -7.362 -23.307  0.00  0.00    -0.113 N 
ATOM     25  N   UNL     1      31.436  -8.831 -22.048  0.00  0.00    -0.085 NA
ATOM     26  N   UNL     1      31.243  -7.594 -22.487  0.00  0.00    -0.018 NA
ATOM     27  C   UNL     1      32.585  -9.262 -22.639  0.00  0.00    +0.092 C 
ATOM     28  C   UNL     1      32.439  -6.107 -23.994  0.00  0.00    +0.163 C 
ENDBRANCH  22  27
ENDBRANCH   5  18
TORSDOF 5
ENDMDL
MODEL 8
REMARK VINA RESULT:      -9.9     14.129     16.419
REMARK  Name = 11234049
REMARK  5 active torsions:
REMARK  status: ('A' for Active; 'I' for Inactive)
REMARK    1  A    between atoms: C_2  and  N_10
REMARK    2  A    between atoms: C_5  and  C_18
REMARK    3  A    between atoms: C_11  and  C_14
REMARK    4  A    between atoms: C_14  and  O_15
REMARK    5  A    between atoms: C_22  and  C_27
REMARK                            x       y       z     vdW  Elec       q    Type
REMARK                         _______ _______ _______ _____ _____    ______ ____
ROOT
ATOM      1  F   UNL     1      31.720 -11.702 -20.725  0.00  0.00    -0.204 F 
ATOM      2  C   UNL     1      32.583  -8.773 -22.705  0.00  0.00    +0.059 C 
ATOM      3  C   UNL     1      31.910  -9.616 -21.814  0.00  0.00    +0.045 C 
ATOM      4  C   UNL     1      33.728  -9.235 -23.360  0.00  0.00    +0.015 C 
ATOM      5  C   UNL     1      33.523 -11.365 -22.239  0.00  0.00    +0.029 C 
ATOM      6  C   UNL     1      32.379 -10.909 -21.582  0.00  0.00    +0.141 C 
ATOM      7  C   UNL     1      34.197 -10.527 -23.127  0.00  0.00    +0.004 C 
ENDROOT
BRANCH   2  10
ATOM      8  O   UNL     1      31.391  -5.332 -22.641  0.00  0.00    -0.434 OA
ATOM      9  O   UNL     1      31.956  -6.501 -20.781  0.00  0.00    -0.226 OA
ATOM     10  N   UNL     1      32.103  -7.453 -22.943  0.00  0.00    -0.221 N 
ATOM     11  C   UNL     1      31.563  -5.498 -24.055  0.00  0.00    +0.220 C 
ATOM     12  C   UNL     1      31.702  -6.992 -24.245  0.00  0.00    +0.148 C 
ATOM     13  C   UNL     1      31.849  -6.461 -21.998  0.00  0.00    +0.409 C 
BRANCH  11  14
ATOM     14  C   UNL     1      32.796  -4.720 -24.496  0.00  0.00    +0.183 C 
BRANCH  14  15
ATOM     15  O   UNL     1      32.631  -4.340 -25.851  0.00  0.00    -0.378 OA
ATOM     16  H   UNL     1      33.272  -4.818 -26.400  0.00  0.00    +0.211 HD
ENDBRANCH  14  15
ENDBRANCH  11  14
ENDBRANCH   2  10
BRANCH   5  18
ATOM     17  N   UNL     1      34.667 -14.851 -22.897  0.00  0.00    -0.234 NA
ATOM     18  C   UNL     1      34.013 -12.706 -22.001  0.00  0.00    +0.021 C 
ATOM     19  C   UNL     1      34.299 -13.143 -20.714  0.00  0.00    +0.004 C 
ATOM     20  C   UNL     1      34.211 -13.587 -23.049  0.00  0.00    +0.100 C 
ATOM     21  C   UNL     1      34.769 -14.437 -20.517  0.00  0.00    +0.029 C 
ATOM     22  C   UNL     1      34.934 -15.244 -21.631  0.00  0.00    +0.146 C 
BRANCH  22  27
ATOM     23  N   UNL     1      35.777 -17.117 -20.316  0.00  0.00    -0.105 NA
ATOM     24  N   UNL     1      36.130 -18.341 -20.732  0.00  0.00    -0.113 N 
ATOM     25  N   UNL     1      35.540 -17.436 -22.545  0.00  0.00    -0.085 NA
ATOM     26  N   UNL     1      36.006 -18.574 -22.047  0.00  0.00    -0.018 NA
ATOM     27  C   UNL     1      35.415 -16.588 -21.486  0.00  0.00    +0.092 C 
ATOM     28  C   UNL     1      36.616 -19.346 -19.823  0.00  0.00    +0.163 C 
ENDBRANCH  22  27
ENDBRANCH   5  18
TORSDOF 5
ENDMDL
MODEL 9
REMARK VINA RESULT:      -9.8     12.864     15.145
REMARK  Name = 11234049
REMARK  5 active torsions:
REMARK  status: ('A' for Active; 'I' for Inactive)
REMARK    1  A    between atoms: C_2  and  N_10
REMARK    2  A    between atoms: C_5  and  C_18
REMARK    3  A    between atoms: C_11  and  C_14
REMARK    4  A    between atoms: C_14  and  O_15
REMARK    5  A    between atoms: C_22  and  C_27
REMARK                            x       y       z     vdW  Elec       q    Type
REMARK                         _______ _______ _______ _____ _____    ______ ____
ROOT
ATOM      1  F   UNL     1      32.267 -13.013 -20.120  0.00  0.00    -0.204 F 
ATOM      2  C   UNL     1      32.977 -10.206 -22.324  0.00  0.00    +0.059 C 
ATOM      3  C   UNL     1      32.373 -10.995 -21.340  0.00  0.00    +0.045 C 
ATOM      4  C   UNL     1      34.075 -10.707 -23.031  0.00  0.00    +0.015 C 
ATOM      5  C   UNL     1      33.957 -12.767 -21.776  0.00  0.00    +0.029 C 
ATOM      6  C   UNL     1      32.861 -12.272 -21.066  0.00  0.00    +0.141 C 
ATOM      7  C   UNL     1      34.564 -11.983 -22.757  0.00  0.00    +0.004 C 
ENDROOT
BRANCH   2  10
ATOM      8  O   UNL     1      31.585  -6.842 -22.375  0.00  0.00    -0.434 OA
ATOM      9  O   UNL     1      31.808  -8.081 -20.489  0.00  0.00    -0.226 OA
ATOM     10  N   UNL     1      32.478  -8.902 -22.604  0.00  0.00    -0.221 N 
ATOM     11  C   UNL     1      32.067  -6.919 -23.723  0.00  0.00    +0.220 C 
ATOM     12  C   UNL     1      32.338  -8.391 -23.942  0.00  0.00    +0.148 C 
ATOM     13  C   UNL     1      31.964  -7.979 -21.697  0.00  0.00    +0.409 C 
BRANCH  11  14
ATOM     14  C   UNL     1      33.314  -6.054 -23.851  0.00  0.00    +0.183 C 
BRANCH  14  15
ATOM     15  O   UNL     1      34.404  -6.881 -24.216  0.00  0.00    -0.378 OA
ATOM     16  H   UNL     1      34.182  -7.808 -24.035  0.00  0.00    +0.211 HD
ENDBRANCH  14  15
ENDBRANCH  11  14
ENDBRANCH   2  10
BRANCH   5  18
ATOM     17  N   UNL     1      35.099 -15.755 -19.861  0.00  0.00    -0.234 NA
ATOM     18  C   UNL     1      34.468 -14.092 -21.495  0.00  0.00    +0.021 C 
ATOM     19  C   UNL     1      34.808 -14.958 -22.525  0.00  0.00    +0.004 C 
ATOM     20  C   UNL     1      34.629 -14.531 -20.192  0.00  0.00    +0.100 C 
ATOM     21  C   UNL     1      35.296 -16.226 -22.225  0.00  0.00    +0.029 C 
ATOM     22  C   UNL     1      35.422 -16.572 -20.889  0.00  0.00    +0.146 C 
BRANCH  22  27
ATOM     23  N   UNL     1      35.160 -18.821 -19.981  0.00  0.00    -0.105 NA
ATOM     24  N   UNL     1      36.085 -19.779 -19.840  0.00  0.00    -0.113 N 
ATOM     25  N   UNL     1      37.223 -18.222 -20.696  0.00  0.00    -0.085 NA
ATOM     26  N   UNL     1      37.323 -19.468 -20.251  0.00  0.00    -0.018 NA
ATOM     27  C   UNL     1      35.920 -17.866 -20.521  0.00  0.00    +0.092 C 
ATOM     28  C   UNL     1      35.770 -21.067 -19.279  0.00  0.00    +0.163 C 
ENDBRANCH  22  27
ENDBRANCH   5  18
TORSDOF 5
ENDMDL
