MODEL 1
REMARK VINA RESULT:     -11.7      0.000      0.000
REMARK  Name = 5288018
REMARK  3 active torsions:
REMARK  status: ('A' for Active; 'I' for Inactive)
REMARK    1  A    between atoms: C_9  and  N_24
REMARK    2  A    between atoms: C_10  and  C_17
REMARK    3  A    between atoms: N_23  and  N_29
REMARK                            x       y       z     vdW  Elec       q    Type
REMARK                         _______ _______ _______ _____ _____    ______ ____
ROOT
ATOM      1  O   UNL     1      35.887 -22.362 -16.198  0.00  0.00    -0.286 OA
ATOM      2  N   UNL     1      34.706 -24.281 -12.347  0.00  0.00    -0.278 N 
ATOM      3  N   UNL     1      33.399 -24.093 -12.684  0.00  0.00    -0.173 NA
ATOM      4  C   UNL     1      33.453 -22.471 -15.914  0.00  0.00    +0.054 C 
ATOM      5  C   UNL     1      34.838 -23.314 -14.275  0.00  0.00    +0.072 A 
ATOM      6  C   UNL     1      32.634 -22.984 -14.870  0.00  0.00    +0.024 C 
ATOM      7  C   UNL     1      33.511 -23.502 -13.864  0.00  0.00    +0.105 A 
ATOM      8  C   UNL     1      34.902 -22.670 -15.558  0.00  0.00    +0.199 C 
ATOM      9  C   UNL     1      32.903 -21.904 -17.028  0.00  0.00    +0.055 C 
ATOM     10  C   UNL     1      35.613 -23.824 -13.282  0.00  0.00    +0.073 A 
ATOM     11  C   UNL     1      31.260 -22.932 -14.939  0.00  0.00    +0.002 C 
ATOM     12  C   UNL     1      31.520 -21.839 -17.121  0.00  0.00    +0.015 C 
ATOM     13  C   UNL     1      30.706 -22.349 -16.083  0.00  0.00    +0.001 C 
ATOM     14  H   UNL     1      34.982 -24.709 -11.504  0.00  0.00    +0.189 HD
ENDROOT
BRANCH  10  17
ATOM     15  S   UNL     1      37.964 -24.914 -14.160  0.00  0.00    -0.075 S 
ATOM     16  N   UNL     1      39.184 -23.590 -12.305  0.00  0.00    -0.407 NA
ATOM     17  C   UNL     1      37.013 -23.921 -13.129  0.00  0.00    +0.141 C 
ATOM     18  C   UNL     1      37.837 -23.299 -12.210  0.00  0.00    +0.103 C 
ATOM     19  C   UNL     1      39.367 -24.432 -13.298  0.00  0.00    +0.135 C 
ATOM     20  C   UNL     1      37.409 -22.361 -11.149  0.00  0.00    +0.063 C 
ATOM     21  C   UNL     1      40.682 -24.973 -13.704  0.00  0.00    +0.074 C 
ENDBRANCH  10  17
BRANCH   9  24
ATOM     22  O   UNL     1      32.386 -19.654 -18.945  0.00  0.00    -0.251 OA
ATOM     23  N   UNL     1      34.467 -20.137 -19.831  0.00  0.00    -0.231 N 
ATOM     24  N   UNL     1      33.704 -21.390 -18.073  0.00  0.00    -0.267 N 
ATOM     25  C   UNL     1      33.411 -20.332 -18.940  0.00  0.00    +0.318 C 
ATOM     26  H   UNL     1      35.268 -20.709 -19.788  0.00  0.00    +0.171 HD
ATOM     27  H   UNL     1      34.575 -21.829 -18.208  0.00  0.00    +0.156 HD
BRANCH  23  29
ATOM     28  N   UNL     1      35.544 -17.277 -22.653  0.00  0.00    +0.387 N 
ATOM     29  N   UNL     1      34.375 -19.135 -20.778  0.00  0.00    -0.209 NA
ATOM     30  C   UNL     1      34.839 -18.480 -23.112  0.00  0.00    -0.058 C 
ATOM     31  C   UNL     1      35.001 -16.821 -21.367  0.00  0.00    -0.058 C 
ATOM     32  C   UNL     1      34.917 -19.593 -22.060  0.00  0.00    +0.069 C 
ATOM     33  C   UNL     1      35.078 -17.933 -20.317  0.00  0.00    +0.069 C 
ATOM     34  C   UNL     1      35.467 -16.216 -23.655  0.00  0.00    -0.101 C 
ATOM     35  H   UNL     1      36.528 -17.513 -22.519  0.00  0.00    -0.080 HD
ENDBRANCH  23  29
ENDBRANCH   9  24
TORSDOF 3
ENDMDL
MODEL 2
REMARK VINA RESULT:     -10.9      2.802      5.617
REMARK  Name = 5288018
REMARK  3 active torsions:
REMARK  status: ('A' for Active; 'I' for Inactive)
REMARK    1  A    between atoms: C_9  and  N_24
REMARK    2  A    between atoms: C_10  and  C_17
REMARK    3  A    between atoms: N_23  and  N_29
REMARK                            x       y       z     vdW  Elec       q    Type
REMARK                         _______ _______ _______ _____ _____    ______ ____
ROOT
ATOM      1  O   UNL     1      32.617 -21.666 -17.744  0.00  0.00    -0.286 OA
ATOM      2  N   UNL     1      32.527 -23.490 -13.674  0.00  0.00    -0.278 N 
ATOM      3  N   UNL     1      33.883 -23.366 -13.616  0.00  0.00    -0.173 NA
ATOM      4  C   UNL     1      34.853 -21.859 -16.755  0.00  0.00    +0.054 C 
ATOM      5  C   UNL     1      33.011 -22.588 -15.577  0.00  0.00    +0.072 A 
ATOM      6  C   UNL     1      35.306 -22.366 -15.505  0.00  0.00    +0.024 C 
ATOM      7  C   UNL     1      34.149 -22.813 -14.790  0.00  0.00    +0.105 A 
ATOM      8  C   UNL     1      33.356 -21.989 -16.837  0.00  0.00    +0.199 C 
ATOM      9  C   UNL     1      35.731 -21.353 -17.671  0.00  0.00    +0.055 C 
ATOM     10  C   UNL     1      31.956 -23.032 -14.844  0.00  0.00    +0.073 A 
ATOM     11  C   UNL     1      36.640 -22.367 -15.168  0.00  0.00    +0.002 C 
ATOM     12  C   UNL     1      37.082 -21.344 -17.354  0.00  0.00    +0.015 C 
ATOM     13  C   UNL     1      37.532 -21.848 -16.112  0.00  0.00    +0.001 C 
ATOM     14  H   UNL     1      31.996 -23.876 -12.939  0.00  0.00    +0.189 HD
ENDROOT
BRANCH  10  17
ATOM     15  S   UNL     1      29.745 -21.716 -15.773  0.00  0.00    -0.075 S 
ATOM     16  N   UNL     1      28.359 -23.838 -15.261  0.00  0.00    -0.407 NA
ATOM     17  C   UNL     1      30.569 -23.068 -15.106  0.00  0.00    +0.141 C 
ATOM     18  C   UNL     1      29.668 -24.097 -14.905  0.00  0.00    +0.103 C 
ATOM     19  C   UNL     1      28.282 -22.613 -15.731  0.00  0.00    +0.135 C 
ATOM     20  C   UNL     1      29.978 -25.432 -14.348  0.00  0.00    +0.063 C 
ATOM     21  C   UNL     1      27.036 -21.978 -16.215  0.00  0.00    +0.074 C 
ENDBRANCH  10  17
BRANCH   9  24
ATOM     22  O   UNL     1      36.702 -18.998 -19.257  0.00  0.00    -0.251 OA
ATOM     23  N   UNL     1      35.087 -19.574 -20.809  0.00  0.00    -0.231 N 
ATOM     24  N   UNL     1      35.296 -20.847 -18.917  0.00  0.00    -0.267 N 
ATOM     25  C   UNL     1      35.789 -19.738 -19.614  0.00  0.00    +0.318 C 
ATOM     26  H   UNL     1      34.361 -20.194 -21.050  0.00  0.00    +0.171 HD
ATOM     27  H   UNL     1      34.556 -21.333 -19.347  0.00  0.00    +0.156 HD
BRANCH  23  29
ATOM     28  N   UNL     1      34.781 -16.123 -23.111  0.00  0.00    +0.387 N 
ATOM     29  N   UNL     1      35.420 -18.528 -21.649  0.00  0.00    -0.209 NA
ATOM     30  C   UNL     1      35.595 -16.078 -21.890  0.00  0.00    -0.058 C 
ATOM     31  C   UNL     1      34.954 -17.409 -23.798  0.00  0.00    -0.058 C 
ATOM     32  C   UNL     1      35.248 -17.246 -20.960  0.00  0.00    +0.069 C 
ATOM     33  C   UNL     1      34.607 -18.576 -22.868  0.00  0.00    +0.069 C 
ATOM     34  C   UNL     1      35.114 -15.011 -23.998  0.00  0.00    -0.101 C 
ATOM     35  H   UNL     1      33.799 -16.031 -22.846  0.00  0.00    -0.080 HD
ENDBRANCH  23  29
ENDBRANCH   9  24
TORSDOF 3
ENDMDL
MODEL 3
REMARK VINA RESULT:     -10.8      1.586      2.037
REMARK  Name = 5288018
REMARK  3 active torsions:
REMARK  status: ('A' for Active; 'I' for Inactive)
REMARK    1  A    between atoms: C_9  and  N_24
REMARK    2  A    between atoms: C_10  and  C_17
REMARK    3  A    between atoms: N_23  and  N_29
REMARK                            x       y       z     vdW  Elec       q    Type
REMARK                         _______ _______ _______ _____ _____    ______ ____
ROOT
ATOM      1  O   UNL     1      35.036 -23.243 -16.194  0.00  0.00    -0.286 OA
ATOM      2  N   UNL     1      35.567 -24.105 -11.849  0.00  0.00    -0.278 N 
ATOM      3  N   UNL     1      34.236 -23.871 -11.667  0.00  0.00    -0.173 NA
ATOM      4  C   UNL     1      32.940 -23.042 -14.937  0.00  0.00    +0.054 C 
ATOM      5  C   UNL     1      34.883 -23.622 -13.841  0.00  0.00    +0.072 A 
ATOM      6  C   UNL     1      32.629 -23.220 -13.560  0.00  0.00    +0.024 C 
ATOM      7  C   UNL     1      33.846 -23.578 -12.899  0.00  0.00    +0.105 A 
ATOM      8  C   UNL     1      34.406 -23.297 -15.158  0.00  0.00    +0.199 C 
ATOM      9  C   UNL     1      31.975 -22.693 -15.839  0.00  0.00    +0.055 C 
ATOM     10  C   UNL     1      36.003 -23.965 -13.152  0.00  0.00    +0.073 A 
ATOM     11  C   UNL     1      31.350 -23.048 -13.082  0.00  0.00    +0.002 C 
ATOM     12  C   UNL     1      30.677 -22.514 -15.380  0.00  0.00    +0.015 C 
ATOM     13  C   UNL     1      30.368 -22.690 -14.012  0.00  0.00    +0.001 C 
ATOM     14  H   UNL     1      36.169 -24.354 -11.111  0.00  0.00    +0.189 HD
ENDROOT
BRANCH  10  17
ATOM     15  S   UNL     1      38.219 -25.568 -13.103  0.00  0.00    -0.075 S 
ATOM     16  N   UNL     1      39.429 -23.811 -14.563  0.00  0.00    -0.407 NA
ATOM     17  C   UNL     1      37.340 -24.163 -13.556  0.00  0.00    +0.141 C 
ATOM     18  C   UNL     1      38.149 -23.350 -14.329  0.00  0.00    +0.103 C 
ATOM     19  C   UNL     1      39.578 -24.973 -13.964  0.00  0.00    +0.135 C 
ATOM     20  C   UNL     1      37.768 -22.048 -14.919  0.00  0.00    +0.063 C 
ATOM     21  C   UNL     1      40.821 -25.775 -13.991  0.00  0.00    +0.074 C 
ENDBRANCH  10  17
BRANCH   9  24
ATOM     22  O   UNL     1      33.980 -20.907 -17.178  0.00  0.00    -0.251 OA
ATOM     23  N   UNL     1      33.195 -21.781 -19.171  0.00  0.00    -0.231 N 
ATOM     24  N   UNL     1      32.268 -22.513 -17.210  0.00  0.00    -0.267 N 
ATOM     25  C   UNL     1      33.220 -21.661 -17.781  0.00  0.00    +0.318 C 
ATOM     26  H   UNL     1      32.566 -22.399 -19.607  0.00  0.00    +0.171 HD
ATOM     27  H   UNL     1      31.738 -23.052 -17.840  0.00  0.00    +0.156 HD
BRANCH  23  29
ATOM     28  N   UNL     1      35.793 -18.738 -20.311  0.00  0.00    +0.387 N 
ATOM     29  N   UNL     1      34.064 -21.018 -19.929  0.00  0.00    -0.209 NA
ATOM     30  C   UNL     1      36.342 -20.084 -20.103  0.00  0.00    -0.058 C 
ATOM     31  C   UNL     1      34.477 -18.814 -20.959  0.00  0.00    -0.058 C 
ATOM     32  C   UNL     1      35.377 -20.945 -19.281  0.00  0.00    +0.069 C 
ATOM     33  C   UNL     1      33.513 -19.675 -20.137  0.00  0.00    +0.069 C 
ATOM     34  C   UNL     1      36.713 -17.918 -21.097  0.00  0.00    -0.101 C 
ATOM     35  H   UNL     1      35.677 -18.294 -19.400  0.00  0.00    -0.080 HD
ENDBRANCH  23  29
ENDBRANCH   9  24
TORSDOF 3
ENDMDL
MODEL 4
REMARK VINA RESULT:      -9.3     12.420     18.691
REMARK  Name = 5288018
REMARK  3 active torsions:
REMARK  status: ('A' for Active; 'I' for Inactive)
REMARK    1  A    between atoms: C_9  and  N_24
REMARK    2  A    between atoms: C_10  and  C_17
REMARK    3  A    between atoms: N_23  and  N_29
REMARK                            x       y       z     vdW  Elec       q    Type
REMARK                         _______ _______ _______ _____ _____    ______ ____
ROOT
ATOM      1  O   UNL     1      33.116  -5.988 -24.171  0.00  0.00    -0.286 OA
ATOM      2  N   UNL     1      31.280  -2.087 -23.022  0.00  0.00    -0.278 N 
ATOM      3  N   UNL     1      31.228  -2.522 -21.731  0.00  0.00    -0.173 NA
ATOM      4  C   UNL     1      32.627  -5.854 -21.772  0.00  0.00    +0.054 C 
ATOM      5  C   UNL     1      32.130  -4.070 -23.144  0.00  0.00    +0.072 A 
ATOM      6  C   UNL     1      32.054  -4.830 -20.967  0.00  0.00    +0.024 C 
ATOM      7  C   UNL     1      31.753  -3.734 -21.837  0.00  0.00    +0.105 A 
ATOM      8  C   UNL     1      32.692  -5.392 -23.202  0.00  0.00    +0.199 C 
ATOM      9  C   UNL     1      33.024  -7.041 -21.225  0.00  0.00    +0.055 C 
ATOM     10  C   UNL     1      31.819  -2.994 -23.913  0.00  0.00    +0.073 A 
ATOM     11  C   UNL     1      31.877  -4.991 -19.612  0.00  0.00    +0.002 C 
ATOM     12  C   UNL     1      32.856  -7.227 -19.859  0.00  0.00    +0.015 C 
ATOM     13  C   UNL     1      32.287  -6.210 -19.060  0.00  0.00    +0.001 C 
ATOM     14  H   UNL     1      30.958  -1.199 -23.297  0.00  0.00    +0.189 HD
ENDROOT
BRANCH  10  17
ATOM     15  S   UNL     1      33.429  -3.093 -26.122  0.00  0.00    -0.075 S 
ATOM     16  N   UNL     1      31.482  -2.086 -27.493  0.00  0.00    -0.407 NA
ATOM     17  C   UNL     1      31.965  -2.743 -25.294  0.00  0.00    +0.141 C 
ATOM     18  C   UNL     1      31.051  -2.216 -26.188  0.00  0.00    +0.103 C 
ATOM     19  C   UNL     1      32.721  -2.517 -27.576  0.00  0.00    +0.135 C 
ATOM     20  C   UNL     1      29.671  -1.786 -25.873  0.00  0.00    +0.063 C 
ATOM     21  C   UNL     1      33.521  -2.533 -28.820  0.00  0.00    +0.074 C 
ENDBRANCH  10  17
BRANCH   9  24
ATOM     22  O   UNL     1      31.938  -9.731 -21.993  0.00  0.00    -0.251 OA
ATOM     23  N   UNL     1      33.926 -10.034 -23.136  0.00  0.00    -0.231 N 
ATOM     24  N   UNL     1      33.595  -8.068 -22.011  0.00  0.00    -0.267 N 
ATOM     25  C   UNL     1      33.039  -9.310 -22.338  0.00  0.00    +0.318 C 
ATOM     26  H   UNL     1      34.798  -9.653 -23.385  0.00  0.00    +0.171 HD
ATOM     27  H   UNL     1      34.493  -7.889 -22.371  0.00  0.00    +0.156 HD
BRANCH  23  29
ATOM     28  N   UNL     1      34.192 -13.918 -24.604  0.00  0.00    +0.387 N 
ATOM     29  N   UNL     1      33.565 -11.296 -23.570  0.00  0.00    -0.209 NA
ATOM     30  C   UNL     1      33.796 -13.726 -23.203  0.00  0.00    -0.058 C 
ATOM     31  C   UNL     1      33.584 -12.888 -25.456  0.00  0.00    -0.058 C 
ATOM     32  C   UNL     1      34.173 -12.321 -22.717  0.00  0.00    +0.069 C 
ATOM     33  C   UNL     1      33.960 -11.485 -24.970  0.00  0.00    +0.069 C 
ATOM     34  C   UNL     1      33.830 -15.256 -25.067  0.00  0.00    -0.101 C 
ATOM     35  H   UNL     1      35.207 -13.827 -24.666  0.00  0.00    -0.080 HD
ENDBRANCH  23  29
ENDBRANCH   9  24
TORSDOF 3
ENDMDL
