MODEL 1
REMARK VINA RESULT:     -11.8      0.000      0.000
REMARK  Name = 9909438
REMARK  10 active torsions:
REMARK  status: ('A' for Active; 'I' for Inactive)
REMARK    1  A    between atoms: C_1  and  C_2
REMARK    2  A    between atoms: C_1  and  C_18
REMARK    3  A    between atoms: C_2  and  C_7
REMARK    4  A    between atoms: N_4  and  C_10
REMARK    5  A    between atoms: C_10  and  C_11
REMARK    6  A    between atoms: C_18  and  C_19
REMARK    7  A    between atoms: C_22  and  O_25
REMARK    8  A    between atoms: O_25  and  C_26
REMARK    9  A    between atoms: C_26  and  C_30
REMARK   10  A    between atoms: C_30  and  O_31
REMARK                            x       y       z     vdW  Elec       q    Type
REMARK                         _______ _______ _______ _____ _____    ______ ____
ROOT
ATOM      1  C   UNL     1      34.142 -21.940 -18.262  0.00  0.00    +0.014 C 
ENDROOT
BRANCH   1   2
ATOM      2  C   UNL     1      33.536 -20.699 -18.912  0.00  0.00    +0.078 C 
BRANCH   2   7
ATOM      3  O   UNL     1      37.570 -18.692 -20.325  0.00  0.00    -0.191 OA
ATOM      4  N   UNL     1      35.469 -18.846 -21.313  0.00  0.00    -0.151 N 
ATOM      5  N   UNL     1      34.294 -19.408 -20.918  0.00  0.00    -0.229 N 
ATOM      6  N   UNL     1      35.794 -19.783 -19.287  0.00  0.00    -0.308 NA
ATOM      7  C   UNL     1      34.559 -19.950 -19.696  0.00  0.00    +0.187 C 
ATOM      8  C   UNL     1      36.403 -19.063 -20.315  0.00  0.00    +0.286 C 
ATOM      9  H   UNL     1      33.440 -19.422 -21.408  0.00  0.00    +0.173 HD
BRANCH   4  10
ATOM     10  C   UNL     1      35.574 -18.160 -22.570  0.00  0.00    +0.152 C 
BRANCH  10  11
ATOM     11  C   UNL     1      35.233 -16.703 -22.446  0.00  0.00    +0.000 C 
ATOM     12  C   UNL     1      35.276 -16.092 -21.199  0.00  0.00    -0.003 C 
ATOM     13  C   UNL     1      34.877 -15.982 -23.580  0.00  0.00    -0.003 C 
ATOM     14  C   UNL     1      34.602 -14.007 -22.216  0.00  0.00    -0.022 C 
ATOM     15  C   UNL     1      34.959 -14.737 -21.084  0.00  0.00    -0.005 C 
ATOM     16  C   UNL     1      34.561 -14.628 -23.464  0.00  0.00    -0.005 C 
ATOM     17  C   UNL     1      34.263 -12.559 -22.093  0.00  0.00    +0.031 C 
ENDBRANCH  10  11
ENDBRANCH   4  10
ENDBRANCH   2   7
ENDBRANCH   1   2
BRANCH   1  18
ATOM     18  C   UNL     1      33.656 -22.142 -16.822  0.00  0.00    +0.027 C 
BRANCH  18  19
ATOM     19  C   UNL     1      34.803 -22.404 -15.881  0.00  0.00    -0.022 C 
ATOM     20  C   UNL     1      34.566 -23.067 -14.686  0.00  0.00    -0.001 C 
ATOM     21  C   UNL     1      36.077 -21.979 -16.225  0.00  0.00    -0.001 C 
ATOM     22  C   UNL     1      36.914 -22.889 -14.149  0.00  0.00    +0.139 C 
ATOM     23  C   UNL     1      35.627 -23.311 -13.814  0.00  0.00    +0.037 C 
ATOM     24  C   UNL     1      37.139 -22.222 -15.353  0.00  0.00    +0.037 C 
BRANCH  22  25
ATOM     25  O   UNL     1      37.950 -23.125 -13.298  0.00  0.00    -0.472 OA
BRANCH  25  26
ATOM     26  C   UNL     1      38.311 -24.487 -13.077  0.00  0.00    +0.221 C 
ATOM     27  C   UNL     1      37.598 -25.340 -14.122  0.00  0.00    +0.055 C 
ATOM     28  C   UNL     1      39.830 -24.596 -13.180  0.00  0.00    +0.055 C 
BRANCH  26  30
ATOM     29  O   UNL     1      38.002 -24.099 -10.694  0.00  0.00    -0.246 OA
ATOM     30  C   UNL     1      37.828 -24.817 -11.671  0.00  0.00    +0.350 C 
BRANCH  30  31
ATOM     31  O   UNL     1      37.171 -26.003 -11.592  0.00  0.00    -0.478 OA
ATOM     32  H   UNL     1      36.237 -26.025 -11.650  0.00  0.00    +0.295 HD
ENDBRANCH  30  31
ENDBRANCH  26  30
ENDBRANCH  25  26
ENDBRANCH  22  25
ENDBRANCH  18  19
ENDBRANCH   1  18
TORSDOF 10
ENDMDL
MODEL 2
REMARK VINA RESULT:     -11.2      3.258     10.639
REMARK  Name = 9909438
REMARK  10 active torsions:
REMARK  status: ('A' for Active; 'I' for Inactive)
REMARK    1  A    between atoms: C_1  and  C_2
REMARK    2  A    between atoms: C_1  and  C_18
REMARK    3  A    between atoms: C_2  and  C_7
REMARK    4  A    between atoms: N_4  and  C_10
REMARK    5  A    between atoms: C_10  and  C_11
REMARK    6  A    between atoms: C_18  and  C_19
REMARK    7  A    between atoms: C_22  and  O_25
REMARK    8  A    between atoms: O_25  and  C_26
REMARK    9  A    between atoms: C_26  and  C_30
REMARK   10  A    between atoms: C_30  and  O_31
REMARK                            x       y       z     vdW  Elec       q    Type
REMARK                         _______ _______ _______ _____ _____    ______ ____
ROOT
ATOM      1  C   UNL     1      33.400 -22.663 -17.251  0.00  0.00    +0.014 C 
ENDROOT
BRANCH   1   2
ATOM      2  C   UNL     1      34.340 -22.024 -16.232  0.00  0.00    +0.078 C 
BRANCH   2   7
ATOM      3  O   UNL     1      32.626 -24.128 -12.369  0.00  0.00    -0.191 OA
ATOM      4  N   UNL     1      34.792 -23.599 -13.031  0.00  0.00    -0.151 N 
ATOM      5  N   UNL     1      35.304 -22.984 -14.132  0.00  0.00    -0.229 N 
ATOM      6  N   UNL     1      33.073 -23.061 -14.389  0.00  0.00    -0.308 NA
ATOM      7  C   UNL     1      34.221 -22.687 -14.903  0.00  0.00    +0.187 C 
ATOM      8  C   UNL     1      33.417 -23.649 -13.171  0.00  0.00    +0.286 C 
ATOM      9  H   UNL     1      36.250 -22.796 -14.330  0.00  0.00    +0.173 HD
BRANCH   4  10
ATOM     10  C   UNL     1      35.650 -24.054 -11.973  0.00  0.00    +0.152 C 
BRANCH  10  11
ATOM     11  C   UNL     1      36.994 -24.484 -12.484  0.00  0.00    +0.000 C 
ATOM     12  C   UNL     1      37.093 -25.609 -13.294  0.00  0.00    -0.003 C 
ATOM     13  C   UNL     1      38.126 -23.753 -12.142  0.00  0.00    -0.003 C 
ATOM     14  C   UNL     1      39.483 -25.280 -13.431  0.00  0.00    -0.022 C 
ATOM     15  C   UNL     1      38.343 -26.008 -13.769  0.00  0.00    -0.005 C 
ATOM     16  C   UNL     1      39.375 -24.152 -12.617  0.00  0.00    -0.005 C 
ATOM     17  C   UNL     1      40.819 -25.708 -13.939  0.00  0.00    +0.031 C 
ENDBRANCH  10  11
ENDBRANCH   4  10
ENDBRANCH   2   7
ENDBRANCH   1   2
BRANCH   1  18
ATOM     18  C   UNL     1      34.018 -22.733 -18.652  0.00  0.00    +0.027 C 
BRANCH  18  19
ATOM     19  C   UNL     1      34.338 -21.361 -19.188  0.00  0.00    -0.022 C 
ATOM     20  C   UNL     1      33.303 -20.526 -19.582  0.00  0.00    -0.001 C 
ATOM     21  C   UNL     1      35.661 -20.957 -19.277  0.00  0.00    -0.001 C 
ATOM     22  C   UNL     1      34.926 -18.836 -20.171  0.00  0.00    +0.139 C 
ATOM     23  C   UNL     1      33.598 -19.256 -20.077  0.00  0.00    +0.037 C 
ATOM     24  C   UNL     1      35.957 -19.686 -19.772  0.00  0.00    +0.037 C 
BRANCH  22  25
ATOM     25  O   UNL     1      35.215 -17.597 -20.655  0.00  0.00    -0.472 OA
BRANCH  25  26
ATOM     26  C   UNL     1      35.729 -17.523 -21.984  0.00  0.00    +0.221 C 
ATOM     27  C   UNL     1      37.223 -17.827 -21.930  0.00  0.00    +0.055 C 
ATOM     28  C   UNL     1      34.965 -18.526 -22.843  0.00  0.00    +0.055 C 
BRANCH  26  30
ATOM     29  O   UNL     1      35.251 -15.154 -21.691  0.00  0.00    -0.246 OA
ATOM     30  C   UNL     1      35.473 -16.094 -22.444  0.00  0.00    +0.350 C 
BRANCH  30  31
ATOM     31  O   UNL     1      35.513 -15.948 -23.793  0.00  0.00    -0.478 OA
ATOM     32  H   UNL     1      34.854 -16.344 -24.327  0.00  0.00    +0.295 HD
ENDBRANCH  30  31
ENDBRANCH  26  30
ENDBRANCH  25  26
ENDBRANCH  22  25
ENDBRANCH  18  19
ENDBRANCH   1  18
TORSDOF 10
ENDMDL
MODEL 3
REMARK VINA RESULT:     -11.1      5.488     12.896
REMARK  Name = 9909438
REMARK  10 active torsions:
REMARK  status: ('A' for Active; 'I' for Inactive)
REMARK    1  A    between atoms: C_1  and  C_2
REMARK    2  A    between atoms: C_1  and  C_18
REMARK    3  A    between atoms: C_2  and  C_7
REMARK    4  A    between atoms: N_4  and  C_10
REMARK    5  A    between atoms: C_10  and  C_11
REMARK    6  A    between atoms: C_18  and  C_19
REMARK    7  A    between atoms: C_22  and  O_25
REMARK    8  A    between atoms: O_25  and  C_26
REMARK    9  A    between atoms: C_26  and  C_30
REMARK   10  A    between atoms: C_30  and  O_31
REMARK                            x       y       z     vdW  Elec       q    Type
REMARK                         _______ _______ _______ _____ _____    ______ ____
ROOT
ATOM      1  C   UNL     1      33.693 -13.755 -20.838  0.00  0.00    +0.014 C 
ENDROOT
BRANCH   1   2
ATOM      2  C   UNL     1      34.724 -14.489 -19.984  0.00  0.00    +0.078 C 
BRANCH   2   7
ATOM      3  O   UNL     1      35.726 -17.793 -23.205  0.00  0.00    -0.191 OA
ATOM      4  N   UNL     1      36.019 -17.716 -20.898  0.00  0.00    -0.151 N 
ATOM      5  N   UNL     1      35.728 -16.781 -19.954  0.00  0.00    -0.229 N 
ATOM      6  N   UNL     1      35.084 -15.948 -21.939  0.00  0.00    -0.308 NA
ATOM      7  C   UNL     1      35.169 -15.748 -20.645  0.00  0.00    +0.187 C 
ATOM      8  C   UNL     1      35.623 -17.220 -22.127  0.00  0.00    +0.286 C 
ATOM      9  H   UNL     1      35.887 -16.836 -18.984  0.00  0.00    +0.173 HD
BRANCH   4  10
ATOM     10  C   UNL     1      36.622 -18.969 -20.536  0.00  0.00    +0.152 C 
BRANCH  10  11
ATOM     11  C   UNL     1      35.702 -19.816 -19.705  0.00  0.00    +0.000 C 
ATOM     12  C   UNL     1      36.230 -20.627 -18.708  0.00  0.00    -0.003 C 
ATOM     13  C   UNL     1      34.333 -19.781 -19.942  0.00  0.00    -0.003 C 
ATOM     14  C   UNL     1      34.001 -21.385 -18.167  0.00  0.00    -0.022 C 
ATOM     15  C   UNL     1      35.375 -21.414 -17.935  0.00  0.00    -0.005 C 
ATOM     16  C   UNL     1      33.480 -20.568 -19.170  0.00  0.00    -0.005 C 
ATOM     17  C   UNL     1      33.088 -22.227 -17.341  0.00  0.00    +0.031 C 
ENDBRANCH  10  11
ENDBRANCH   4  10
ENDBRANCH   2   7
ENDBRANCH   1   2
BRANCH   1  18
ATOM     18  C   UNL     1      32.543 -13.182 -20.002  0.00  0.00    +0.027 C 
BRANCH  18  19
ATOM     19  C   UNL     1      32.295 -11.730 -20.319  0.00  0.00    -0.022 C 
ATOM     20  C   UNL     1      32.607 -11.246 -21.581  0.00  0.00    -0.001 C 
ATOM     21  C   UNL     1      31.759 -10.902 -19.345  0.00  0.00    -0.001 C 
ATOM     22  C   UNL     1      31.837  -9.058 -20.905  0.00  0.00    +0.139 C 
ATOM     23  C   UNL     1      32.377  -9.903 -21.877  0.00  0.00    +0.037 C 
ATOM     24  C   UNL     1      31.529  -9.557 -19.640  0.00  0.00    +0.037 C 
BRANCH  22  25
ATOM     25  O   UNL     1      31.614  -7.747 -21.192  0.00  0.00    -0.472 OA
BRANCH  25  26
ATOM     26  C   UNL     1      32.648  -6.823 -20.854  0.00  0.00    +0.221 C 
ATOM     27  C   UNL     1      33.039  -7.063 -19.399  0.00  0.00    +0.055 C 
ATOM     28  C   UNL     1      33.814  -7.049 -21.812  0.00  0.00    +0.055 C 
BRANCH  26  30
ATOM     29  O   UNL     1      32.592  -4.392 -20.732  0.00  0.00    -0.246 OA
ATOM     30  C   UNL     1      32.039  -5.440 -21.042  0.00  0.00    +0.350 C 
BRANCH  30  31
ATOM     31  O   UNL     1      30.800  -5.468 -21.597  0.00  0.00    -0.478 OA
ATOM     32  H   UNL     1      30.450  -4.699 -22.001  0.00  0.00    +0.295 HD
ENDBRANCH  30  31
ENDBRANCH  26  30
ENDBRANCH  25  26
ENDBRANCH  22  25
ENDBRANCH  18  19
ENDBRANCH   1  18
TORSDOF 10
ENDMDL
MODEL 4
REMARK VINA RESULT:     -11.0      1.640      2.443
REMARK  Name = 9909438
REMARK  10 active torsions:
REMARK  status: ('A' for Active; 'I' for Inactive)
REMARK    1  A    between atoms: C_1  and  C_2
REMARK    2  A    between atoms: C_1  and  C_18
REMARK    3  A    between atoms: C_2  and  C_7
REMARK    4  A    between atoms: N_4  and  C_10
REMARK    5  A    between atoms: C_10  and  C_11
REMARK    6  A    between atoms: C_18  and  C_19
REMARK    7  A    between atoms: C_22  and  O_25
REMARK    8  A    between atoms: O_25  and  C_26
REMARK    9  A    between atoms: C_26  and  C_30
REMARK   10  A    between atoms: C_30  and  O_31
REMARK                            x       y       z     vdW  Elec       q    Type
REMARK                         _______ _______ _______ _____ _____    ______ ____
ROOT
ATOM      1  C   UNL     1      36.091 -21.120 -18.782  0.00  0.00    +0.014 C 
ENDROOT
BRANCH   1   2
ATOM      2  C   UNL     1      34.781 -20.377 -19.033  0.00  0.00    +0.078 C 
BRANCH   2   7
ATOM      3  O   UNL     1      34.319 -18.286 -23.241  0.00  0.00    -0.191 OA
ATOM      4  N   UNL     1      35.495 -17.697 -21.322  0.00  0.00    -0.151 N 
ATOM      5  N   UNL     1      35.650 -18.290 -20.107  0.00  0.00    -0.229 N 
ATOM      6  N   UNL     1      34.303 -19.611 -21.327  0.00  0.00    -0.308 NA
ATOM      7  C   UNL     1      34.911 -19.433 -20.178  0.00  0.00    +0.187 C 
ATOM      8  C   UNL     1      34.672 -18.502 -22.089  0.00  0.00    +0.286 C 
ATOM      9  H   UNL     1      36.179 -17.965 -19.343  0.00  0.00    +0.173 HD
BRANCH   4  10
ATOM     10  C   UNL     1      36.147 -16.454 -21.626  0.00  0.00    +0.152 C 
BRANCH  10  11
ATOM     11  C   UNL     1      35.193 -15.296 -21.592  0.00  0.00    +0.000 C 
ATOM     12  C   UNL     1      34.774 -14.716 -22.783  0.00  0.00    -0.003 C 
ATOM     13  C   UNL     1      34.740 -14.813 -20.369  0.00  0.00    -0.003 C 
ATOM     14  C   UNL     1      33.427 -13.150 -21.530  0.00  0.00    -0.022 C 
ATOM     15  C   UNL     1      33.887 -13.639 -22.752  0.00  0.00    -0.005 C 
ATOM     16  C   UNL     1      33.853 -13.738 -20.339  0.00  0.00    -0.005 C 
ATOM     17  C   UNL     1      32.480 -11.999 -21.497  0.00  0.00    +0.031 C 
ENDBRANCH  10  11
ENDBRANCH   4  10
ENDBRANCH   2   7
ENDBRANCH   1   2
BRANCH   1  18
ATOM     18  C   UNL     1      36.810 -20.628 -17.521  0.00  0.00    +0.027 C 
BRANCH  18  19
ATOM     19  C   UNL     1      36.702 -21.626 -16.396  0.00  0.00    -0.022 C 
ATOM     20  C   UNL     1      37.853 -22.037 -15.739  0.00  0.00    -0.001 C 
ATOM     21  C   UNL     1      35.456 -22.115 -16.036  0.00  0.00    -0.001 C 
ATOM     22  C   UNL     1      36.506 -23.459 -14.325  0.00  0.00    +0.139 C 
ATOM     23  C   UNL     1      37.755 -22.959 -14.697  0.00  0.00    +0.037 C 
ATOM     24  C   UNL     1      35.358 -23.038 -14.994  0.00  0.00    +0.037 C 
BRANCH  22  25
ATOM     25  O   UNL     1      36.409 -24.360 -13.309  0.00  0.00    -0.472 OA
BRANCH  25  26
ATOM     26  C   UNL     1      36.838 -23.932 -12.018  0.00  0.00    +0.221 C 
ATOM     27  C   UNL     1      38.066 -24.750 -11.632  0.00  0.00    +0.055 C 
ATOM     28  C   UNL     1      37.138 -22.437 -12.091  0.00  0.00    +0.055 C 
BRANCH  26  30
ATOM     29  O   UNL     1      35.765 -24.321  -9.867  0.00  0.00    -0.246 OA
ATOM     30  C   UNL     1      35.669 -24.215 -11.083  0.00  0.00    +0.350 C 
BRANCH  30  31
ATOM     31  O   UNL     1      34.482 -24.343 -11.730  0.00  0.00    -0.478 OA
ATOM     32  H   UNL     1      33.679 -24.283 -11.252  0.00  0.00    +0.295 HD
ENDBRANCH  30  31
ENDBRANCH  26  30
ENDBRANCH  25  26
ENDBRANCH  22  25
ENDBRANCH  18  19
ENDBRANCH   1  18
TORSDOF 10
ENDMDL
MODEL 5
REMARK VINA RESULT:     -11.0      1.389      2.320
REMARK  Name = 9909438
REMARK  10 active torsions:
REMARK  status: ('A' for Active; 'I' for Inactive)
REMARK    1  A    between atoms: C_1  and  C_2
REMARK    2  A    between atoms: C_1  and  C_18
REMARK    3  A    between atoms: C_2  and  C_7
REMARK    4  A    between atoms: N_4  and  C_10
REMARK    5  A    between atoms: C_10  and  C_11
REMARK    6  A    between atoms: C_18  and  C_19
REMARK    7  A    between atoms: C_22  and  O_25
REMARK    8  A    between atoms: O_25  and  C_26
REMARK    9  A    between atoms: C_26  and  C_30
REMARK   10  A    between atoms: C_30  and  O_31
REMARK                            x       y       z     vdW  Elec       q    Type
REMARK                         _______ _______ _______ _____ _____    ______ ____
ROOT
ATOM      1  C   UNL     1      36.397 -20.884 -19.277  0.00  0.00    +0.014 C 
ENDROOT
BRANCH   1   2
ATOM      2  C   UNL     1      36.829 -19.423 -19.369  0.00  0.00    +0.078 C 
BRANCH   2   7
ATOM      3  O   UNL     1      34.149 -18.483 -23.140  0.00  0.00    -0.191 OA
ATOM      4  N   UNL     1      35.744 -17.228 -22.002  0.00  0.00    -0.151 N 
ATOM      5  N   UNL     1      36.533 -17.485 -20.924  0.00  0.00    -0.229 N 
ATOM      6  N   UNL     1      35.284 -19.318 -21.287  0.00  0.00    -0.308 NA
ATOM      7  C   UNL     1      36.208 -18.753 -20.546  0.00  0.00    +0.187 C 
ATOM      8  C   UNL     1      34.972 -18.351 -22.244  0.00  0.00    +0.286 C 
ATOM      9  H   UNL     1      37.193 -16.886 -20.506  0.00  0.00    +0.173 HD
BRANCH   4  10
ATOM     10  C   UNL     1      35.816 -15.968 -22.688  0.00  0.00    +0.152 C 
BRANCH  10  11
ATOM     11  C   UNL     1      34.896 -14.947 -22.084  0.00  0.00    +0.000 C 
ATOM     12  C   UNL     1      34.160 -14.111 -22.915  0.00  0.00    -0.003 C 
ATOM     13  C   UNL     1      34.791 -14.847 -20.702  0.00  0.00    -0.003 C 
ATOM     14  C   UNL     1      33.193 -13.055 -20.969  0.00  0.00    -0.022 C 
ATOM     15  C   UNL     1      33.304 -13.161 -22.354  0.00  0.00    -0.005 C 
ATOM     16  C   UNL     1      33.935 -13.899 -20.143  0.00  0.00    -0.005 C 
ATOM     17  C   UNL     1      32.278 -12.040 -20.370  0.00  0.00    +0.031 C 
ENDBRANCH  10  11
ENDBRANCH   4  10
ENDBRANCH   2   7
ENDBRANCH   1   2
BRANCH   1  18
ATOM     18  C   UNL     1      35.267 -21.097 -18.264  0.00  0.00    +0.027 C 
BRANCH  18  19
ATOM     19  C   UNL     1      35.792 -21.604 -16.945  0.00  0.00    -0.022 C 
ATOM     20  C   UNL     1      37.119 -21.380 -16.609  0.00  0.00    -0.001 C 
ATOM     21  C   UNL     1      34.939 -22.283 -16.088  0.00  0.00    -0.001 C 
ATOM     22  C   UNL     1      36.758 -22.532 -14.517  0.00  0.00    +0.139 C 
ATOM     23  C   UNL     1      37.606 -21.847 -15.389  0.00  0.00    +0.037 C 
ATOM     24  C   UNL     1      35.426 -22.751 -14.867  0.00  0.00    +0.037 C 
BRANCH  22  25
ATOM     25  O   UNL     1      37.232 -22.990 -13.326  0.00  0.00    -0.472 OA
BRANCH  25  26
ATOM     26  C   UNL     1      37.698 -24.338 -13.287  0.00  0.00    +0.221 C 
ATOM     27  C   UNL     1      36.745 -25.191 -14.118  0.00  0.00    +0.055 C 
ATOM     28  C   UNL     1      39.122 -24.362 -13.834  0.00  0.00    +0.055 C 
BRANCH  26  30
ATOM     29  O   UNL     1      38.085 -24.049 -10.901  0.00  0.00    -0.246 OA
ATOM     30  C   UNL     1      37.664 -24.742 -11.820  0.00  0.00    +0.350 C 
BRANCH  30  31
ATOM     31  O   UNL     1      37.112 -25.965 -11.610  0.00  0.00    -0.478 OA
ATOM     32  H   UNL     1      37.501 -26.726 -11.993  0.00  0.00    +0.295 HD
ENDBRANCH  30  31
ENDBRANCH  26  30
ENDBRANCH  25  26
ENDBRANCH  22  25
ENDBRANCH  18  19
ENDBRANCH   1  18
TORSDOF 10
ENDMDL
MODEL 6
REMARK VINA RESULT:     -11.0      5.420     12.683
REMARK  Name = 9909438
REMARK  10 active torsions:
REMARK  status: ('A' for Active; 'I' for Inactive)
REMARK    1  A    between atoms: C_1  and  C_2
REMARK    2  A    between atoms: C_1  and  C_18
REMARK    3  A    between atoms: C_2  and  C_7
REMARK    4  A    between atoms: N_4  and  C_10
REMARK    5  A    between atoms: C_10  and  C_11
REMARK    6  A    between atoms: C_18  and  C_19
REMARK    7  A    between atoms: C_22  and  O_25
REMARK    8  A    between atoms: O_25  and  C_26
REMARK    9  A    between atoms: C_26  and  C_30
REMARK   10  A    between atoms: C_30  and  O_31
REMARK                            x       y       z     vdW  Elec       q    Type
REMARK                         _______ _______ _______ _____ _____    ______ ____
ROOT
ATOM      1  C   UNL     1      34.152 -13.396 -20.777  0.00  0.00    +0.014 C 
ENDROOT
BRANCH   1   2
ATOM      2  C   UNL     1      34.833 -14.430 -19.884  0.00  0.00    +0.078 C 
BRANCH   2   7
ATOM      3  O   UNL     1      35.418 -17.575 -23.356  0.00  0.00    -0.191 OA
ATOM      4  N   UNL     1      35.874 -17.659 -21.076  0.00  0.00    -0.151 N 
ATOM      5  N   UNL     1      35.703 -16.770 -20.060  0.00  0.00    -0.229 N 
ATOM      6  N   UNL     1      34.972 -15.781 -21.942  0.00  0.00    -0.308 NA
ATOM      7  C   UNL     1      35.157 -15.668 -20.647  0.00  0.00    +0.187 C 
ATOM      8  C   UNL     1      35.423 -17.067 -22.243  0.00  0.00    +0.286 C 
ATOM      9  H   UNL     1      35.925 -16.894 -19.109  0.00  0.00    +0.173 HD
BRANCH   4  10
ATOM     10  C   UNL     1      36.427 -18.962 -20.833  0.00  0.00    +0.152 C 
BRANCH  10  11
ATOM     11  C   UNL     1      35.553 -19.784 -19.930  0.00  0.00    +0.000 C 
ATOM     12  C   UNL     1      34.174 -19.755 -20.098  0.00  0.00    -0.003 C 
ATOM     13  C   UNL     1      36.132 -20.563 -18.936  0.00  0.00    -0.003 C 
ATOM     14  C   UNL     1      33.934 -21.304 -18.259  0.00  0.00    -0.022 C 
ATOM     15  C   UNL     1      33.361 -20.520 -19.259  0.00  0.00    -0.005 C 
ATOM     16  C   UNL     1      35.320 -21.326 -18.098  0.00  0.00    -0.005 C 
ATOM     17  C   UNL     1      33.066 -22.120 -17.363  0.00  0.00    +0.031 C 
ENDBRANCH  10  11
ENDBRANCH   4  10
ENDBRANCH   2   7
ENDBRANCH   1   2
BRANCH   1  18
ATOM     18  C   UNL     1      32.736 -13.053 -20.300  0.00  0.00    +0.027 C 
BRANCH  18  19
ATOM     19  C   UNL     1      32.425 -11.591 -20.489  0.00  0.00    -0.022 C 
ATOM     20  C   UNL     1      31.980 -10.845 -19.408  0.00  0.00    -0.001 C 
ATOM     21  C   UNL     1      32.591 -11.015 -21.739  0.00  0.00    -0.001 C 
ATOM     22  C   UNL     1      31.856  -8.899 -20.834  0.00  0.00    +0.139 C 
ATOM     23  C   UNL     1      31.694  -9.491 -19.581  0.00  0.00    +0.037 C 
ATOM     24  C   UNL     1      32.303  -9.661 -21.913  0.00  0.00    +0.037 C 
BRANCH  22  25
ATOM     25  O   UNL     1      31.575  -7.578 -21.005  0.00  0.00    -0.472 OA
BRANCH  25  26
ATOM     26  C   UNL     1      32.659  -6.661 -20.869  0.00  0.00    +0.221 C 
ATOM     27  C   UNL     1      33.928  -7.354 -21.356  0.00  0.00    +0.055 C 
ATOM     28  C   UNL     1      32.329  -5.415 -21.686  0.00  0.00    +0.055 C 
BRANCH  26  30
ATOM     29  O   UNL     1      31.844  -5.809 -18.739  0.00  0.00    -0.246 OA
ATOM     30  C   UNL     1      32.741  -6.340 -19.383  0.00  0.00    +0.350 C 
BRANCH  30  31
ATOM     31  O   UNL     1      33.922  -6.701 -18.818  0.00  0.00    -0.478 OA
ATOM     32  H   UNL     1      33.931  -7.272 -18.076  0.00  0.00    +0.295 HD
ENDBRANCH  30  31
ENDBRANCH  26  30
ENDBRANCH  25  26
ENDBRANCH  22  25
ENDBRANCH  18  19
ENDBRANCH   1  18
TORSDOF 10
ENDMDL
MODEL 7
REMARK VINA RESULT:     -10.9      1.472      2.491
REMARK  Name = 9909438
REMARK  10 active torsions:
REMARK  status: ('A' for Active; 'I' for Inactive)
REMARK    1  A    between atoms: C_1  and  C_2
REMARK    2  A    between atoms: C_1  and  C_18
REMARK    3  A    between atoms: C_2  and  C_7
REMARK    4  A    between atoms: N_4  and  C_10
REMARK    5  A    between atoms: C_10  and  C_11
REMARK    6  A    between atoms: C_18  and  C_19
REMARK    7  A    between atoms: C_22  and  O_25
REMARK    8  A    between atoms: O_25  and  C_26
REMARK    9  A    between atoms: C_26  and  C_30
REMARK   10  A    between atoms: C_30  and  O_31
REMARK                            x       y       z     vdW  Elec       q    Type
REMARK                         _______ _______ _______ _____ _____    ______ ____
ROOT
ATOM      1  C   UNL     1      33.332 -22.508 -17.562  0.00  0.00    +0.014 C 
ENDROOT
BRANCH   1   2
ATOM      2  C   UNL     1      33.134 -21.241 -18.389  0.00  0.00    +0.078 C 
BRANCH   2   7
ATOM      3  O   UNL     1      37.597 -21.016 -19.915  0.00  0.00    -0.191 OA
ATOM      4  N   UNL     1      35.886 -19.440 -19.844  0.00  0.00    -0.151 N 
ATOM      5  N   UNL     1      34.601 -19.483 -19.399  0.00  0.00    -0.229 N 
ATOM      6  N   UNL     1      35.489 -21.520 -19.065  0.00  0.00    -0.308 NA
ATOM      7  C   UNL     1      34.429 -20.755 -18.944  0.00  0.00    +0.187 C 
ATOM      8  C   UNL     1      36.450 -20.687 -19.639  0.00  0.00    +0.286 C 
ATOM      9  H   UNL     1      33.939 -18.754 -19.405  0.00  0.00    +0.173 HD
BRANCH   4  10
ATOM     10  C   UNL     1      36.438 -18.235 -20.395  0.00  0.00    +0.152 C 
BRANCH  10  11
ATOM     11  C   UNL     1      35.728 -17.813 -21.648  0.00  0.00    +0.000 C 
ATOM     12  C   UNL     1      35.132 -18.773 -22.456  0.00  0.00    -0.003 C 
ATOM     13  C   UNL     1      35.676 -16.466 -21.989  0.00  0.00    -0.003 C 
ATOM     14  C   UNL     1      34.414 -17.033 -23.970  0.00  0.00    -0.022 C 
ATOM     15  C   UNL     1      34.471 -18.381 -23.621  0.00  0.00    -0.005 C 
ATOM     16  C   UNL     1      35.016 -16.075 -23.153  0.00  0.00    -0.005 C 
ATOM     17  C   UNL     1      33.709 -16.614 -25.215  0.00  0.00    +0.031 C 
ENDBRANCH  10  11
ENDBRANCH   4  10
ENDBRANCH   2   7
ENDBRANCH   1   2
BRANCH   1  18
ATOM     18  C   UNL     1      33.194 -22.252 -16.057  0.00  0.00    +0.027 C 
BRANCH  18  19
ATOM     19  C   UNL     1      34.427 -22.682 -15.305  0.00  0.00    -0.022 C 
ATOM     20  C   UNL     1      35.673 -22.260 -15.742  0.00  0.00    -0.001 C 
ATOM     21  C   UNL     1      34.295 -23.492 -14.187  0.00  0.00    -0.001 C 
ATOM     22  C   UNL     1      36.696 -23.471 -13.920  0.00  0.00    +0.139 C 
ATOM     23  C   UNL     1      36.815 -22.656 -15.046  0.00  0.00    +0.037 C 
ATOM     24  C   UNL     1      35.437 -23.890 -13.491  0.00  0.00    +0.037 C 
BRANCH  22  25
ATOM     25  O   UNL     1      37.810 -23.860 -13.241  0.00  0.00    -0.472 OA
BRANCH  25  26
ATOM     26  C   UNL     1      38.190 -25.231 -13.349  0.00  0.00    +0.221 C 
ATOM     27  C   UNL     1      37.774 -25.939 -12.064  0.00  0.00    +0.055 C 
ATOM     28  C   UNL     1      37.505 -25.815 -14.581  0.00  0.00    +0.055 C 
BRANCH  26  30
ATOM     29  O   UNL     1      40.359 -26.165 -13.943  0.00  0.00    -0.246 OA
ATOM     30  C   UNL     1      39.704 -25.224 -13.510  0.00  0.00    +0.350 C 
BRANCH  30  31
ATOM     31  O   UNL     1      40.282 -24.058 -13.123  0.00  0.00    -0.478 OA
ATOM     32  H   UNL     1      40.076 -23.262 -13.572  0.00  0.00    +0.295 HD
ENDBRANCH  30  31
ENDBRANCH  26  30
ENDBRANCH  25  26
ENDBRANCH  22  25
ENDBRANCH  18  19
ENDBRANCH   1  18
TORSDOF 10
ENDMDL
MODEL 8
REMARK VINA RESULT:     -10.9      5.192     12.691
REMARK  Name = 9909438
REMARK  10 active torsions:
REMARK  status: ('A' for Active; 'I' for Inactive)
REMARK    1  A    between atoms: C_1  and  C_2
REMARK    2  A    between atoms: C_1  and  C_18
REMARK    3  A    between atoms: C_2  and  C_7
REMARK    4  A    between atoms: N_4  and  C_10
REMARK    5  A    between atoms: C_10  and  C_11
REMARK    6  A    between atoms: C_18  and  C_19
REMARK    7  A    between atoms: C_22  and  O_25
REMARK    8  A    between atoms: O_25  and  C_26
REMARK    9  A    between atoms: C_26  and  C_30
REMARK   10  A    between atoms: C_30  and  O_31
REMARK                            x       y       z     vdW  Elec       q    Type
REMARK                         _______ _______ _______ _____ _____    ______ ____
ROOT
ATOM      1  C   UNL     1      33.520 -13.685 -23.804  0.00  0.00    +0.014 C 
ENDROOT
BRANCH   1   2
ATOM      2  C   UNL     1      34.344 -14.937 -24.097  0.00  0.00    +0.078 C 
BRANCH   2   7
ATOM      3  O   UNL     1      35.406 -15.729 -19.565  0.00  0.00    -0.191 OA
ATOM      4  N   UNL     1      35.927 -16.880 -21.519  0.00  0.00    -0.151 N 
ATOM      5  N   UNL     1      35.640 -16.663 -22.831  0.00  0.00    -0.229 N 
ATOM      6  N   UNL     1      34.687 -15.001 -21.656  0.00  0.00    -0.308 NA
ATOM      7  C   UNL     1      34.897 -15.521 -22.843  0.00  0.00    +0.187 C 
ATOM      8  C   UNL     1      35.351 -15.861 -20.781  0.00  0.00    +0.286 C 
ATOM      9  H   UNL     1      35.910 -17.210 -23.604  0.00  0.00    +0.173 HD
BRANCH   4  10
ATOM     10  C   UNL     1      36.717 -18.009 -21.112  0.00  0.00    +0.152 C 
BRANCH  10  11
ATOM     11  C   UNL     1      35.909 -19.012 -20.342  0.00  0.00    +0.000 C 
ATOM     12  C   UNL     1      36.549 -19.885 -19.471  0.00  0.00    -0.003 C 
ATOM     13  C   UNL     1      34.530 -19.058 -20.508  0.00  0.00    -0.003 C 
ATOM     14  C   UNL     1      34.415 -20.871 -18.914  0.00  0.00    -0.022 C 
ATOM     15  C   UNL     1      35.799 -20.818 -18.754  0.00  0.00    -0.005 C 
ATOM     16  C   UNL     1      33.780 -19.991 -19.791  0.00  0.00    -0.005 C 
ATOM     17  C   UNL     1      33.613 -21.868 -18.148  0.00  0.00    +0.031 C 
ENDBRANCH  10  11
ENDBRANCH   4  10
ENDBRANCH   2   7
ENDBRANCH   1   2
BRANCH   1  18
ATOM     18  C   UNL     1      34.371 -12.410 -23.810  0.00  0.00    +0.027 C 
BRANCH  18  19
ATOM     19  C   UNL     1      33.666 -11.269 -23.123  0.00  0.00    -0.022 C 
ATOM     20  C   UNL     1      33.636 -10.023 -23.730  0.00  0.00    -0.001 C 
ATOM     21  C   UNL     1      33.058 -11.484 -21.895  0.00  0.00    -0.001 C 
ATOM     22  C   UNL     1      32.367  -9.169 -21.860  0.00  0.00    +0.139 C 
ATOM     23  C   UNL     1      32.983  -8.966 -23.096  0.00  0.00    +0.037 C 
ATOM     24  C   UNL     1      32.405 -10.428 -21.259  0.00  0.00    +0.037 C 
BRANCH  22  25
ATOM     25  O   UNL     1      31.730  -8.139 -21.239  0.00  0.00    -0.472 OA
BRANCH  25  26
ATOM     26  C   UNL     1      32.543  -7.069 -20.759  0.00  0.00    +0.221 C 
ATOM     27  C   UNL     1      33.857  -7.089 -21.535  0.00  0.00    +0.055 C 
ATOM     28  C   UNL     1      31.774  -5.766 -20.956  0.00  0.00    +0.055 C 
BRANCH  26  30
ATOM     29  O   UNL     1      32.108  -8.150 -18.621  0.00  0.00    -0.246 OA
ATOM     30  C   UNL     1      32.770  -7.358 -19.281  0.00  0.00    +0.350 C 
BRANCH  30  31
ATOM     31  O   UNL     1      33.794  -6.646 -18.744  0.00  0.00    -0.478 OA
ATOM     32  H   UNL     1      34.190  -5.953 -19.234  0.00  0.00    +0.295 HD
ENDBRANCH  30  31
ENDBRANCH  26  30
ENDBRANCH  25  26
ENDBRANCH  22  25
ENDBRANCH  18  19
ENDBRANCH   1  18
TORSDOF 10
ENDMDL
MODEL 9
REMARK VINA RESULT:     -10.8      2.877     10.317
REMARK  Name = 9909438
REMARK  10 active torsions:
REMARK  status: ('A' for Active; 'I' for Inactive)
REMARK    1  A    between atoms: C_1  and  C_2
REMARK    2  A    between atoms: C_1  and  C_18
REMARK    3  A    between atoms: C_2  and  C_7
REMARK    4  A    between atoms: N_4  and  C_10
REMARK    5  A    between atoms: C_10  and  C_11
REMARK    6  A    between atoms: C_18  and  C_19
REMARK    7  A    between atoms: C_22  and  O_25
REMARK    8  A    between atoms: O_25  and  C_26
REMARK    9  A    between atoms: C_26  and  C_30
REMARK   10  A    between atoms: C_30  and  O_31
REMARK                            x       y       z     vdW  Elec       q    Type
REMARK                         _______ _______ _______ _____ _____    ______ ____
ROOT
ATOM      1  C   UNL     1      32.939 -21.975 -16.839  0.00  0.00    +0.014 C 
ENDROOT
BRANCH   1   2
ATOM      2  C   UNL     1      32.643 -23.174 -15.941  0.00  0.00    +0.078 C 
BRANCH   2   7
ATOM      3  O   UNL     1      34.451 -24.021 -11.662  0.00  0.00    -0.191 OA
ATOM      4  N   UNL     1      35.227 -22.782 -13.472  0.00  0.00    -0.151 N 
ATOM      5  N   UNL     1      34.717 -22.517 -14.706  0.00  0.00    -0.229 N 
ATOM      6  N   UNL     1      33.240 -23.835 -13.642  0.00  0.00    -0.308 NA
ATOM      7  C   UNL     1      33.526 -23.176 -14.741  0.00  0.00    +0.187 C 
ATOM      8  C   UNL     1      34.326 -23.589 -12.801  0.00  0.00    +0.286 C 
ATOM      9  H   UNL     1      35.121 -21.970 -15.418  0.00  0.00    +0.173 HD
BRANCH   4  10
ATOM     10  C   UNL     1      36.492 -22.237 -13.062  0.00  0.00    +0.152 C 
BRANCH  10  11
ATOM     11  C   UNL     1      37.628 -23.173 -13.356  0.00  0.00    +0.000 C 
ATOM     12  C   UNL     1      38.046 -24.071 -12.382  0.00  0.00    -0.003 C 
ATOM     13  C   UNL     1      38.252 -23.130 -14.597  0.00  0.00    -0.003 C 
ATOM     14  C   UNL     1      39.733 -24.905 -13.897  0.00  0.00    -0.022 C 
ATOM     15  C   UNL     1      39.103 -24.941 -12.654  0.00  0.00    -0.005 C 
ATOM     16  C   UNL     1      39.307 -23.999 -14.869  0.00  0.00    -0.005 C 
ATOM     17  C   UNL     1      40.863 -25.835 -14.187  0.00  0.00    +0.031 C 
ENDBRANCH  10  11
ENDBRANCH   4  10
ENDBRANCH   2   7
ENDBRANCH   1   2
BRANCH   1  18
ATOM     18  C   UNL     1      34.320 -22.065 -17.497  0.00  0.00    +0.027 C 
BRANCH  18  19
ATOM     19  C   UNL     1      34.448 -21.106 -18.653  0.00  0.00    -0.022 C 
ATOM     20  C   UNL     1      33.305 -20.536 -19.193  0.00  0.00    -0.001 C 
ATOM     21  C   UNL     1      35.705 -20.808 -19.155  0.00  0.00    -0.001 C 
ATOM     22  C   UNL     1      34.682 -19.338 -20.777  0.00  0.00    +0.139 C 
ATOM     23  C   UNL     1      33.422 -19.647 -20.262  0.00  0.00    +0.037 C 
ATOM     24  C   UNL     1      35.823 -19.919 -20.224  0.00  0.00    +0.037 C 
BRANCH  22  25
ATOM     25  O   UNL     1      34.797 -18.472 -21.820  0.00  0.00    -0.472 OA
BRANCH  25  26
ATOM     26  C   UNL     1      35.636 -17.334 -21.630  0.00  0.00    +0.221 C 
ATOM     27  C   UNL     1      35.247 -16.676 -20.309  0.00  0.00    +0.055 C 
ATOM     28  C   UNL     1      37.085 -17.809 -21.635  0.00  0.00    +0.055 C 
BRANCH  26  30
ATOM     29  O   UNL     1      34.620 -16.698 -23.749  0.00  0.00    -0.246 OA
ATOM     30  C   UNL     1      35.352 -16.413 -22.809  0.00  0.00    +0.350 C 
BRANCH  30  31
ATOM     31  O   UNL     1      35.996 -15.220 -22.728  0.00  0.00    -0.478 OA
ATOM     32  H   UNL     1      36.919 -15.175 -22.878  0.00  0.00    +0.295 HD
ENDBRANCH  30  31
ENDBRANCH  26  30
ENDBRANCH  25  26
ENDBRANCH  22  25
ENDBRANCH  18  19
ENDBRANCH   1  18
TORSDOF 10
ENDMDL
