MODEL 1
REMARK VINA RESULT:     -12.4      0.000      0.000
REMARK  Name = 10407120
REMARK  4 active torsions:
REMARK  status: ('A' for Active; 'I' for Inactive)
REMARK    1  A    between atoms: N_2  and  C_19
REMARK    2  A    between atoms: C_3  and  C_6
REMARK    3  A    between atoms: C_5  and  C_16
REMARK    4  A    between atoms: C_19  and  C_21
REMARK                            x       y       z     vdW  Elec       q    Type
REMARK                         _______ _______ _______ _____ _____    ______ ____
ROOT
ATOM      1  O   UNL     1      33.843 -17.584 -25.061  0.00  0.00    -0.270 OA
ATOM      2  N   UNL     1      34.751 -15.640 -24.168  0.00  0.00    -0.267 N 
ATOM      3  C   UNL     1      34.501 -17.015 -24.189  0.00  0.00    +0.250 C 
ATOM      4  C   UNL     1      34.212 -14.800 -25.229  0.00  0.00    +0.116 C 
ENDROOT
BRANCH   3   6
ATOM      5  C   UNL     1      34.234 -18.349 -22.127  0.00  0.00    +0.006 C 
ATOM      6  C   UNL     1      35.061 -17.802 -23.050  0.00  0.00    +0.058 C 
BRANCH   5  16
ATOM      7  O   UNL     1      35.637 -22.643 -15.888  0.00  0.00    -0.275 OA
ATOM      8  N   UNL     1      35.999 -21.213 -17.648  0.00  0.00    -0.270 N 
ATOM      9  N   UNL     1      36.445 -19.802 -19.494  0.00  0.00    -0.229 NA
ATOM     10  C   UNL     1      33.217 -21.255 -18.188  0.00  0.00    +0.039 C 
ATOM     11  C   UNL     1      34.181 -20.547 -19.091  0.00  0.00    +0.010 C 
ATOM     12  C   UNL     1      33.883 -22.441 -17.510  0.00  0.00    +0.090 C 
ATOM     13  C   UNL     1      35.539 -20.510 -18.778  0.00  0.00    +0.130 C 
ATOM     14  C   UNL     1      33.744 -19.823 -20.201  0.00  0.00    +0.000 C 
ATOM     15  C   UNL     1      35.231 -22.094 -16.912  0.00  0.00    +0.227 C 
ATOM     16  C   UNL     1      34.659 -19.106 -20.964  0.00  0.00    +0.019 C 
ATOM     17  C   UNL     1      35.985 -19.126 -20.570  0.00  0.00    +0.100 C 
ATOM     18  H   UNL     1      36.929 -21.066 -17.363  0.00  0.00    +0.156 HD
ENDBRANCH   5  16
ENDBRANCH   3   6
BRANCH   2  19
ATOM     19  C   UNL     1      35.500 -14.937 -23.127  0.00  0.00    +0.158 C 
BRANCH  19  21
ATOM     20  O   UNL     1      33.892 -13.210 -22.688  0.00  0.00    -0.456 OA
ATOM     21  C   UNL     1      34.592 -14.232 -22.162  0.00  0.00    +0.139 A 
ATOM     22  C   UNL     1      34.333 -14.423 -20.846  0.00  0.00    +0.013 A 
ATOM     23  C   UNL     1      33.378 -13.431 -20.499  0.00  0.00    +0.033 A 
ATOM     24  C   UNL     1      33.141 -12.711 -21.667  0.00  0.00    +0.145 A 
ATOM     25  C   UNL     1      34.915 -15.444 -19.952  0.00  0.00    +0.034 C 
ATOM     26  C   UNL     1      32.690 -13.062 -19.331  0.00  0.00    +0.003 C 
ATOM     27  C   UNL     1      32.257 -11.638 -21.757  0.00  0.00    +0.037 C 
ATOM     28  C   UNL     1      31.794 -11.986 -19.390  0.00  0.00    +0.000 C 
ATOM     29  C   UNL     1      31.584 -11.288 -20.583  0.00  0.00    +0.003 C 
ENDBRANCH  19  21
ENDBRANCH   2  19
TORSDOF 4
ENDMDL
MODEL 2
REMARK VINA RESULT:     -12.0      2.251      3.115
REMARK  Name = 10407120
REMARK  4 active torsions:
REMARK  status: ('A' for Active; 'I' for Inactive)
REMARK    1  A    between atoms: N_2  and  C_19
REMARK    2  A    between atoms: C_3  and  C_6
REMARK    3  A    between atoms: C_5  and  C_16
REMARK    4  A    between atoms: C_19  and  C_21
REMARK                            x       y       z     vdW  Elec       q    Type
REMARK                         _______ _______ _______ _____ _____    ______ ____
ROOT
ATOM      1  O   UNL     1      34.849 -15.677 -25.468  0.00  0.00    -0.270 OA
ATOM      2  N   UNL     1      33.913 -13.999 -24.160  0.00  0.00    -0.267 N 
ATOM      3  C   UNL     1      34.623 -15.186 -24.361  0.00  0.00    +0.250 C 
ATOM      4  C   UNL     1      33.394 -13.273 -25.311  0.00  0.00    +0.116 C 
ENDROOT
BRANCH   3   6
ATOM      5  C   UNL     1      34.995 -17.232 -23.029  0.00  0.00    +0.006 C 
ATOM      6  C   UNL     1      35.097 -15.886 -23.130  0.00  0.00    +0.058 C 
BRANCH   5  16
ATOM      7  O   UNL     1      36.266 -21.762 -16.930  0.00  0.00    -0.275 OA
ATOM      8  N   UNL     1      36.640 -20.202 -18.574  0.00  0.00    -0.270 N 
ATOM      9  N   UNL     1      37.107 -18.650 -20.296  0.00  0.00    -0.229 NA
ATOM     10  C   UNL     1      33.926 -20.447 -19.352  0.00  0.00    +0.039 C 
ATOM     11  C   UNL     1      34.893 -19.607 -20.130  0.00  0.00    +0.010 C 
ATOM     12  C   UNL     1      34.639 -21.612 -18.684  0.00  0.00    +0.090 C 
ATOM     13  C   UNL     1      36.212 -19.473 -19.700  0.00  0.00    +0.130 C 
ATOM     14  C   UNL     1      34.484 -18.856 -21.233  0.00  0.00    +0.000 C 
ATOM     15  C   UNL     1      35.898 -21.188 -17.954  0.00  0.00    +0.227 C 
ATOM     16  C   UNL     1      35.390 -18.019 -21.875  0.00  0.00    +0.019 C 
ATOM     17  C   UNL     1      36.676 -17.951 -21.370  0.00  0.00    +0.100 C 
ATOM     18  H   UNL     1      37.528 -19.995 -18.203  0.00  0.00    +0.156 HD
ENDBRANCH   5  16
ENDBRANCH   3   6
BRANCH   2  19
ATOM     19  C   UNL     1      33.605 -13.415 -22.856  0.00  0.00    +0.158 C 
BRANCH  19  21
ATOM     20  O   UNL     1      34.651 -11.417 -23.677  0.00  0.00    -0.456 OA
ATOM     21  C   UNL     1      33.691 -11.917 -22.877  0.00  0.00    +0.139 A 
ATOM     22  C   UNL     1      32.982 -10.952 -22.242  0.00  0.00    +0.013 A 
ATOM     23  C   UNL     1      33.541  -9.722 -22.677  0.00  0.00    +0.033 A 
ATOM     24  C   UNL     1      34.564 -10.063 -23.557  0.00  0.00    +0.145 A 
ATOM     25  C   UNL     1      31.863 -11.132 -21.296  0.00  0.00    +0.034 C 
ATOM     26  C   UNL     1      33.298  -8.361 -22.424  0.00  0.00    +0.003 C 
ATOM     27  C   UNL     1      35.371  -9.135 -24.213  0.00  0.00    +0.037 C 
ATOM     28  C   UNL     1      34.094  -7.405 -23.069  0.00  0.00    +0.000 C 
ATOM     29  C   UNL     1      35.112  -7.788 -23.946  0.00  0.00    +0.003 C 
ENDBRANCH  19  21
ENDBRANCH   2  19
TORSDOF 4
ENDMDL
MODEL 3
REMARK VINA RESULT:     -11.6      1.273      1.639
REMARK  Name = 10407120
REMARK  4 active torsions:
REMARK  status: ('A' for Active; 'I' for Inactive)
REMARK    1  A    between atoms: N_2  and  C_19
REMARK    2  A    between atoms: C_3  and  C_6
REMARK    3  A    between atoms: C_5  and  C_16
REMARK    4  A    between atoms: C_19  and  C_21
REMARK                            x       y       z     vdW  Elec       q    Type
REMARK                         _______ _______ _______ _____ _____    ______ ____
ROOT
ATOM      1  O   UNL     1      33.583 -15.962 -25.363  0.00  0.00    -0.270 OA
ATOM      2  N   UNL     1      34.227 -13.898 -24.508  0.00  0.00    -0.267 N 
ATOM      3  C   UNL     1      34.187 -15.296 -24.521  0.00  0.00    +0.250 C 
ATOM      4  C   UNL     1      33.518 -13.154 -25.540  0.00  0.00    +0.116 C 
ENDROOT
BRANCH   3   6
ATOM      5  C   UNL     1      34.511 -17.207 -22.991  0.00  0.00    +0.006 C 
ATOM      6  C   UNL     1      34.912 -15.985 -23.413  0.00  0.00    +0.058 C 
BRANCH   5  16
ATOM      7  O   UNL     1      36.914 -21.618 -17.151  0.00  0.00    -0.275 OA
ATOM      8  N   UNL     1      36.950 -20.039 -18.818  0.00  0.00    -0.270 N 
ATOM      9  N   UNL     1      37.067 -18.460 -20.576  0.00  0.00    -0.229 NA
ATOM     10  C   UNL     1      34.181 -20.483 -19.229  0.00  0.00    +0.039 C 
ATOM     11  C   UNL     1      34.971 -19.576 -20.122  0.00  0.00    +0.010 C 
ATOM     12  C   UNL     1      35.059 -21.591 -18.670  0.00  0.00    +0.090 C 
ATOM     13  C   UNL     1      36.323 -19.346 -19.872  0.00  0.00    +0.130 C 
ATOM     14  C   UNL     1      34.365 -18.860 -21.156  0.00  0.00    +0.000 C 
ATOM     15  C   UNL     1      36.370 -21.075 -18.113  0.00  0.00    +0.227 C 
ATOM     16  C   UNL     1      35.113 -17.961 -21.907  0.00  0.00    +0.019 C 
ATOM     17  C   UNL     1      36.446 -17.797 -21.578  0.00  0.00    +0.100 C 
ATOM     18  H   UNL     1      37.861 -19.766 -18.568  0.00  0.00    +0.156 HD
ENDBRANCH   5  16
ENDBRANCH   3   6
BRANCH   2  19
ATOM     19  C   UNL     1      34.909 -13.087 -23.501  0.00  0.00    +0.158 C 
BRANCH  19  21
ATOM     20  O   UNL     1      33.179 -11.648 -22.665  0.00  0.00    -0.456 OA
ATOM     21  C   UNL     1      33.988 -12.687 -22.385  0.00  0.00    +0.139 A 
ATOM     22  C   UNL     1      33.806 -13.173 -21.134  0.00  0.00    +0.013 A 
ATOM     23  C   UNL     1      32.786 -12.369 -20.560  0.00  0.00    +0.033 A 
ATOM     24  C   UNL     1      32.435 -11.446 -21.541  0.00  0.00    +0.145 A 
ATOM     25  C   UNL     1      34.513 -14.299 -20.493  0.00  0.00    +0.034 C 
ATOM     26  C   UNL     1      32.122 -12.318 -19.323  0.00  0.00    +0.003 C 
ATOM     27  C   UNL     1      31.459 -10.466 -21.379  0.00  0.00    +0.037 C 
ATOM     28  C   UNL     1      31.135 -11.342 -19.129  0.00  0.00    +0.000 C 
ATOM     29  C   UNL     1      30.812 -10.433 -20.140  0.00  0.00    +0.003 C 
ENDBRANCH  19  21
ENDBRANCH   2  19
TORSDOF 4
ENDMDL
MODEL 4
REMARK VINA RESULT:     -11.4      4.058     10.883
REMARK  Name = 10407120
REMARK  4 active torsions:
REMARK  status: ('A' for Active; 'I' for Inactive)
REMARK    1  A    between atoms: N_2  and  C_19
REMARK    2  A    between atoms: C_3  and  C_6
REMARK    3  A    between atoms: C_5  and  C_16
REMARK    4  A    between atoms: C_19  and  C_21
REMARK                            x       y       z     vdW  Elec       q    Type
REMARK                         _______ _______ _______ _____ _____    ______ ____
ROOT
ATOM      1  O   UNL     1      31.083 -23.966 -15.675  0.00  0.00    -0.270 OA
ATOM      2  N   UNL     1      32.308 -23.499 -13.755  0.00  0.00    -0.267 N 
ATOM      3  C   UNL     1      31.958 -23.319 -15.096  0.00  0.00    +0.250 C 
ATOM      4  C   UNL     1      31.614 -24.507 -12.965  0.00  0.00    +0.116 C 
ENDROOT
BRANCH   3   6
ATOM      5  C   UNL     1      33.533 -22.653 -16.878  0.00  0.00    +0.006 C 
ATOM      6  C   UNL     1      32.736 -22.289 -15.846  0.00  0.00    +0.058 C 
BRANCH   5  16
ATOM      7  O   UNL     1      37.168 -17.665 -21.487  0.00  0.00    -0.275 OA
ATOM      8  N   UNL     1      36.830 -19.218 -19.829  0.00  0.00    -0.270 N 
ATOM      9  N   UNL     1      36.522 -20.751 -18.054  0.00  0.00    -0.229 NA
ATOM     10  C   UNL     1      34.147 -19.491 -20.701  0.00  0.00    +0.039 C 
ATOM     11  C   UNL     1      34.648 -20.188 -19.473  0.00  0.00    +0.010 C 
ATOM     12  C   UNL     1      34.896 -18.187 -20.925  0.00  0.00    +0.090 C 
ATOM     13  C   UNL     1      35.983 -20.067 -19.090  0.00  0.00    +0.130 C 
ATOM     14  C   UNL     1      33.833 -21.053 -18.742  0.00  0.00    +0.000 C 
ATOM     15  C   UNL     1      36.399 -18.346 -20.809  0.00  0.00    +0.227 C 
ATOM     16  C   UNL     1      34.359 -21.751 -17.660  0.00  0.00    +0.019 C 
ATOM     17  C   UNL     1      35.697 -21.568 -17.363  0.00  0.00    +0.100 C 
ATOM     18  H   UNL     1      37.794 -19.248 -19.633  0.00  0.00    +0.156 HD
ENDBRANCH   5  16
ENDBRANCH   3   6
BRANCH   2  19
ATOM     19  C   UNL     1      33.364 -22.768 -13.057  0.00  0.00    +0.158 C 
BRANCH  19  21
ATOM     20  O   UNL     1      34.946 -24.193 -14.163  0.00  0.00    -0.456 OA
ATOM     21  C   UNL     1      34.652 -23.537 -13.025  0.00  0.00    +0.139 A 
ATOM     22  C   UNL     1      35.593 -23.703 -12.064  0.00  0.00    +0.013 A 
ATOM     23  C   UNL     1      36.580 -24.544 -12.642  0.00  0.00    +0.033 A 
ATOM     24  C   UNL     1      36.135 -24.818 -13.932  0.00  0.00    +0.145 A 
ATOM     25  C   UNL     1      35.599 -23.134 -10.702  0.00  0.00    +0.034 C 
ATOM     26  C   UNL     1      37.797 -25.104 -12.218  0.00  0.00    +0.003 C 
ATOM     27  C   UNL     1      36.823 -25.617 -14.843  0.00  0.00    +0.037 C 
ATOM     28  C   UNL     1      38.512 -25.913 -13.112  0.00  0.00    +0.000 C 
ATOM     29  C   UNL     1      38.031 -26.164 -14.400  0.00  0.00    +0.003 C 
ENDBRANCH  19  21
ENDBRANCH   2  19
TORSDOF 4
ENDMDL
MODEL 5
REMARK VINA RESULT:     -10.9      3.131      5.476
REMARK  Name = 10407120
REMARK  4 active torsions:
REMARK  status: ('A' for Active; 'I' for Inactive)
REMARK    1  A    between atoms: N_2  and  C_19
REMARK    2  A    between atoms: C_3  and  C_6
REMARK    3  A    between atoms: C_5  and  C_16
REMARK    4  A    between atoms: C_19  and  C_21
REMARK                            x       y       z     vdW  Elec       q    Type
REMARK                         _______ _______ _______ _____ _____    ______ ____
ROOT
ATOM      1  O   UNL     1      33.010 -21.586 -19.267  0.00  0.00    -0.270 OA
ATOM      2  N   UNL     1      34.385 -19.873 -20.029  0.00  0.00    -0.267 N 
ATOM      3  C   UNL     1      34.051 -20.932 -19.180  0.00  0.00    +0.250 C 
ATOM      4  C   UNL     1      33.465 -19.493 -21.093  0.00  0.00    +0.116 C 
ENDROOT
BRANCH   3   6
ATOM      5  C   UNL     1      34.622 -21.855 -16.962  0.00  0.00    +0.006 C 
ATOM      6  C   UNL     1      35.031 -21.240 -18.097  0.00  0.00    +0.058 C 
BRANCH   5  16
ATOM      7  O   UNL     1      38.388 -23.890 -10.557  0.00  0.00    -0.275 OA
ATOM      8  N   UNL     1      38.004 -23.038 -12.656  0.00  0.00    -0.270 N 
ATOM      9  N   UNL     1      37.680 -22.224 -14.853  0.00  0.00    -0.229 NA
ATOM     10  C   UNL     1      35.233 -23.500 -12.280  0.00  0.00    +0.039 C 
ATOM     11  C   UNL     1      35.777 -23.016 -13.589  0.00  0.00    +0.010 C 
ATOM     12  C   UNL     1      36.257 -24.356 -11.552  0.00  0.00    +0.090 C 
ATOM     13  C   UNL     1      37.140 -22.760 -13.733  0.00  0.00    +0.130 C 
ATOM     14  C   UNL     1      34.937 -22.709 -14.661  0.00  0.00    +0.000 C 
ATOM     15  C   UNL     1      37.632 -23.720 -11.513  0.00  0.00    +0.227 C 
ATOM     16  C   UNL     1      35.471 -22.178 -15.829  0.00  0.00    +0.019 C 
ATOM     17  C   UNL     1      36.835 -21.954 -15.873  0.00  0.00    +0.100 C 
ATOM     18  H   UNL     1      38.935 -22.727 -12.721  0.00  0.00    +0.156 HD
ENDBRANCH   5  16
ENDBRANCH   3   6
BRANCH   2  19
ATOM     19  C   UNL     1      35.597 -19.062 -19.925  0.00  0.00    +0.158 C 
BRANCH  19  21
ATOM     20  O   UNL     1      35.127 -16.714 -19.772  0.00  0.00    -0.456 OA
ATOM     21  C   UNL     1      35.441 -17.730 -20.597  0.00  0.00    +0.139 A 
ATOM     22  C   UNL     1      35.555 -17.341 -21.890  0.00  0.00    +0.013 A 
ATOM     23  C   UNL     1      35.290 -15.946 -21.891  0.00  0.00    +0.033 A 
ATOM     24  C   UNL     1      35.032 -15.610 -20.565  0.00  0.00    +0.145 A 
ATOM     25  C   UNL     1      35.885 -18.181 -23.058  0.00  0.00    +0.034 C 
ATOM     26  C   UNL     1      35.239 -14.933 -22.863  0.00  0.00    +0.003 C 
ATOM     27  C   UNL     1      34.725 -14.322 -20.131  0.00  0.00    +0.037 C 
ATOM     28  C   UNL     1      34.931 -13.627 -22.457  0.00  0.00    +0.000 C 
ATOM     29  C   UNL     1      34.678 -13.330 -21.115  0.00  0.00    +0.003 C 
ENDBRANCH  19  21
ENDBRANCH   2  19
TORSDOF 4
ENDMDL
MODEL 6
REMARK VINA RESULT:     -10.7      1.489      2.371
REMARK  Name = 10407120
REMARK  4 active torsions:
REMARK  status: ('A' for Active; 'I' for Inactive)
REMARK    1  A    between atoms: N_2  and  C_19
REMARK    2  A    between atoms: C_3  and  C_6
REMARK    3  A    between atoms: C_5  and  C_16
REMARK    4  A    between atoms: C_19  and  C_21
REMARK                            x       y       z     vdW  Elec       q    Type
REMARK                         _______ _______ _______ _____ _____    ______ ____
ROOT
ATOM      1  O   UNL     1      35.038 -18.401 -23.517  0.00  0.00    -0.270 OA
ATOM      2  N   UNL     1      35.170 -16.332 -22.463  0.00  0.00    -0.267 N 
ATOM      3  C   UNL     1      35.181 -17.730 -22.493  0.00  0.00    +0.250 C 
ATOM      4  C   UNL     1      34.978 -15.593 -23.704  0.00  0.00    +0.116 C 
ENDROOT
BRANCH   3   6
ATOM      5  C   UNL     1      34.642 -19.531 -20.892  0.00  0.00    +0.006 C 
ATOM      6  C   UNL     1      35.352 -18.414 -21.177  0.00  0.00    +0.058 C 
BRANCH   5  16
ATOM      7  O   UNL     1      35.803 -23.178 -14.206  0.00  0.00    -0.275 OA
ATOM      8  N   UNL     1      34.729 -22.405 -16.084  0.00  0.00    -0.270 N 
ATOM      9  N   UNL     1      33.554 -21.566 -17.957  0.00  0.00    -0.229 NA
ATOM     10  C   UNL     1      37.197 -21.358 -17.002  0.00  0.00    +0.039 C 
ATOM     11  C   UNL     1      35.917 -21.107 -17.737  0.00  0.00    +0.010 C 
ATOM     12  C   UNL     1      36.942 -21.522 -15.512  0.00  0.00    +0.090 C 
ATOM     13  C   UNL     1      34.724 -21.668 -17.284  0.00  0.00    +0.130 C 
ATOM     14  C   UNL     1      35.893 -20.401 -18.941  0.00  0.00    +0.000 C 
ATOM     15  C   UNL     1      35.800 -22.471 -15.214  0.00  0.00    +0.227 C 
ATOM     16  C   UNL     1      34.699 -20.265 -19.640  0.00  0.00    +0.019 C 
ATOM     17  C   UNL     1      33.569 -20.863 -19.112  0.00  0.00    +0.100 C 
ATOM     18  H   UNL     1      33.916 -22.907 -15.850  0.00  0.00    +0.156 HD
ENDBRANCH   5  16
ENDBRANCH   3   6
BRANCH   2  19
ATOM     19  C   UNL     1      35.303 -15.516 -21.258  0.00  0.00    +0.158 C 
BRANCH  19  21
ATOM     20  O   UNL     1      34.991 -13.402 -22.349  0.00  0.00    -0.456 OA
ATOM     21  C   UNL     1      34.557 -14.220 -21.372  0.00  0.00    +0.139 A 
ATOM     22  C   UNL     1      33.516 -13.701 -20.677  0.00  0.00    +0.013 A 
ATOM     23  C   UNL     1      33.262 -12.434 -21.265  0.00  0.00    +0.033 A 
ATOM     24  C   UNL     1      34.196 -12.297 -22.287  0.00  0.00    +0.145 A 
ATOM     25  C   UNL     1      32.792 -14.315 -19.547  0.00  0.00    +0.034 C 
ATOM     26  C   UNL     1      32.348 -11.389 -21.046  0.00  0.00    +0.003 C 
ATOM     27  C   UNL     1      34.287 -11.183 -23.119  0.00  0.00    +0.037 C 
ATOM     28  C   UNL     1      32.415 -10.254 -21.867  0.00  0.00    +0.000 C 
ATOM     29  C   UNL     1      33.369 -10.155 -22.883  0.00  0.00    +0.003 C 
ENDBRANCH  19  21
ENDBRANCH   2  19
TORSDOF 4
ENDMDL
MODEL 7
REMARK VINA RESULT:     -10.6      3.989     10.439
REMARK  Name = 10407120
REMARK  4 active torsions:
REMARK  status: ('A' for Active; 'I' for Inactive)
REMARK    1  A    between atoms: N_2  and  C_19
REMARK    2  A    between atoms: C_3  and  C_6
REMARK    3  A    between atoms: C_5  and  C_16
REMARK    4  A    between atoms: C_19  and  C_21
REMARK                            x       y       z     vdW  Elec       q    Type
REMARK                         _______ _______ _______ _____ _____    ______ ____
ROOT
ATOM      1  O   UNL     1      31.875 -23.981 -15.711  0.00  0.00    -0.270 OA
ATOM      2  N   UNL     1      33.619 -23.107 -14.448  0.00  0.00    -0.267 N 
ATOM      3  C   UNL     1      32.739 -23.121 -15.534  0.00  0.00    +0.250 C 
ATOM      4  C   UNL     1      33.536 -24.161 -13.447  0.00  0.00    +0.116 C 
ENDROOT
BRANCH   3   6
ATOM      5  C   UNL     1      33.757 -22.177 -17.576  0.00  0.00    +0.006 C 
ATOM      6  C   UNL     1      32.908 -22.024 -16.533  0.00  0.00    +0.058 C 
BRANCH   5  16
ATOM      7  O   UNL     1      36.061 -16.922 -22.716  0.00  0.00    -0.275 OA
ATOM      8  N   UNL     1      34.669 -18.299 -21.514  0.00  0.00    -0.270 N 
ATOM      9  N   UNL     1      33.204 -19.756 -20.364  0.00  0.00    -0.229 NA
ATOM     10  C   UNL     1      36.882 -19.048 -19.909  0.00  0.00    +0.039 C 
ATOM     11  C   UNL     1      35.542 -19.700 -19.752  0.00  0.00    +0.010 C 
ATOM     12  C   UNL     1      37.096 -18.593 -21.344  0.00  0.00    +0.090 C 
ATOM     13  C   UNL     1      34.462 -19.283 -20.528  0.00  0.00    +0.130 C 
ATOM     14  C   UNL     1      35.308 -20.658 -18.764  0.00  0.00    +0.000 C 
ATOM     15  C   UNL     1      35.910 -17.831 -21.901  0.00  0.00    +0.227 C 
ATOM     16  C   UNL     1      34.029 -21.175 -18.591  0.00  0.00    +0.019 C 
ATOM     17  C   UNL     1      33.022 -20.693 -19.407  0.00  0.00    +0.100 C 
ATOM     18  H   UNL     1      33.878 -17.918 -21.957  0.00  0.00    +0.156 HD
ENDBRANCH   5  16
ENDBRANCH   3   6
BRANCH   2  19
ATOM     19  C   UNL     1      34.674 -22.117 -14.235  0.00  0.00    +0.158 C 
BRANCH  19  21
ATOM     20  O   UNL     1      36.222 -23.706 -13.320  0.00  0.00    -0.456 OA
ATOM     21  C   UNL     1      36.039 -22.740 -14.240  0.00  0.00    +0.139 A 
ATOM     22  C   UNL     1      37.139 -22.523 -14.999  0.00  0.00    +0.013 A 
ATOM     23  C   UNL     1      38.117 -23.433 -14.519  0.00  0.00    +0.033 A 
ATOM     24  C   UNL     1      37.504 -24.137 -13.487  0.00  0.00    +0.145 A 
ATOM     25  C   UNL     1      37.298 -21.547 -16.096  0.00  0.00    +0.034 C 
ATOM     26  C   UNL     1      39.450 -23.740 -14.842  0.00  0.00    +0.003 C 
ATOM     27  C   UNL     1      38.128 -25.137 -12.744  0.00  0.00    +0.037 C 
ATOM     28  C   UNL     1      40.105 -24.741 -14.112  0.00  0.00    +0.000 C 
ATOM     29  C   UNL     1      39.454 -25.424 -13.082  0.00  0.00    +0.003 C 
ENDBRANCH  19  21
ENDBRANCH   2  19
TORSDOF 4
ENDMDL
MODEL 8
REMARK VINA RESULT:     -10.4      2.764      4.897
REMARK  Name = 10407120
REMARK  4 active torsions:
REMARK  status: ('A' for Active; 'I' for Inactive)
REMARK    1  A    between atoms: N_2  and  C_19
REMARK    2  A    between atoms: C_3  and  C_6
REMARK    3  A    between atoms: C_5  and  C_16
REMARK    4  A    between atoms: C_19  and  C_21
REMARK                            x       y       z     vdW  Elec       q    Type
REMARK                         _______ _______ _______ _____ _____    ______ ____
ROOT
ATOM      1  O   UNL     1      37.565 -20.662 -20.200  0.00  0.00    -0.270 OA
ATOM      2  N   UNL     1      36.768 -18.492 -20.445  0.00  0.00    -0.267 N 
ATOM      3  C   UNL     1      36.713 -19.804 -19.965  0.00  0.00    +0.250 C 
ATOM      4  C   UNL     1      37.890 -18.083 -21.279  0.00  0.00    +0.116 C 
ENDROOT
BRANCH   3   6
ATOM      5  C   UNL     1      35.520 -21.266 -18.371  0.00  0.00    +0.006 C 
ATOM      6  C   UNL     1      35.516 -20.154 -19.144  0.00  0.00    +0.058 C 
BRANCH   5  16
ATOM      7  O   UNL     1      30.247 -23.950 -13.439  0.00  0.00    -0.275 OA
ATOM      8  N   UNL     1      31.152 -23.012 -15.330  0.00  0.00    -0.270 N 
ATOM      9  N   UNL     1      32.024 -21.964 -17.263  0.00  0.00    -0.229 NA
ATOM     10  C   UNL     1      33.736 -23.572 -14.310  0.00  0.00    +0.039 C 
ATOM     11  C   UNL     1      33.544 -22.794 -15.576  0.00  0.00    +0.010 C 
ATOM     12  C   UNL     1      32.569 -23.356 -13.360  0.00  0.00    +0.090 C 
ATOM     13  C   UNL     1      32.262 -22.568 -16.075  0.00  0.00    +0.130 C 
ATOM     14  C   UNL     1      34.630 -22.367 -16.342  0.00  0.00    +0.000 C 
ATOM     15  C   UNL     1      31.223 -23.505 -14.042  0.00  0.00    +0.227 C 
ATOM     16  C   UNL     1      34.410 -21.726 -17.556  0.00  0.00    +0.019 C 
ATOM     17  C   UNL     1      33.102 -21.553 -17.968  0.00  0.00    +0.100 C 
ATOM     18  H   UNL     1      30.266 -22.968 -15.756  0.00  0.00    +0.156 HD
ENDBRANCH   5  16
ENDBRANCH   3   6
BRANCH   2  19
ATOM     19  C   UNL     1      35.752 -17.468 -20.208  0.00  0.00    +0.158 C 
BRANCH  19  21
ATOM     20  O   UNL     1      35.205 -15.469 -21.419  0.00  0.00    -0.456 OA
ATOM     21  C   UNL     1      35.311 -16.810 -21.483  0.00  0.00    +0.139 A 
ATOM     22  C   UNL     1      34.993 -17.304 -22.703  0.00  0.00    +0.013 A 
ATOM     23  C   UNL     1      34.653 -16.175 -23.493  0.00  0.00    +0.033 A 
ATOM     24  C   UNL     1      34.798 -15.072 -22.657  0.00  0.00    +0.145 A 
ATOM     25  C   UNL     1      34.997 -18.717 -23.131  0.00  0.00    +0.034 C 
ATOM     26  C   UNL     1      34.238 -15.963 -24.819  0.00  0.00    +0.003 C 
ATOM     27  C   UNL     1      34.559 -13.757 -23.051  0.00  0.00    +0.037 C 
ATOM     28  C   UNL     1      33.989 -14.651 -25.244  0.00  0.00    +0.000 C 
ATOM     29  C   UNL     1      34.147 -13.569 -24.374  0.00  0.00    +0.003 C 
ENDBRANCH  19  21
ENDBRANCH   2  19
TORSDOF 4
ENDMDL
MODEL 9
REMARK VINA RESULT:     -10.4      4.568     10.820
REMARK  Name = 10407120
REMARK  4 active torsions:
REMARK  status: ('A' for Active; 'I' for Inactive)
REMARK    1  A    between atoms: N_2  and  C_19
REMARK    2  A    between atoms: C_3  and  C_6
REMARK    3  A    between atoms: C_5  and  C_16
REMARK    4  A    between atoms: C_19  and  C_21
REMARK                            x       y       z     vdW  Elec       q    Type
REMARK                         _______ _______ _______ _____ _____    ______ ____
ROOT
ATOM      1  O   UNL     1      30.484 -24.301 -15.537  0.00  0.00    -0.270 OA
ATOM      2  N   UNL     1      31.887 -23.475 -13.878  0.00  0.00    -0.267 N 
ATOM      3  C   UNL     1      31.307 -23.470 -15.150  0.00  0.00    +0.250 C 
ATOM      4  C   UNL     1      31.517 -24.516 -12.928  0.00  0.00    +0.116 C 
ENDROOT
BRANCH   3   6
ATOM      5  C   UNL     1      32.761 -22.624 -16.958  0.00  0.00    +0.006 C 
ATOM      6  C   UNL     1      31.761 -22.391 -16.075  0.00  0.00    +0.058 C 
BRANCH   5  16
ATOM      7  O   UNL     1      36.476 -17.757 -21.632  0.00  0.00    -0.275 OA
ATOM      8  N   UNL     1      34.746 -18.812 -20.551  0.00  0.00    -0.270 N 
ATOM      9  N   UNL     1      32.924 -19.922 -19.529  0.00  0.00    -0.229 NA
ATOM     10  C   UNL     1      36.648 -20.248 -19.017  0.00  0.00    +0.039 C 
ATOM     11  C   UNL     1      35.181 -20.534 -18.915  0.00  0.00    +0.010 C 
ATOM     12  C   UNL     1      37.006 -19.749 -20.408  0.00  0.00    +0.090 C 
ATOM     13  C   UNL     1      34.266 -19.785 -19.653  0.00  0.00    +0.130 C 
ATOM     14  C   UNL     1      34.682 -21.475 -18.013  0.00  0.00    +0.000 C 
ATOM     15  C   UNL     1      36.074 -18.659 -20.897  0.00  0.00    +0.227 C 
ATOM     16  C   UNL     1      33.309 -21.649 -17.883  0.00  0.00    +0.019 C 
ATOM     17  C   UNL     1      32.481 -20.853 -18.655  0.00  0.00    +0.100 C 
ATOM     18  H   UNL     1      34.092 -18.202 -20.960  0.00  0.00    +0.156 HD
ENDBRANCH   5  16
ENDBRANCH   3   6
BRANCH   2  19
ATOM     19  C   UNL     1      32.890 -22.521 -13.408  0.00  0.00    +0.158 C 
BRANCH  19  21
ATOM     20  O   UNL     1      34.622 -23.150 -11.871  0.00  0.00    -0.456 OA
ATOM     21  C   UNL     1      34.214 -23.178 -13.154  0.00  0.00    +0.139 A 
ATOM     22  C   UNL     1      35.095 -23.806 -13.970  0.00  0.00    +0.013 A 
ATOM     23  C   UNL     1      36.164 -24.215 -13.132  0.00  0.00    +0.033 A 
ATOM     24  C   UNL     1      35.826 -23.788 -11.852  0.00  0.00    +0.145 A 
ATOM     25  C   UNL     1      34.976 -24.022 -15.426  0.00  0.00    +0.034 C 
ATOM     26  C   UNL     1      37.379 -24.899 -13.312  0.00  0.00    +0.003 C 
ATOM     27  C   UNL     1      36.617 -23.994 -10.724  0.00  0.00    +0.037 C 
ATOM     28  C   UNL     1      38.198 -25.121 -12.197  0.00  0.00    +0.000 C 
ATOM     29  C   UNL     1      37.822 -24.675 -10.927  0.00  0.00    +0.003 C 
ENDBRANCH  19  21
ENDBRANCH   2  19
TORSDOF 4
ENDMDL
