MODEL 1
REMARK VINA RESULT:     -11.8      0.000      0.000
REMARK  Name = 24764434
REMARK  8 active torsions:
REMARK  status: ('A' for Active; 'I' for Inactive)
REMARK    1  A    between atoms: C_1  and  N_4
REMARK    2  A    between atoms: C_1  and  C_17
REMARK    3  A    between atoms: C_1  and  C_28
REMARK    4  A    between atoms: C_11  and  C_14
REMARK    5  A    between atoms: C_14  and  O_15
REMARK    6  A    between atoms: C_17  and  C_18
REMARK    7  A    between atoms: C_28  and  C_30
REMARK    8  A    between atoms: C_30  and  O_31
REMARK                            x       y       z     vdW  Elec       q    Type
REMARK                         _______ _______ _______ _____ _____    ______ ____
ROOT
ATOM      1  C   UNL     1      35.003 -23.267 -14.915  0.00  0.00    +0.098 C 
ENDROOT
BRANCH   1   4
ATOM      2  O   UNL     1      33.267 -22.625 -17.254  0.00  0.00    -0.269 OA
ATOM      3  O   UNL     1      33.018 -23.396 -12.693  0.00  0.00    -0.269 OA
ATOM      4  N   UNL     1      33.569 -23.061 -14.958  0.00  0.00    -0.224 N 
ATOM      5  C   UNL     1      32.873 -22.762 -16.111  0.00  0.00    +0.255 C 
ATOM      6  C   UNL     1      32.750 -23.143 -13.852  0.00  0.00    +0.255 C 
ATOM      7  C   UNL     1      31.475 -22.630 -15.704  0.00  0.00    +0.059 C 
ATOM      8  C   UNL     1      31.400 -22.860 -14.339  0.00  0.00    +0.058 C 
ATOM      9  C   UNL     1      30.357 -22.334 -16.457  0.00  0.00    +0.011 C 
ATOM     10  C   UNL     1      30.203 -22.809 -13.653  0.00  0.00    +0.005 C 
ATOM     11  C   UNL     1      29.132 -22.276 -15.784  0.00  0.00    +0.076 C 
ATOM     12  C   UNL     1      29.057 -22.510 -14.396  0.00  0.00    +0.007 C 
BRANCH  11  14
ATOM     13  O   UNL     1      27.331 -20.883 -16.519  0.00  0.00    -0.245 OA
ATOM     14  C   UNL     1      27.919 -21.970 -16.525  0.00  0.00    +0.338 C 
BRANCH  14  15
ATOM     15  O   UNL     1      27.474 -23.030 -17.254  0.00  0.00    -0.477 OA
ATOM     16  H   UNL     1      27.157 -23.797 -16.821  0.00  0.00    +0.295 HD
ENDBRANCH  14  15
ENDBRANCH  11  14
ENDBRANCH   1   4
BRANCH   1  17
ATOM     17  C   UNL     1      35.388 -24.246 -13.785  0.00  0.00    +0.047 C 
BRANCH  17  18
ATOM     18  C   UNL     1      36.616 -23.875 -12.987  0.00  0.00    -0.020 C 
ATOM     19  C   UNL     1      37.893 -24.356 -13.320  0.00  0.00    -0.004 C 
ATOM     20  C   UNL     1      36.437 -23.028 -11.893  0.00  0.00    -0.004 C 
ATOM     21  C   UNL     1      39.004 -23.972 -12.532  0.00  0.00    -0.000 C 
ATOM     22  C   UNL     1      38.091 -25.210 -14.417  0.00  0.00    -0.000 C 
ATOM     23  C   UNL     1      37.530 -22.650 -11.118  0.00  0.00    -0.000 C 
ATOM     24  C   UNL     1      38.806 -23.118 -11.434  0.00  0.00    -0.000 C 
ATOM     25  C   UNL     1      40.280 -24.452 -12.865  0.00  0.00    -0.000 C 
ATOM     26  C   UNL     1      39.367 -25.678 -14.733  0.00  0.00    -0.000 C 
ATOM     27  C   UNL     1      40.460 -25.300 -13.959  0.00  0.00    -0.000 C 
ENDBRANCH  17  18
ENDBRANCH   1  17
BRANCH   1  28
ATOM     28  C   UNL     1      35.728 -21.915 -14.867  0.00  0.00    +0.130 C 
BRANCH  28  30
ATOM     29  O   UNL     1      37.929 -21.684 -15.879  0.00  0.00    -0.250 OA
ATOM     30  C   UNL     1      36.713 -21.721 -15.999  0.00  0.00    +0.316 C 
BRANCH  30  31
ATOM     31  O   UNL     1      36.085 -21.627 -17.200  0.00  0.00    -0.480 OA
ATOM     32  H   UNL     1      36.538 -21.274 -17.939  0.00  0.00    +0.295 HD
ENDBRANCH  30  31
ENDBRANCH  28  30
ENDBRANCH   1  28
TORSDOF 8
ENDMDL
MODEL 2
REMARK VINA RESULT:     -10.9     12.511     15.181
REMARK  Name = 24764434
REMARK  8 active torsions:
REMARK  status: ('A' for Active; 'I' for Inactive)
REMARK    1  A    between atoms: C_1  and  N_4
REMARK    2  A    between atoms: C_1  and  C_17
REMARK    3  A    between atoms: C_1  and  C_28
REMARK    4  A    between atoms: C_11  and  C_14
REMARK    5  A    between atoms: C_14  and  O_15
REMARK    6  A    between atoms: C_17  and  C_18
REMARK    7  A    between atoms: C_28  and  C_30
REMARK    8  A    between atoms: C_30  and  O_31
REMARK                            x       y       z     vdW  Elec       q    Type
REMARK                         _______ _______ _______ _____ _____    ______ ____
ROOT
ATOM      1  C   UNL     1      33.724 -10.845 -23.018  0.00  0.00    +0.098 C 
ENDROOT
BRANCH   1   4
ATOM      2  O   UNL     1      34.956 -12.668 -21.005  0.00  0.00    -0.269 OA
ATOM      3  O   UNL     1      33.272 -12.687 -25.320  0.00  0.00    -0.269 OA
ATOM      4  N   UNL     1      34.033 -12.256 -23.133  0.00  0.00    -0.224 N 
ATOM      5  C   UNL     1      34.611 -12.998 -22.124  0.00  0.00    +0.255 C 
ATOM      6  C   UNL     1      33.779 -13.006 -24.261  0.00  0.00    +0.255 C 
ATOM      7  C   UNL     1      34.751 -14.351 -22.660  0.00  0.00    +0.059 C 
ATOM      8  C   UNL     1      34.248 -14.357 -23.952  0.00  0.00    +0.058 C 
ATOM      9  C   UNL     1      35.272 -15.487 -22.074  0.00  0.00    +0.011 C 
ATOM     10  C   UNL     1      34.237 -15.499 -24.727  0.00  0.00    +0.005 C 
ATOM     11  C   UNL     1      35.273 -16.656 -22.841  0.00  0.00    +0.076 C 
ATOM     12  C   UNL     1      34.761 -16.661 -24.155  0.00  0.00    +0.007 C 
BRANCH  11  14
ATOM     13  O   UNL     1      35.146 -18.888 -21.988  0.00  0.00    -0.245 OA
ATOM     14  C   UNL     1      35.808 -17.885 -22.277  0.00  0.00    +0.338 C 
BRANCH  14  15
ATOM     15  O   UNL     1      37.155 -17.828 -22.091  0.00  0.00    -0.477 OA
ATOM     16  H   UNL     1      37.734 -18.161 -22.747  0.00  0.00    +0.295 HD
ENDBRANCH  14  15
ENDBRANCH  11  14
ENDBRANCH   1   4
BRANCH   1  17
ATOM     17  C   UNL     1      32.293 -10.633 -22.479  0.00  0.00    +0.047 C 
BRANCH  17  18
ATOM     18  C   UNL     1      32.195 -10.163 -21.046  0.00  0.00    -0.020 C 
ATOM     19  C   UNL     1      32.347  -8.812 -20.694  0.00  0.00    -0.004 C 
ATOM     20  C   UNL     1      31.946 -11.130 -20.072  0.00  0.00    -0.004 C 
ATOM     21  C   UNL     1      32.245  -8.435 -19.334  0.00  0.00    -0.000 C 
ATOM     22  C   UNL     1      32.599  -7.826 -21.662  0.00  0.00    -0.000 C 
ATOM     23  C   UNL     1      31.845 -10.760 -18.733  0.00  0.00    -0.000 C 
ATOM     24  C   UNL     1      31.993  -9.422 -18.365  0.00  0.00    -0.000 C 
ATOM     25  C   UNL     1      32.396  -7.086 -18.981  0.00  0.00    -0.000 C 
ATOM     26  C   UNL     1      32.746  -6.489 -21.294  0.00  0.00    -0.000 C 
ATOM     27  C   UNL     1      32.645  -6.119 -19.956  0.00  0.00    -0.000 C 
ENDBRANCH  17  18
ENDBRANCH   1  17
BRANCH   1  28
ATOM     28  C   UNL     1      34.021 -10.132 -24.345  0.00  0.00    +0.130 C 
BRANCH  28  30
ATOM     29  O   UNL     1      36.099  -9.425 -25.396  0.00  0.00    -0.250 OA
ATOM     30  C   UNL     1      35.398  -9.509 -24.397  0.00  0.00    +0.316 C 
BRANCH  30  31
ATOM     31  O   UNL     1      35.767  -9.005 -23.190  0.00  0.00    -0.480 OA
ATOM     32  H   UNL     1      35.474  -8.155 -22.929  0.00  0.00    +0.295 HD
ENDBRANCH  30  31
ENDBRANCH  28  30
ENDBRANCH   1  28
TORSDOF 8
ENDMDL
MODEL 3
REMARK VINA RESULT:     -10.8      0.626      2.080
REMARK  Name = 24764434
REMARK  8 active torsions:
REMARK  status: ('A' for Active; 'I' for Inactive)
REMARK    1  A    between atoms: C_1  and  N_4
REMARK    2  A    between atoms: C_1  and  C_17
REMARK    3  A    between atoms: C_1  and  C_28
REMARK    4  A    between atoms: C_11  and  C_14
REMARK    5  A    between atoms: C_14  and  O_15
REMARK    6  A    between atoms: C_17  and  C_18
REMARK    7  A    between atoms: C_28  and  C_30
REMARK    8  A    between atoms: C_30  and  O_31
REMARK                            x       y       z     vdW  Elec       q    Type
REMARK                         _______ _______ _______ _____ _____    ______ ____
ROOT
ATOM      1  C   UNL     1      34.975 -23.391 -15.435  0.00  0.00    +0.098 C 
ENDROOT
BRANCH   1   4
ATOM      2  O   UNL     1      33.120 -22.427 -17.561  0.00  0.00    -0.269 OA
ATOM      3  O   UNL     1      33.111 -23.846 -13.151  0.00  0.00    -0.269 OA
ATOM      4  N   UNL     1      33.542 -23.187 -15.371  0.00  0.00    -0.224 N 
ATOM      5  C   UNL     1      32.787 -22.728 -16.431  0.00  0.00    +0.255 C 
ATOM      6  C   UNL     1      32.783 -23.430 -14.247  0.00  0.00    +0.255 C 
ATOM      7  C   UNL     1      31.413 -22.661 -15.935  0.00  0.00    +0.059 C 
ATOM      8  C   UNL     1      31.410 -23.085 -14.615  0.00  0.00    +0.058 C 
ATOM      9  C   UNL     1      30.257 -22.266 -16.578  0.00  0.00    +0.011 C 
ATOM     10  C   UNL     1      30.251 -23.138 -13.867  0.00  0.00    +0.005 C 
ATOM     11  C   UNL     1      29.071 -22.309 -15.840  0.00  0.00    +0.076 C 
ATOM     12  C   UNL     1      29.068 -22.741 -14.497  0.00  0.00    +0.007 C 
BRANCH  11  14
ATOM     13  O   UNL     1      27.184 -20.881 -16.193  0.00  0.00    -0.245 OA
ATOM     14  C   UNL     1      27.820 -21.905 -16.463  0.00  0.00    +0.338 C 
BRANCH  14  15
ATOM     15  O   UNL     1      27.401 -22.791 -17.409  0.00  0.00    -0.477 OA
ATOM     16  H   UNL     1      27.931 -22.958 -18.162  0.00  0.00    +0.295 HD
ENDBRANCH  14  15
ENDBRANCH  11  14
ENDBRANCH   1   4
BRANCH   1  17
ATOM     17  C   UNL     1      35.388 -24.662 -14.660  0.00  0.00    +0.047 C 
BRANCH  17  18
ATOM     18  C   UNL     1      36.744 -24.613 -13.996  0.00  0.00    -0.020 C 
ATOM     19  C   UNL     1      36.924 -24.076 -12.711  0.00  0.00    -0.004 C 
ATOM     20  C   UNL     1      37.826 -25.127 -14.711  0.00  0.00    -0.004 C 
ATOM     21  C   UNL     1      38.220 -24.059 -12.143  0.00  0.00    -0.000 C 
ATOM     22  C   UNL     1      35.846 -23.554 -11.977  0.00  0.00    -0.000 C 
ATOM     23  C   UNL     1      39.101 -25.111 -14.153  0.00  0.00    -0.000 C 
ATOM     24  C   UNL     1      39.299 -24.581 -12.877  0.00  0.00    -0.000 C 
ATOM     25  C   UNL     1      38.400 -23.523 -10.859  0.00  0.00    -0.000 C 
ATOM     26  C   UNL     1      36.043 -23.025 -10.701  0.00  0.00    -0.000 C 
ATOM     27  C   UNL     1      37.318 -23.009 -10.143  0.00  0.00    -0.000 C 
ENDBRANCH  17  18
ENDBRANCH   1  17
BRANCH   1  28
ATOM     28  C   UNL     1      35.709 -22.113 -15.005  0.00  0.00    +0.130 C 
BRANCH  28  30
ATOM     29  O   UNL     1      37.793 -21.206 -15.875  0.00  0.00    -0.250 OA
ATOM     30  C   UNL     1      36.642 -21.571 -16.066  0.00  0.00    +0.316 C 
BRANCH  30  31
ATOM     31  O   UNL     1      36.059 -21.570 -17.293  0.00  0.00    -0.480 OA
ATOM     32  H   UNL     1      35.964 -22.372 -17.767  0.00  0.00    +0.295 HD
ENDBRANCH  30  31
ENDBRANCH  28  30
ENDBRANCH   1  28
TORSDOF 8
ENDMDL
MODEL 4
REMARK VINA RESULT:     -10.7     12.474     15.079
REMARK  Name = 24764434
REMARK  8 active torsions:
REMARK  status: ('A' for Active; 'I' for Inactive)
REMARK    1  A    between atoms: C_1  and  N_4
REMARK    2  A    between atoms: C_1  and  C_17
REMARK    3  A    between atoms: C_1  and  C_28
REMARK    4  A    between atoms: C_11  and  C_14
REMARK    5  A    between atoms: C_14  and  O_15
REMARK    6  A    between atoms: C_17  and  C_18
REMARK    7  A    between atoms: C_28  and  C_30
REMARK    8  A    between atoms: C_30  and  O_31
REMARK                            x       y       z     vdW  Elec       q    Type
REMARK                         _______ _______ _______ _____ _____    ______ ____
ROOT
ATOM      1  C   UNL     1      34.006 -10.672 -23.405  0.00  0.00    +0.098 C 
ENDROOT
BRANCH   1   4
ATOM      2  O   UNL     1      34.969 -12.642 -21.384  0.00  0.00    -0.269 OA
ATOM      3  O   UNL     1      33.404 -12.429 -25.739  0.00  0.00    -0.269 OA
ATOM      4  N   UNL     1      34.154 -12.108 -23.529  0.00  0.00    -0.224 N 
ATOM      5  C   UNL     1      34.618 -12.920 -22.515  0.00  0.00    +0.255 C 
ATOM      6  C   UNL     1      33.844 -12.814 -24.672  0.00  0.00    +0.255 C 
ATOM      7  C   UNL     1      34.616 -14.275 -23.064  0.00  0.00    +0.059 C 
ATOM      8  C   UNL     1      34.148 -14.212 -24.367  0.00  0.00    +0.058 C 
ATOM      9  C   UNL     1      34.989 -15.469 -22.479  0.00  0.00    +0.011 C 
ATOM     10  C   UNL     1      34.026 -15.338 -25.156  0.00  0.00    +0.005 C 
ATOM     11  C   UNL     1      34.875 -16.624 -23.259  0.00  0.00    +0.076 C 
ATOM     12  C   UNL     1      34.399 -16.558 -24.585  0.00  0.00    +0.007 C 
BRANCH  11  14
ATOM     13  O   UNL     1      35.036 -19.010 -23.219  0.00  0.00    -0.245 OA
ATOM     14  C   UNL     1      35.251 -17.911 -22.697  0.00  0.00    +0.338 C 
BRANCH  14  15
ATOM     15  O   UNL     1      35.888 -17.789 -21.500  0.00  0.00    -0.477 OA
ATOM     16  H   UNL     1      36.823 -17.817 -21.462  0.00  0.00    +0.295 HD
ENDBRANCH  14  15
ENDBRANCH  11  14
ENDBRANCH   1   4
BRANCH   1  17
ATOM     17  C   UNL     1      32.601 -10.302 -22.882  0.00  0.00    +0.047 C 
BRANCH  17  18
ATOM     18  C   UNL     1      32.567  -9.349 -21.710  0.00  0.00    -0.020 C 
ATOM     19  C   UNL     1      32.232  -9.775 -20.414  0.00  0.00    -0.004 C 
ATOM     20  C   UNL     1      32.884  -8.014 -21.962  0.00  0.00    -0.004 C 
ATOM     21  C   UNL     1      32.218  -8.833 -19.358  0.00  0.00    -0.000 C 
ATOM     22  C   UNL     1      31.910 -11.115 -20.144  0.00  0.00    -0.000 C 
ATOM     23  C   UNL     1      32.871  -7.087 -20.923  0.00  0.00    -0.000 C 
ATOM     24  C   UNL     1      32.540  -7.492 -19.629  0.00  0.00    -0.000 C 
ATOM     25  C   UNL     1      31.884  -9.257 -18.063  0.00  0.00    -0.000 C 
ATOM     26  C   UNL     1      31.579 -11.520 -18.850  0.00  0.00    -0.000 C 
ATOM     27  C   UNL     1      31.566 -10.593 -17.812  0.00  0.00    -0.000 C 
ENDBRANCH  17  18
ENDBRANCH   1  17
BRANCH   1  28
ATOM     28  C   UNL     1      34.400  -9.987 -24.721  0.00  0.00    +0.130 C 
BRANCH  28  30
ATOM     29  O   UNL     1      36.377  -8.866 -25.592  0.00  0.00    -0.250 OA
ATOM     30  C   UNL     1      35.706  -9.228 -24.636  0.00  0.00    +0.316 C 
BRANCH  30  31
ATOM     31  O   UNL     1      36.043  -8.951 -23.349  0.00  0.00    -0.480 OA
ATOM     32  H   UNL     1      35.378  -8.718 -22.731  0.00  0.00    +0.295 HD
ENDBRANCH  30  31
ENDBRANCH  28  30
ENDBRANCH   1  28
TORSDOF 8
ENDMDL
MODEL 5
REMARK VINA RESULT:     -10.6      3.165      5.589
REMARK  Name = 24764434
REMARK  8 active torsions:
REMARK  status: ('A' for Active; 'I' for Inactive)
REMARK    1  A    between atoms: C_1  and  N_4
REMARK    2  A    between atoms: C_1  and  C_17
REMARK    3  A    between atoms: C_1  and  C_28
REMARK    4  A    between atoms: C_11  and  C_14
REMARK    5  A    between atoms: C_14  and  O_15
REMARK    6  A    between atoms: C_17  and  C_18
REMARK    7  A    between atoms: C_28  and  C_30
REMARK    8  A    between atoms: C_30  and  O_31
REMARK                            x       y       z     vdW  Elec       q    Type
REMARK                         _______ _______ _______ _____ _____    ______ ____
ROOT
ATOM      1  C   UNL     1      34.076 -22.595 -16.049  0.00  0.00    +0.098 C 
ENDROOT
BRANCH   1   4
ATOM      2  O   UNL     1      32.610 -21.356 -18.331  0.00  0.00    -0.269 OA
ATOM      3  O   UNL     1      36.879 -21.716 -16.569  0.00  0.00    -0.269 OA
ATOM      4  N   UNL     1      34.593 -21.785 -17.134  0.00  0.00    -0.224 N 
ATOM      5  C   UNL     1      33.808 -21.267 -18.143  0.00  0.00    +0.255 C 
ATOM      6  C   UNL     1      35.922 -21.447 -17.271  0.00  0.00    +0.255 C 
ATOM      7  C   UNL     1      34.723 -20.534 -19.017  0.00  0.00    +0.059 C 
ATOM      8  C   UNL     1      36.001 -20.642 -18.490  0.00  0.00    +0.058 C 
ATOM      9  C   UNL     1      34.468 -19.828 -20.176  0.00  0.00    +0.011 C 
ATOM     10  C   UNL     1      37.093 -20.050 -19.092  0.00  0.00    +0.005 C 
ATOM     11  C   UNL     1      35.559 -19.220 -20.804  0.00  0.00    +0.076 C 
ATOM     12  C   UNL     1      36.858 -19.330 -20.268  0.00  0.00    +0.007 C 
BRANCH  11  14
ATOM     13  O   UNL     1      34.354 -18.533 -22.754  0.00  0.00    -0.245 OA
ATOM     14  C   UNL     1      35.352 -18.462 -22.028  0.00  0.00    +0.338 C 
BRANCH  14  15
ATOM     15  O   UNL     1      36.396 -17.635 -22.310  0.00  0.00    -0.477 OA
ATOM     16  H   UNL     1      36.811 -17.674 -23.148  0.00  0.00    +0.295 HD
ENDBRANCH  14  15
ENDBRANCH  11  14
ENDBRANCH   1   4
BRANCH   1  17
ATOM     17  C   UNL     1      35.082 -23.699 -15.655  0.00  0.00    +0.047 C 
BRANCH  17  18
ATOM     18  C   UNL     1      35.430 -23.774 -14.187  0.00  0.00    -0.020 C 
ATOM     19  C   UNL     1      36.717 -24.122 -13.744  0.00  0.00    -0.004 C 
ATOM     20  C   UNL     1      34.417 -23.483 -13.273  0.00  0.00    -0.004 C 
ATOM     21  C   UNL     1      36.980 -24.175 -12.355  0.00  0.00    -0.000 C 
ATOM     22  C   UNL     1      37.748 -24.419 -14.651  0.00  0.00    -0.000 C 
ATOM     23  C   UNL     1      34.676 -23.535 -11.906  0.00  0.00    -0.000 C 
ATOM     24  C   UNL     1      35.948 -23.879 -11.448  0.00  0.00    -0.000 C 
ATOM     25  C   UNL     1      38.266 -24.522 -11.912  0.00  0.00    -0.000 C 
ATOM     26  C   UNL     1      39.020 -24.762 -14.193  0.00  0.00    -0.000 C 
ATOM     27  C   UNL     1      39.279 -24.814 -12.826  0.00  0.00    -0.000 C 
ENDBRANCH  17  18
ENDBRANCH   1  17
BRANCH   1  28
ATOM     28  C   UNL     1      32.670 -23.104 -16.395  0.00  0.00    +0.130 C 
BRANCH  28  30
ATOM     29  O   UNL     1      31.628 -22.228 -14.378  0.00  0.00    -0.250 OA
ATOM     30  C   UNL     1      31.577 -22.450 -15.579  0.00  0.00    +0.316 C 
BRANCH  30  31
ATOM     31  O   UNL     1      30.519 -22.090 -16.353  0.00  0.00    -0.480 OA
ATOM     32  H   UNL     1      29.699 -21.876 -15.955  0.00  0.00    +0.295 HD
ENDBRANCH  30  31
ENDBRANCH  28  30
ENDBRANCH   1  28
TORSDOF 8
ENDMDL
MODEL 6
REMARK VINA RESULT:     -10.6      2.202      4.851
REMARK  Name = 24764434
REMARK  8 active torsions:
REMARK  status: ('A' for Active; 'I' for Inactive)
REMARK    1  A    between atoms: C_1  and  N_4
REMARK    2  A    between atoms: C_1  and  C_17
REMARK    3  A    between atoms: C_1  and  C_28
REMARK    4  A    between atoms: C_11  and  C_14
REMARK    5  A    between atoms: C_14  and  O_15
REMARK    6  A    between atoms: C_17  and  C_18
REMARK    7  A    between atoms: C_28  and  C_30
REMARK    8  A    between atoms: C_30  and  O_31
REMARK                            x       y       z     vdW  Elec       q    Type
REMARK                         _______ _______ _______ _____ _____    ______ ____
ROOT
ATOM      1  C   UNL     1      34.243 -23.390 -14.430  0.00  0.00    +0.098 C 
ENDROOT
BRANCH   1   4
ATOM      2  O   UNL     1      36.604 -22.076 -15.691  0.00  0.00    -0.269 OA
ATOM      3  O   UNL     1      32.086 -22.806 -16.405  0.00  0.00    -0.269 OA
ATOM      4  N   UNL     1      34.320 -22.651 -15.674  0.00  0.00    -0.224 N 
ATOM      5  C   UNL     1      35.480 -22.080 -16.155  0.00  0.00    +0.255 C 
ATOM      6  C   UNL     1      33.242 -22.441 -16.507  0.00  0.00    +0.255 C 
ATOM      7  C   UNL     1      35.108 -21.434 -17.413  0.00  0.00    +0.059 C 
ATOM      8  C   UNL     1      33.756 -21.652 -17.626  0.00  0.00    +0.058 C 
ATOM      9  C   UNL     1      35.882 -20.715 -18.302  0.00  0.00    +0.011 C 
ATOM     10  C   UNL     1      33.104 -21.164 -18.741  0.00  0.00    +0.005 C 
ATOM     11  C   UNL     1      35.243 -20.211 -19.438  0.00  0.00    +0.076 C 
ATOM     12  C   UNL     1      33.867 -20.433 -19.655  0.00  0.00    +0.007 C 
BRANCH  11  14
ATOM     13  O   UNL     1      37.173 -19.065 -20.267  0.00  0.00    -0.245 OA
ATOM     14  C   UNL     1      36.006 -19.446 -20.412  0.00  0.00    +0.338 C 
BRANCH  14  15
ATOM     15  O   UNL     1      35.292 -19.180 -21.540  0.00  0.00    -0.477 OA
ATOM     16  H   UNL     1      35.722 -18.834 -22.296  0.00  0.00    +0.295 HD
ENDBRANCH  14  15
ENDBRANCH  11  14
ENDBRANCH   1   4
BRANCH   1  17
ATOM     17  C   UNL     1      35.402 -24.404 -14.315  0.00  0.00    +0.047 C 
BRANCH  17  18
ATOM     18  C   UNL     1      36.486 -24.051 -13.324  0.00  0.00    -0.020 C 
ATOM     19  C   UNL     1      37.825 -24.430 -13.519  0.00  0.00    -0.004 C 
ATOM     20  C   UNL     1      36.108 -23.327 -12.193  0.00  0.00    -0.004 C 
ATOM     21  C   UNL     1      38.794 -24.069 -12.553  0.00  0.00    -0.000 C 
ATOM     22  C   UNL     1      38.222 -25.159 -14.652  0.00  0.00    -0.000 C 
ATOM     23  C   UNL     1      37.061 -22.972 -11.242  0.00  0.00    -0.000 C 
ATOM     24  C   UNL     1      38.396 -23.339 -11.420  0.00  0.00    -0.000 C 
ATOM     25  C   UNL     1      40.131 -24.446 -12.747  0.00  0.00    -0.000 C 
ATOM     26  C   UNL     1      39.556 -25.526 -14.829  0.00  0.00    -0.000 C 
ATOM     27  C   UNL     1      40.509 -25.170 -13.878  0.00  0.00    -0.000 C 
ENDBRANCH  17  18
ENDBRANCH   1  17
BRANCH   1  28
ATOM     28  C   UNL     1      32.842 -23.998 -14.264  0.00  0.00    +0.130 C 
BRANCH  28  30
ATOM     29  O   UNL     1      31.301 -24.269 -12.400  0.00  0.00    -0.250 OA
ATOM     30  C   UNL     1      32.177 -23.623 -12.958  0.00  0.00    +0.316 C 
BRANCH  30  31
ATOM     31  O   UNL     1      32.698 -22.481 -12.438  0.00  0.00    -0.480 OA
ATOM     32  H   UNL     1      32.297 -21.656 -12.625  0.00  0.00    +0.295 HD
ENDBRANCH  30  31
ENDBRANCH  28  30
ENDBRANCH   1  28
TORSDOF 8
ENDMDL
MODEL 7
REMARK VINA RESULT:     -10.2      2.405      5.408
REMARK  Name = 24764434
REMARK  8 active torsions:
REMARK  status: ('A' for Active; 'I' for Inactive)
REMARK    1  A    between atoms: C_1  and  N_4
REMARK    2  A    between atoms: C_1  and  C_17
REMARK    3  A    between atoms: C_1  and  C_28
REMARK    4  A    between atoms: C_11  and  C_14
REMARK    5  A    between atoms: C_14  and  O_15
REMARK    6  A    between atoms: C_17  and  C_18
REMARK    7  A    between atoms: C_28  and  C_30
REMARK    8  A    between atoms: C_30  and  O_31
REMARK                            x       y       z     vdW  Elec       q    Type
REMARK                         _______ _______ _______ _____ _____    ______ ____
ROOT
ATOM      1  C   UNL     1      34.486 -23.109 -14.616  0.00  0.00    +0.098 C 
ENDROOT
BRANCH   1   4
ATOM      2  O   UNL     1      36.828 -21.716 -15.828  0.00  0.00    -0.269 OA
ATOM      3  O   UNL     1      32.381 -22.688 -16.687  0.00  0.00    -0.269 OA
ATOM      4  N   UNL     1      34.575 -22.402 -15.878  0.00  0.00    -0.224 N 
ATOM      5  C   UNL     1      35.724 -21.789 -16.333  0.00  0.00    +0.255 C 
ATOM      6  C   UNL     1      33.522 -22.269 -16.757  0.00  0.00    +0.255 C 
ATOM      7  C   UNL     1      35.371 -21.197 -17.622  0.00  0.00    +0.059 C 
ATOM      8  C   UNL     1      34.040 -21.487 -17.880  0.00  0.00    +0.058 C 
ATOM      9  C   UNL     1      36.143 -20.466 -18.503  0.00  0.00    +0.011 C 
ATOM     10  C   UNL     1      33.409 -21.064 -19.032  0.00  0.00    +0.005 C 
ATOM     11  C   UNL     1      35.525 -20.026 -19.677  0.00  0.00    +0.076 C 
ATOM     12  C   UNL     1      34.171 -20.321 -19.938  0.00  0.00    +0.007 C 
BRANCH  11  14
ATOM     13  O   UNL     1      37.455 -18.875 -20.498  0.00  0.00    -0.245 OA
ATOM     14  C   UNL     1      36.288 -19.252 -20.645  0.00  0.00    +0.338 C 
BRANCH  14  15
ATOM     15  O   UNL     1      35.572 -18.974 -21.768  0.00  0.00    -0.477 OA
ATOM     16  H   UNL     1      35.099 -18.169 -21.835  0.00  0.00    +0.295 HD
ENDBRANCH  14  15
ENDBRANCH  11  14
ENDBRANCH   1   4
BRANCH   1  17
ATOM     17  C   UNL     1      34.936 -24.578 -14.772  0.00  0.00    +0.047 C 
BRANCH  17  18
ATOM     18  C   UNL     1      36.322 -24.897 -14.261  0.00  0.00    -0.020 C 
ATOM     19  C   UNL     1      36.903 -24.191 -13.195  0.00  0.00    -0.004 C 
ATOM     20  C   UNL     1      37.015 -25.930 -14.892  0.00  0.00    -0.004 C 
ATOM     21  C   UNL     1      38.205 -24.537 -12.763  0.00  0.00    -0.000 C 
ATOM     22  C   UNL     1      36.219 -23.147 -12.549  0.00  0.00    -0.000 C 
ATOM     23  C   UNL     1      38.295 -26.272 -14.467  0.00  0.00    -0.000 C 
ATOM     24  C   UNL     1      38.888 -25.580 -13.410  0.00  0.00    -0.000 C 
ATOM     25  C   UNL     1      38.786 -23.832 -11.698  0.00  0.00    -0.000 C 
ATOM     26  C   UNL     1      36.812 -22.457 -11.491  0.00  0.00    -0.000 C 
ATOM     27  C   UNL     1      38.093 -22.798 -11.066  0.00  0.00    -0.000 C 
ENDBRANCH  17  18
ENDBRANCH   1  17
BRANCH   1  28
ATOM     28  C   UNL     1      33.087 -22.929 -14.009  0.00  0.00    +0.130 C 
BRANCH  28  30
ATOM     29  O   UNL     1      31.669 -24.906 -13.984  0.00  0.00    -0.250 OA
ATOM     30  C   UNL     1      32.511 -24.206 -13.439  0.00  0.00    +0.316 C 
BRANCH  30  31
ATOM     31  O   UNL     1      33.072 -24.520 -12.243  0.00  0.00    -0.480 OA
ATOM     32  H   UNL     1      33.819 -24.045 -11.937  0.00  0.00    +0.295 HD
ENDBRANCH  30  31
ENDBRANCH  28  30
ENDBRANCH   1  28
TORSDOF 8
ENDMDL
MODEL 8
REMARK VINA RESULT:     -10.2      3.154      7.386
REMARK  Name = 24764434
REMARK  8 active torsions:
REMARK  status: ('A' for Active; 'I' for Inactive)
REMARK    1  A    between atoms: C_1  and  N_4
REMARK    2  A    between atoms: C_1  and  C_17
REMARK    3  A    between atoms: C_1  and  C_28
REMARK    4  A    between atoms: C_11  and  C_14
REMARK    5  A    between atoms: C_14  and  O_15
REMARK    6  A    between atoms: C_17  and  C_18
REMARK    7  A    between atoms: C_28  and  C_30
REMARK    8  A    between atoms: C_30  and  O_31
REMARK                            x       y       z     vdW  Elec       q    Type
REMARK                         _______ _______ _______ _____ _____    ______ ____
ROOT
ATOM      1  C   UNL     1      34.539 -22.766 -15.856  0.00  0.00    +0.098 C 
ENDROOT
BRANCH   1   4
ATOM      2  O   UNL     1      37.038 -21.376 -16.703  0.00  0.00    -0.269 OA
ATOM      3  O   UNL     1      32.633 -21.971 -18.009  0.00  0.00    -0.269 OA
ATOM      4  N   UNL     1      34.765 -21.916 -17.008  0.00  0.00    -0.224 N 
ATOM      5  C   UNL     1      35.977 -21.321 -17.294  0.00  0.00    +0.255 C 
ATOM      6  C   UNL     1      33.795 -21.615 -17.940  0.00  0.00    +0.255 C 
ATOM      7  C   UNL     1      35.759 -20.557 -18.522  0.00  0.00    +0.059 C 
ATOM      8  C   UNL     1      34.441 -20.734 -18.913  0.00  0.00    +0.058 C 
ATOM      9  C   UNL     1      36.636 -19.771 -19.243  0.00  0.00    +0.011 C 
ATOM     10  C   UNL     1      33.928 -20.137 -20.046  0.00  0.00    +0.005 C 
ATOM     11  C   UNL     1      36.138 -19.155 -20.395  0.00  0.00    +0.076 C 
ATOM     12  C   UNL     1      34.797 -19.336 -20.792  0.00  0.00    +0.007 C 
BRANCH  11  14
ATOM     13  O   UNL     1      38.241 -18.237 -21.073  0.00  0.00    -0.245 OA
ATOM     14  C   UNL     1      37.014 -18.315 -21.197  0.00  0.00    +0.338 C 
BRANCH  14  15
ATOM     15  O   UNL     1      36.334 -17.598 -22.133  0.00  0.00    -0.477 OA
ATOM     16  H   UNL     1      35.414 -17.454 -22.035  0.00  0.00    +0.295 HD
ENDBRANCH  14  15
ENDBRANCH  11  14
ENDBRANCH   1   4
BRANCH   1  17
ATOM     17  C   UNL     1      33.554 -22.106 -14.867  0.00  0.00    +0.047 C 
BRANCH  17  18
ATOM     18  C   UNL     1      32.469 -23.006 -14.324  0.00  0.00    -0.020 C 
ATOM     19  C   UNL     1      31.160 -22.985 -14.834  0.00  0.00    -0.004 C 
ATOM     20  C   UNL     1      32.814 -23.871 -13.286  0.00  0.00    -0.004 C 
ATOM     21  C   UNL     1      30.188 -23.853 -14.283  0.00  0.00    -0.000 C 
ATOM     22  C   UNL     1      30.795 -22.120 -15.879  0.00  0.00    -0.000 C 
ATOM     23  C   UNL     1      31.858 -24.726 -12.743  0.00  0.00    -0.000 C 
ATOM     24  C   UNL     1      30.553 -24.717 -13.237  0.00  0.00    -0.000 C 
ATOM     25  C   UNL     1      28.880 -23.832 -14.792  0.00  0.00    -0.000 C 
ATOM     26  C   UNL     1      29.490 -22.112 -16.373  0.00  0.00    -0.000 C 
ATOM     27  C   UNL     1      28.535 -22.966 -15.830  0.00  0.00    -0.000 C 
ENDBRANCH  17  18
ENDBRANCH   1  17
BRANCH   1  28
ATOM     28  C   UNL     1      35.881 -23.186 -15.240  0.00  0.00    +0.130 C 
BRANCH  28  30
ATOM     29  O   UNL     1      35.857 -25.612 -15.431  0.00  0.00    -0.250 OA
ATOM     30  C   UNL     1      35.889 -24.610 -14.730  0.00  0.00    +0.316 C 
BRANCH  30  31
ATOM     31  O   UNL     1      35.975 -24.658 -13.375  0.00  0.00    -0.480 OA
ATOM     32  H   UNL     1      35.514 -25.320 -12.900  0.00  0.00    +0.295 HD
ENDBRANCH  30  31
ENDBRANCH  28  30
ENDBRANCH   1  28
TORSDOF 8
ENDMDL
MODEL 9
REMARK VINA RESULT:     -10.1     12.523     14.993
REMARK  Name = 24764434
REMARK  8 active torsions:
REMARK  status: ('A' for Active; 'I' for Inactive)
REMARK    1  A    between atoms: C_1  and  N_4
REMARK    2  A    between atoms: C_1  and  C_17
REMARK    3  A    between atoms: C_1  and  C_28
REMARK    4  A    between atoms: C_11  and  C_14
REMARK    5  A    between atoms: C_14  and  O_15
REMARK    6  A    between atoms: C_17  and  C_18
REMARK    7  A    between atoms: C_28  and  C_30
REMARK    8  A    between atoms: C_30  and  O_31
REMARK                            x       y       z     vdW  Elec       q    Type
REMARK                         _______ _______ _______ _____ _____    ______ ____
ROOT
ATOM      1  C   UNL     1      34.001 -10.968 -23.071  0.00  0.00    +0.098 C 
ENDROOT
BRANCH   1   4
ATOM      2  O   UNL     1      33.321 -12.932 -25.209  0.00  0.00    -0.269 OA
ATOM      3  O   UNL     1      35.197 -12.726 -20.978  0.00  0.00    -0.269 OA
ATOM      4  N   UNL     1      34.192 -12.404 -23.085  0.00  0.00    -0.224 N 
ATOM      5  C   UNL     1      33.829 -13.214 -24.141  0.00  0.00    +0.255 C 
ATOM      6  C   UNL     1      34.757 -13.112 -22.045  0.00  0.00    +0.255 C 
ATOM      7  C   UNL     1      34.187 -14.573 -23.736  0.00  0.00    +0.059 C 
ATOM      8  C   UNL     1      34.748 -14.512 -22.469  0.00  0.00    +0.058 C 
ATOM      9  C   UNL     1      34.039 -15.767 -24.412  0.00  0.00    +0.011 C 
ATOM     10  C   UNL     1      35.192 -15.641 -21.811  0.00  0.00    +0.005 C 
ATOM     11  C   UNL     1      34.481 -16.925 -23.764  0.00  0.00    +0.076 C 
ATOM     12  C   UNL     1      35.052 -16.862 -22.477  0.00  0.00    +0.007 C 
BRANCH  11  14
ATOM     13  O   UNL     1      35.068 -19.199 -24.220  0.00  0.00    -0.245 OA
ATOM     14  C   UNL     1      34.353 -18.213 -24.428  0.00  0.00    +0.338 C 
BRANCH  14  15
ATOM     15  O   UNL     1      33.333 -18.234 -25.330  0.00  0.00    -0.477 OA
ATOM     16  H   UNL     1      32.484 -18.531 -25.070  0.00  0.00    +0.295 HD
ENDBRANCH  14  15
ENDBRANCH  11  14
ENDBRANCH   1   4
BRANCH   1  17
ATOM     17  C   UNL     1      32.547 -10.606 -22.697  0.00  0.00    +0.047 C 
BRANCH  17  18
ATOM     18  C   UNL     1      32.311 -10.253 -21.248  0.00  0.00    -0.020 C 
ATOM     19  C   UNL     1      32.433  -8.937 -20.773  0.00  0.00    -0.004 C 
ATOM     20  C   UNL     1      31.962 -11.292 -20.385  0.00  0.00    -0.004 C 
ATOM     21  C   UNL     1      32.199  -8.670 -19.403  0.00  0.00    -0.000 C 
ATOM     22  C   UNL     1      32.784  -7.879 -21.628  0.00  0.00    -0.000 C 
ATOM     23  C   UNL     1      31.731 -11.031 -19.037  0.00  0.00    -0.000 C 
ATOM     24  C   UNL     1      31.849  -9.729 -18.547  0.00  0.00    -0.000 C 
ATOM     25  C   UNL     1      32.321  -7.356 -18.928  0.00  0.00    -0.000 C 
ATOM     26  C   UNL     1      32.901  -6.578 -21.138  0.00  0.00    -0.000 C 
ATOM     27  C   UNL     1      32.669  -6.316 -19.791  0.00  0.00    -0.000 C 
ENDBRANCH  17  18
ENDBRANCH   1  17
BRANCH   1  28
ATOM     28  C   UNL     1      34.495 -10.358 -24.391  0.00  0.00    +0.130 C 
BRANCH  28  30
ATOM     29  O   UNL     1      35.700  -8.609 -23.203  0.00  0.00    -0.250 OA
ATOM     30  C   UNL     1      35.558  -9.299 -24.202  0.00  0.00    +0.316 C 
BRANCH  30  31
ATOM     31  O   UNL     1      36.385  -9.221 -25.278  0.00  0.00    -0.480 OA
ATOM     32  H   UNL     1      37.025  -9.889 -25.425  0.00  0.00    +0.295 HD
ENDBRANCH  30  31
ENDBRANCH  28  30
ENDBRANCH   1  28
TORSDOF 8
ENDMDL
