MODEL 1
REMARK VINA RESULT:     -11.7      0.000      0.000
REMARK  Name = 10401956
REMARK  3 active torsions:
REMARK  status: ('A' for Active; 'I' for Inactive)
REMARK    1  A    between atoms: N_1  and  C_13
REMARK    2  A    between atoms: C_8  and  N_20
REMARK    3  A    between atoms: C_21  and  C_23
REMARK                            x       y       z     vdW  Elec       q    Type
REMARK                         _______ _______ _______ _____ _____    ______ ____
ROOT
ATOM      1  N   UNL     1      32.998 -21.662 -17.895  0.00  0.00    -0.301 N 
ATOM      2  N   UNL     1      33.803 -23.728 -14.400  0.00  0.00    -0.248 NA
ATOM      3  N   UNL     1      34.515 -22.809 -16.511  0.00  0.00    -0.233 NA
ATOM      4  C   UNL     1      32.223 -22.565 -15.782  0.00  0.00    +0.117 C 
ATOM      5  C   UNL     1      32.555 -23.273 -14.615  0.00  0.00    +0.067 C 
ATOM      6  C   UNL     1      33.256 -22.367 -16.694  0.00  0.00    +0.115 C 
ATOM      7  C   UNL     1      30.916 -22.094 -15.995  0.00  0.00    +0.001 C 
ATOM      8  C   UNL     1      29.929 -22.327 -15.043  0.00  0.00    +0.047 C 
ATOM      9  C   UNL     1      31.547 -23.491 -13.679  0.00  0.00    +0.016 C 
ATOM     10  C   UNL     1      30.245 -23.025 -13.883  0.00  0.00    +0.016 C 
ATOM     11  C   UNL     1      34.714 -23.471 -15.360  0.00  0.00    +0.251 C 
ATOM     12  H   UNL     1      32.059 -21.650 -18.194  0.00  0.00    +0.153 HD
ENDROOT
BRANCH   1  13
ATOM     13  C   UNL     1      33.897 -20.987 -18.702  0.00  0.00    +0.049 C 
ATOM     14  C   UNL     1      35.282 -21.219 -18.596  0.00  0.00    +0.015 C 
ATOM     15  C   UNL     1      33.452 -20.047 -19.652  0.00  0.00    +0.015 C 
ATOM     16  C   UNL     1      36.188 -20.537 -19.408  0.00  0.00    +0.001 C 
ATOM     17  C   UNL     1      34.360 -19.366 -20.464  0.00  0.00    +0.001 C 
ATOM     18  C   UNL     1      35.727 -19.611 -20.342  0.00  0.00    +0.000 C 
ENDBRANCH   1  13
BRANCH   8  20
ATOM     19  O   UNL     1      27.992 -22.891 -17.267  0.00  0.00    -0.270 OA
ATOM     20  N   UNL     1      28.630 -21.861 -15.250  0.00  0.00    -0.281 N 
ATOM     21  C   UNL     1      27.765 -22.159 -16.312  0.00  0.00    +0.250 C 
ATOM     22  H   UNL     1      28.278 -21.247 -14.565  0.00  0.00    +0.155 HD
BRANCH  21  23
ATOM     23  C   UNL     1      26.456 -21.457 -16.168  0.00  0.00    +0.058 C 
ATOM     24  C   UNL     1      26.027 -20.618 -17.117  0.00  0.00    +0.005 C 
ENDBRANCH  21  23
ENDBRANCH   8  20
TORSDOF 3
ENDMDL
MODEL 2
REMARK VINA RESULT:     -11.1      3.332      7.607
REMARK  Name = 10401956
REMARK  3 active torsions:
REMARK  status: ('A' for Active; 'I' for Inactive)
REMARK    1  A    between atoms: N_1  and  C_13
REMARK    2  A    between atoms: C_8  and  N_20
REMARK    3  A    between atoms: C_21  and  C_23
REMARK                            x       y       z     vdW  Elec       q    Type
REMARK                         _______ _______ _______ _____ _____    ______ ____
ROOT
ATOM      1  N   UNL     1      32.758 -23.188 -15.686  0.00  0.00    -0.301 N 
ATOM      2  N   UNL     1      34.893 -21.011 -18.484  0.00  0.00    -0.248 NA
ATOM      3  N   UNL     1      32.840 -22.020 -17.726  0.00  0.00    -0.233 NA
ATOM      4  C   UNL     1      34.852 -22.193 -16.397  0.00  0.00    +0.117 C 
ATOM      5  C   UNL     1      35.525 -21.451 -17.381  0.00  0.00    +0.067 C 
ATOM      6  C   UNL     1      33.503 -22.445 -16.633  0.00  0.00    +0.115 C 
ATOM      7  C   UNL     1      35.523 -22.647 -15.249  0.00  0.00    +0.001 C 
ATOM      8  C   UNL     1      36.874 -22.362 -15.073  0.00  0.00    +0.047 C 
ATOM      9  C   UNL     1      36.876 -21.179 -17.180  0.00  0.00    +0.016 C 
ATOM     10  C   UNL     1      37.551 -21.627 -16.040  0.00  0.00    +0.016 C 
ATOM     11  C   UNL     1      33.585 -21.320 -18.596  0.00  0.00    +0.251 C 
ATOM     12  H   UNL     1      33.280 -23.780 -15.096  0.00  0.00    +0.153 HD
ENDROOT
BRANCH   1  13
ATOM     13  C   UNL     1      31.390 -23.188 -15.482  0.00  0.00    +0.049 C 
ATOM     14  C   UNL     1      30.590 -22.117 -15.927  0.00  0.00    +0.015 C 
ATOM     15  C   UNL     1      30.756 -24.260 -14.823  0.00  0.00    +0.015 C 
ATOM     16  C   UNL     1      29.211 -22.117 -15.721  0.00  0.00    +0.001 C 
ATOM     17  C   UNL     1      29.376 -24.259 -14.617  0.00  0.00    +0.001 C 
ATOM     18  C   UNL     1      28.604 -23.187 -15.066  0.00  0.00    +0.000 C 
ENDBRANCH   1  13
BRANCH   8  20
ATOM     19  O   UNL     1      38.079 -25.041 -14.454  0.00  0.00    -0.270 OA
ATOM     20  N   UNL     1      37.544 -22.809 -13.935  0.00  0.00    -0.281 N 
ATOM     21  C   UNL     1      38.090 -24.079 -13.697  0.00  0.00    +0.250 C 
ATOM     22  H   UNL     1      37.647 -22.152 -13.209  0.00  0.00    +0.155 HD
BRANCH  21  23
ATOM     23  C   UNL     1      38.728 -24.159 -12.351  0.00  0.00    +0.058 C 
ATOM     24  C   UNL     1      38.254 -23.437 -11.331  0.00  0.00    +0.005 C 
ENDBRANCH  21  23
ENDBRANCH   8  20
TORSDOF 3
ENDMDL
MODEL 3
REMARK VINA RESULT:     -10.7      1.225      1.511
REMARK  Name = 10401956
REMARK  3 active torsions:
REMARK  status: ('A' for Active; 'I' for Inactive)
REMARK    1  A    between atoms: N_1  and  C_13
REMARK    2  A    between atoms: C_8  and  N_20
REMARK    3  A    between atoms: C_21  and  C_23
REMARK                            x       y       z     vdW  Elec       q    Type
REMARK                         _______ _______ _______ _____ _____    ______ ____
ROOT
ATOM      1  N   UNL     1      33.982 -21.880 -17.616  0.00  0.00    -0.301 N 
ATOM      2  N   UNL     1      35.538 -23.200 -14.015  0.00  0.00    -0.248 NA
ATOM      3  N   UNL     1      35.839 -22.348 -16.249  0.00  0.00    -0.233 NA
ATOM      4  C   UNL     1      33.618 -22.736 -15.376  0.00  0.00    +0.117 C 
ATOM      5  C   UNL     1      34.203 -23.174 -14.177  0.00  0.00    +0.067 C 
ATOM      6  C   UNL     1      34.498 -22.334 -16.377  0.00  0.00    +0.115 C 
ATOM      7  C   UNL     1      32.221 -22.712 -15.534  0.00  0.00    +0.001 C 
ATOM      8  C   UNL     1      31.397 -23.128 -14.493  0.00  0.00    +0.047 C 
ATOM      9  C   UNL     1      33.354 -23.584 -13.152  0.00  0.00    +0.016 C 
ATOM     10  C   UNL     1      31.964 -23.564 -13.300  0.00  0.00    +0.016 C 
ATOM     11  C   UNL     1      36.283 -22.786 -15.061  0.00  0.00    +0.251 C 
ATOM     12  H   UNL     1      33.075 -22.188 -17.843  0.00  0.00    +0.153 HD
ENDROOT
BRANCH   1  13
ATOM     13  C   UNL     1      34.591 -21.057 -18.546  0.00  0.00    +0.049 C 
ATOM     14  C   UNL     1      35.994 -21.003 -18.659  0.00  0.00    +0.015 C 
ATOM     15  C   UNL     1      33.825 -20.247 -19.408  0.00  0.00    +0.015 C 
ATOM     16  C   UNL     1      36.608 -20.172 -19.596  0.00  0.00    +0.001 C 
ATOM     17  C   UNL     1      34.440 -19.416 -20.345  0.00  0.00    +0.001 C 
ATOM     18  C   UNL     1      35.831 -19.379 -20.439  0.00  0.00    +0.000 C 
ENDBRANCH   1  13
BRANCH   8  20
ATOM     19  O   UNL     1      29.684 -21.746 -16.536  0.00  0.00    -0.270 OA
ATOM     20  N   UNL     1      30.010 -23.106 -14.644  0.00  0.00    -0.281 N 
ATOM     21  C   UNL     1      29.258 -22.440 -15.622  0.00  0.00    +0.250 C 
ATOM     22  H   UNL     1      29.496 -23.623 -13.981  0.00  0.00    +0.155 HD
BRANCH  21  23
ATOM     23  C   UNL     1      27.795 -22.667 -15.439  0.00  0.00    +0.058 C 
ATOM     24  C   UNL     1      26.939 -21.639 -15.469  0.00  0.00    +0.005 C 
ENDBRANCH  21  23
ENDBRANCH   8  20
TORSDOF 3
ENDMDL
MODEL 4
REMARK VINA RESULT:     -10.6      2.699      3.705
REMARK  Name = 10401956
REMARK  3 active torsions:
REMARK  status: ('A' for Active; 'I' for Inactive)
REMARK    1  A    between atoms: N_1  and  C_13
REMARK    2  A    between atoms: C_8  and  N_20
REMARK    3  A    between atoms: C_21  and  C_23
REMARK                            x       y       z     vdW  Elec       q    Type
REMARK                         _______ _______ _______ _____ _____    ______ ____
ROOT
ATOM      1  N   UNL     1      34.831 -21.820 -17.547  0.00  0.00    -0.301 N 
ATOM      2  N   UNL     1      37.669 -21.950 -14.538  0.00  0.00    -0.248 NA
ATOM      3  N   UNL     1      36.993 -21.325 -16.765  0.00  0.00    -0.233 NA
ATOM      4  C   UNL     1      35.454 -22.474 -15.297  0.00  0.00    +0.117 C 
ATOM      5  C   UNL     1      36.457 -22.489 -14.314  0.00  0.00    +0.067 C 
ATOM      6  C   UNL     1      35.790 -21.873 -16.507  0.00  0.00    +0.115 C 
ATOM      7  C   UNL     1      34.191 -23.040 -15.051  0.00  0.00    +0.001 C 
ATOM      8  C   UNL     1      33.919 -23.626 -13.818  0.00  0.00    +0.047 C 
ATOM      9  C   UNL     1      36.157 -23.082 -13.089  0.00  0.00    +0.016 C 
ATOM     10  C   UNL     1      34.904 -23.646 -12.836  0.00  0.00    +0.016 C 
ATOM     11  C   UNL     1      37.870 -21.398 -15.752  0.00  0.00    +0.251 C 
ATOM     12  H   UNL     1      34.114 -22.496 -17.507  0.00  0.00    +0.153 HD
ENDROOT
BRANCH   1  13
ATOM     13  C   UNL     1      34.771 -20.939 -18.612  0.00  0.00    +0.049 C 
ATOM     14  C   UNL     1      35.945 -20.428 -19.198  0.00  0.00    +0.015 C 
ATOM     15  C   UNL     1      33.532 -20.527 -19.142  0.00  0.00    +0.015 C 
ATOM     16  C   UNL     1      35.885 -19.539 -20.270  0.00  0.00    +0.001 C 
ATOM     17  C   UNL     1      33.472 -19.637 -20.215  0.00  0.00    +0.001 C 
ATOM     18  C   UNL     1      34.649 -19.144 -20.779  0.00  0.00    +0.000 C 
ENDBRANCH   1  13
BRANCH   8  20
ATOM     19  O   UNL     1      31.199 -22.356 -13.735  0.00  0.00    -0.270 OA
ATOM     20  N   UNL     1      32.668 -24.188 -13.569  0.00  0.00    -0.281 N 
ATOM     21  C   UNL     1      31.421 -23.545 -13.542  0.00  0.00    +0.250 C 
ATOM     22  H   UNL     1      32.658 -25.156 -13.389  0.00  0.00    +0.155 HD
BRANCH  21  23
ATOM     23  C   UNL     1      30.317 -24.500 -13.236  0.00  0.00    +0.058 C 
ATOM     24  C   UNL     1      29.385 -24.778 -14.153  0.00  0.00    +0.005 C 
ENDBRANCH  21  23
ENDBRANCH   8  20
TORSDOF 3
ENDMDL
MODEL 5
REMARK VINA RESULT:     -10.4      2.804      5.419
REMARK  Name = 10401956
REMARK  3 active torsions:
REMARK  status: ('A' for Active; 'I' for Inactive)
REMARK    1  A    between atoms: N_1  and  C_13
REMARK    2  A    between atoms: C_8  and  N_20
REMARK    3  A    between atoms: C_21  and  C_23
REMARK                            x       y       z     vdW  Elec       q    Type
REMARK                         _______ _______ _______ _____ _____    ______ ____
ROOT
ATOM      1  N   UNL     1      36.064 -23.161 -14.400  0.00  0.00    -0.301 N 
ATOM      2  N   UNL     1      35.773 -21.076 -17.963  0.00  0.00    -0.248 NA
ATOM      3  N   UNL     1      37.086 -21.965 -16.149  0.00  0.00    -0.233 NA
ATOM      4  C   UNL     1      34.691 -22.288 -16.198  0.00  0.00    +0.117 C 
ATOM      5  C   UNL     1      34.654 -21.572 -17.406  0.00  0.00    +0.067 C 
ATOM      6  C   UNL     1      35.946 -22.449 -15.619  0.00  0.00    +0.115 C 
ATOM      7  C   UNL     1      33.515 -22.803 -15.626  0.00  0.00    +0.001 C 
ATOM      8  C   UNL     1      32.290 -22.606 -16.256  0.00  0.00    +0.047 C 
ATOM      9  C   UNL     1      33.414 -21.390 -18.015  0.00  0.00    +0.016 C 
ATOM     10  C   UNL     1      32.240 -21.899 -17.452  0.00  0.00    +0.016 C 
ATOM     11  C   UNL     1      36.928 -21.300 -17.304  0.00  0.00    +0.251 C 
ATOM     12  H   UNL     1      35.250 -23.204 -13.846  0.00  0.00    +0.153 HD
ENDROOT
BRANCH   1  13
ATOM     13  C   UNL     1      37.177 -23.803 -13.887  0.00  0.00    +0.049 C 
ATOM     14  C   UNL     1      37.835 -23.312 -12.743  0.00  0.00    +0.015 C 
ATOM     15  C   UNL     1      37.685 -24.968 -14.496  0.00  0.00    +0.015 C 
ATOM     16  C   UNL     1      38.958 -23.959 -12.228  0.00  0.00    +0.001 C 
ATOM     17  C   UNL     1      38.808 -25.614 -13.980  0.00  0.00    +0.001 C 
ATOM     18  C   UNL     1      39.444 -25.110 -12.845  0.00  0.00    +0.000 C 
ENDBRANCH   1  13
BRANCH   8  20
ATOM     19  O   UNL     1      29.449 -21.663 -16.493  0.00  0.00    -0.270 OA
ATOM     20  N   UNL     1      31.120 -23.115 -15.693  0.00  0.00    -0.281 N 
ATOM     21  C   UNL     1      29.811 -22.632 -15.838  0.00  0.00    +0.250 C 
ATOM     22  H   UNL     1      31.226 -23.911 -15.123  0.00  0.00    +0.155 HD
BRANCH  21  23
ATOM     23  C   UNL     1      28.833 -23.458 -15.070  0.00  0.00    +0.058 C 
ATOM     24  C   UNL     1      29.255 -24.450 -14.280  0.00  0.00    +0.005 C 
ENDBRANCH  21  23
ENDBRANCH   8  20
TORSDOF 3
ENDMDL
MODEL 6
REMARK VINA RESULT:     -10.1      2.902      6.169
REMARK  Name = 10401956
REMARK  3 active torsions:
REMARK  status: ('A' for Active; 'I' for Inactive)
REMARK    1  A    between atoms: N_1  and  C_13
REMARK    2  A    between atoms: C_8  and  N_20
REMARK    3  A    between atoms: C_21  and  C_23
REMARK                            x       y       z     vdW  Elec       q    Type
REMARK                         _______ _______ _______ _____ _____    ______ ____
ROOT
ATOM      1  N   UNL     1      35.047 -23.751 -14.062  0.00  0.00    -0.301 N 
ATOM      2  N   UNL     1      30.969 -23.772 -13.356  0.00  0.00    -0.248 NA
ATOM      3  N   UNL     1      33.219 -24.328 -12.698  0.00  0.00    -0.233 NA
ATOM      4  C   UNL     1      32.804 -23.165 -14.776  0.00  0.00    +0.117 C 
ATOM      5  C   UNL     1      31.431 -23.203 -14.483  0.00  0.00    +0.067 C 
ATOM      6  C   UNL     1      33.648 -23.749 -13.836  0.00  0.00    +0.115 C 
ATOM      7  C   UNL     1      33.276 -22.567 -15.957  0.00  0.00    +0.001 C 
ATOM      8  C   UNL     1      32.378 -22.001 -16.857  0.00  0.00    +0.047 C 
ATOM      9  C   UNL     1      30.555 -22.628 -15.401  0.00  0.00    +0.016 C 
ATOM     10  C   UNL     1      31.016 -22.031 -16.579  0.00  0.00    +0.016 C 
ATOM     11  C   UNL     1      31.888 -24.303 -12.525  0.00  0.00    +0.251 C 
ATOM     12  H   UNL     1      35.331 -23.662 -15.001  0.00  0.00    +0.153 HD
ENDROOT
BRANCH   1  13
ATOM     13  C   UNL     1      36.064 -23.859 -13.131  0.00  0.00    +0.049 C 
ATOM     14  C   UNL     1      36.357 -22.800 -12.250  0.00  0.00    +0.015 C 
ATOM     15  C   UNL     1      36.838 -25.033 -13.038  0.00  0.00    +0.015 C 
ATOM     16  C   UNL     1      37.384 -22.909 -11.312  0.00  0.00    +0.001 C 
ATOM     17  C   UNL     1      37.865 -25.141 -12.099  0.00  0.00    +0.001 C 
ATOM     18  C   UNL     1      38.137 -24.079 -11.237  0.00  0.00    +0.000 C 
ENDBRANCH   1  13
BRANCH   8  20
ATOM     19  O   UNL     1      35.172 -21.709 -17.918  0.00  0.00    -0.270 OA
ATOM     20  N   UNL     1      32.841 -21.406 -18.031  0.00  0.00    -0.281 N 
ATOM     21  C   UNL     1      34.165 -21.297 -18.480  0.00  0.00    +0.250 C 
ATOM     22  H   UNL     1      32.153 -21.014 -18.616  0.00  0.00    +0.155 HD
BRANCH  21  23
ATOM     23  C   UNL     1      34.244 -20.587 -19.790  0.00  0.00    +0.058 C 
ATOM     24  C   UNL     1      33.287 -19.729 -20.156  0.00  0.00    +0.005 C 
ENDBRANCH  21  23
ENDBRANCH   8  20
TORSDOF 3
ENDMDL
MODEL 7
REMARK VINA RESULT:     -10.1      3.174      6.785
REMARK  Name = 10401956
REMARK  3 active torsions:
REMARK  status: ('A' for Active; 'I' for Inactive)
REMARK    1  A    between atoms: N_1  and  C_13
REMARK    2  A    between atoms: C_8  and  N_20
REMARK    3  A    between atoms: C_21  and  C_23
REMARK                            x       y       z     vdW  Elec       q    Type
REMARK                         _______ _______ _______ _____ _____    ______ ____
ROOT
ATOM      1  N   UNL     1      35.814 -23.655 -14.447  0.00  0.00    -0.301 N 
ATOM      2  N   UNL     1      31.689 -23.319 -14.415  0.00  0.00    -0.248 NA
ATOM      3  N   UNL     1      33.746 -24.053 -13.398  0.00  0.00    -0.233 NA
ATOM      4  C   UNL     1      33.776 -22.893 -15.519  0.00  0.00    +0.117 C 
ATOM      5  C   UNL     1      32.375 -22.809 -15.453  0.00  0.00    +0.067 C 
ATOM      6  C   UNL     1      34.403 -23.531 -14.452  0.00  0.00    +0.115 C 
ATOM      7  C   UNL     1      34.483 -22.355 -16.608  0.00  0.00    +0.001 C 
ATOM      8  C   UNL     1      33.795 -21.729 -17.643  0.00  0.00    +0.047 C 
ATOM      9  C   UNL     1      31.713 -22.176 -16.503  0.00  0.00    +0.016 C 
ATOM     10  C   UNL     1      32.409 -21.639 -17.590  0.00  0.00    +0.016 C 
ATOM     11  C   UNL     1      32.412 -23.913 -13.445  0.00  0.00    +0.251 C 
ATOM     12  H   UNL     1      36.253 -23.605 -15.328  0.00  0.00    +0.153 HD
ENDROOT
BRANCH   1  13
ATOM     13  C   UNL     1      36.654 -23.834 -13.363  0.00  0.00    +0.049 C 
ATOM     14  C   UNL     1      37.193 -25.101 -13.065  0.00  0.00    +0.015 C 
ATOM     15  C   UNL     1      36.993 -22.755 -12.523  0.00  0.00    +0.015 C 
ATOM     16  C   UNL     1      38.038 -25.282 -11.971  0.00  0.00    +0.001 C 
ATOM     17  C   UNL     1      37.839 -22.938 -11.428  0.00  0.00    +0.001 C 
ATOM     18  C   UNL     1      38.361 -24.201 -11.153  0.00  0.00    +0.000 C 
ENDBRANCH   1  13
BRANCH   8  20
ATOM     19  O   UNL     1      36.557 -20.559 -17.793  0.00  0.00    -0.270 OA
ATOM     20  N   UNL     1      34.492 -21.194 -18.726  0.00  0.00    -0.281 N 
ATOM     21  C   UNL     1      35.788 -20.657 -18.741  0.00  0.00    +0.250 C 
ATOM     22  H   UNL     1      34.014 -21.192 -19.588  0.00  0.00    +0.155 HD
BRANCH  21  23
ATOM     23  C   UNL     1      36.172 -20.185 -20.103  0.00  0.00    +0.058 C 
ATOM     24  C   UNL     1      35.941 -18.922 -20.474  0.00  0.00    +0.005 C 
ENDBRANCH  21  23
ENDBRANCH   8  20
TORSDOF 3
ENDMDL
MODEL 8
REMARK VINA RESULT:     -10.0      6.570      9.954
REMARK  Name = 10401956
REMARK  3 active torsions:
REMARK  status: ('A' for Active; 'I' for Inactive)
REMARK    1  A    between atoms: N_1  and  C_13
REMARK    2  A    between atoms: C_8  and  N_20
REMARK    3  A    between atoms: C_21  and  C_23
REMARK                            x       y       z     vdW  Elec       q    Type
REMARK                         _______ _______ _______ _____ _____    ______ ____
ROOT
ATOM      1  N   UNL     1      35.390 -16.816 -21.167  0.00  0.00    -0.301 N 
ATOM      2  N   UNL     1      34.534 -15.979 -25.129  0.00  0.00    -0.248 NA
ATOM      3  N   UNL     1      35.388 -17.459 -23.430  0.00  0.00    -0.233 NA
ATOM      4  C   UNL     1      34.518 -15.284 -22.833  0.00  0.00    +0.117 C 
ATOM      5  C   UNL     1      34.250 -15.056 -24.193  0.00  0.00    +0.067 C 
ATOM      6  C   UNL     1      35.090 -16.514 -22.518  0.00  0.00    +0.115 C 
ATOM      7  C   UNL     1      34.216 -14.313 -21.863  0.00  0.00    +0.001 C 
ATOM      8  C   UNL     1      33.644 -13.103 -22.245  0.00  0.00    +0.047 C 
ATOM      9  C   UNL     1      33.677 -13.837 -24.546  0.00  0.00    +0.016 C 
ATOM     10  C   UNL     1      33.373 -12.865 -23.588  0.00  0.00    +0.016 C 
ATOM     11  C   UNL     1      35.088 -17.130 -24.696  0.00  0.00    +0.251 C 
ATOM     12  H   UNL     1      35.508 -16.043 -20.569  0.00  0.00    +0.153 HD
ENDROOT
BRANCH   1  13
ATOM     13  C   UNL     1      35.535 -18.060 -20.581  0.00  0.00    +0.049 C 
ATOM     14  C   UNL     1      34.415 -18.866 -20.300  0.00  0.00    +0.015 C 
ATOM     15  C   UNL     1      36.811 -18.558 -20.246  0.00  0.00    +0.015 C 
ATOM     16  C   UNL     1      34.562 -20.120 -19.708  0.00  0.00    +0.001 C 
ATOM     17  C   UNL     1      36.957 -19.813 -19.653  0.00  0.00    +0.001 C 
ATOM     18  C   UNL     1      35.833 -20.593 -19.385  0.00  0.00    +0.000 C 
ENDBRANCH   1  13
BRANCH   8  20
ATOM     19  O   UNL     1      31.766 -13.205 -19.903  0.00  0.00    -0.270 OA
ATOM     20  N   UNL     1      33.342 -12.136 -21.287  0.00  0.00    -0.281 N 
ATOM     21  C   UNL     1      32.452 -12.237 -20.207  0.00  0.00    +0.250 C 
ATOM     22  H   UNL     1      33.811 -11.275 -21.380  0.00  0.00    +0.155 HD
BRANCH  21  23
ATOM     23  C   UNL     1      32.409 -10.976 -19.410  0.00  0.00    +0.058 C 
ATOM     24  C   UNL     1      31.426 -10.762 -18.529  0.00  0.00    +0.005 C 
ENDBRANCH  21  23
ENDBRANCH   8  20
TORSDOF 3
ENDMDL
MODEL 9
REMARK VINA RESULT:      -9.9      2.145      3.474
REMARK  Name = 10401956
REMARK  3 active torsions:
REMARK  status: ('A' for Active; 'I' for Inactive)
REMARK    1  A    between atoms: N_1  and  C_13
REMARK    2  A    between atoms: C_8  and  N_20
REMARK    3  A    between atoms: C_21  and  C_23
REMARK                            x       y       z     vdW  Elec       q    Type
REMARK                         _______ _______ _______ _____ _____    ______ ____
ROOT
ATOM      1  N   UNL     1      34.413 -20.008 -19.978  0.00  0.00    -0.301 N 
ATOM      2  N   UNL     1      36.643 -21.639 -16.897  0.00  0.00    -0.248 NA
ATOM      3  N   UNL     1      36.493 -20.379 -18.946  0.00  0.00    -0.233 NA
ATOM      4  C   UNL     1      34.501 -21.284 -17.918  0.00  0.00    +0.117 C 
ATOM      5  C   UNL     1      35.309 -21.814 -16.899  0.00  0.00    +0.067 C 
ATOM      6  C   UNL     1      35.161 -20.573 -18.916  0.00  0.00    +0.115 C 
ATOM      7  C   UNL     1      33.108 -21.473 -17.909  0.00  0.00    +0.001 C 
ATOM      8  C   UNL     1      32.511 -22.194 -16.880  0.00  0.00    +0.047 C 
ATOM      9  C   UNL     1      34.684 -22.532 -15.882  0.00  0.00    +0.016 C 
ATOM     10  C   UNL     1      33.300 -22.724 -15.865  0.00  0.00    +0.016 C 
ATOM     11  C   UNL     1      37.162 -20.931 -17.921  0.00  0.00    +0.251 C 
ATOM     12  H   UNL     1      33.537 -20.423 -20.156  0.00  0.00    +0.153 HD
ENDROOT
BRANCH   1  13
ATOM     13  C   UNL     1      34.755 -18.946 -20.797  0.00  0.00    +0.049 C 
ATOM     14  C   UNL     1      35.245 -17.742 -20.255  0.00  0.00    +0.015 C 
ATOM     15  C   UNL     1      34.622 -19.039 -22.196  0.00  0.00    +0.015 C 
ATOM     16  C   UNL     1      35.589 -16.672 -21.081  0.00  0.00    +0.001 C 
ATOM     17  C   UNL     1      34.966 -17.967 -23.021  0.00  0.00    +0.001 C 
ATOM     18  C   UNL     1      35.449 -16.784 -22.463  0.00  0.00    +0.000 C 
ENDBRANCH   1  13
BRANCH   8  20
ATOM     19  O   UNL     1      30.572 -22.195 -14.587  0.00  0.00    -0.270 OA
ATOM     20  N   UNL     1      31.129 -22.384 -16.866  0.00  0.00    -0.281 N 
ATOM     21  C   UNL     1      30.267 -22.375 -15.760  0.00  0.00    +0.250 C 
ATOM     22  H   UNL     1      30.707 -22.546 -17.741  0.00  0.00    +0.155 HD
BRANCH  21  23
ATOM     23  C   UNL     1      28.852 -22.620 -16.163  0.00  0.00    +0.058 C 
ATOM     24  C   UNL     1      27.854 -21.944 -15.585  0.00  0.00    +0.005 C 
ENDBRANCH  21  23
ENDBRANCH   8  20
TORSDOF 3
ENDMDL
