MODEL 1
REMARK VINA RESULT:     -10.9      0.000      0.000
REMARK  Name = 11394238
REMARK  5 active torsions:
REMARK  status: ('A' for Active; 'I' for Inactive)
REMARK    1  A    between atoms: C_4  and  C_19
REMARK    2  A    between atoms: C_9  and  O_10
REMARK    3  A    between atoms: O_10  and  C_11
REMARK    4  A    between atoms: C_11  and  C_12
REMARK    5  A    between atoms: C_19  and  N_20
REMARK                            x       y       z     vdW  Elec       q    Type
REMARK                         _______ _______ _______ _____ _____    ______ ____
ROOT
ATOM      1  F   UNL     1      32.617 -13.467 -22.919  0.00  0.00    -0.235 F 
ATOM      2  O   UNL     1      35.507 -16.132 -23.289  0.00  0.00    -0.226 OA
ATOM      3  N   UNL     1      34.895 -14.655 -21.602  0.00  0.00    -0.243 N 
ATOM      4  C   UNL     1      33.233 -12.384 -20.913  0.00  0.00    +0.056 C 
ATOM      5  C   UNL     1      33.602 -12.700 -22.367  0.00  0.00    +0.182 C 
ATOM      6  C   UNL     1      33.236 -13.668 -20.070  0.00  0.00    +0.026 C 
ATOM      7  C   UNL     1      34.911 -13.476 -22.469  0.00  0.00    +0.132 C 
ATOM      8  C   UNL     1      34.568 -14.402 -20.195  0.00  0.00    +0.097 C 
ATOM      9  C   UNL     1      35.233 -15.913 -22.111  0.00  0.00    +0.405 C 
ENDROOT
BRANCH   9  10
ATOM     10  O   UNL     1      35.227 -16.891 -21.151  0.00  0.00    -0.430 OA
BRANCH  10  11
ATOM     11  C   UNL     1      35.597 -18.204 -21.586  0.00  0.00    +0.237 C 
BRANCH  11  12
ATOM     12  C   UNL     1      35.133 -19.205 -20.570  0.00  0.00    +0.021 C 
ATOM     13  C   UNL     1      33.771 -19.421 -20.390  0.00  0.00    -0.001 C 
ATOM     14  C   UNL     1      36.068 -19.908 -19.819  0.00  0.00    -0.001 C 
ATOM     15  C   UNL     1      34.271 -21.060 -18.687  0.00  0.00    -0.022 C 
ATOM     16  C   UNL     1      33.339 -20.352 -19.444  0.00  0.00    -0.004 C 
ATOM     17  C   UNL     1      35.635 -20.839 -18.874  0.00  0.00    -0.004 C 
ATOM     18  C   UNL     1      33.809 -22.056 -17.677  0.00  0.00    +0.031 C 
ENDBRANCH  11  12
ENDBRANCH  10  11
ENDBRANCH   9  10
BRANCH   4  19
ATOM     19  C   UNL     1      31.876 -11.688 -20.829  0.00  0.00    +0.100 C 
BRANCH  19  20
ATOM     20  N   UNL     1      31.914 -10.455 -21.570  0.00  0.00    -0.278 N 
ATOM     21  N   UNL     1      32.082  -8.127 -21.812  0.00  0.00    -0.181 NA
ATOM     22  N   UNL     1      32.175  -9.155 -19.634  0.00  0.00    -0.203 NA
ATOM     23  C   UNL     1      32.062  -9.205 -20.986  0.00  0.00    +0.087 C 
ATOM     24  C   UNL     1      32.227  -6.928 -21.211  0.00  0.00    +0.108 C 
ATOM     25  C   UNL     1      32.317  -7.925 -19.100  0.00  0.00    +0.165 C 
ATOM     26  C   UNL     1      32.350  -6.765 -19.846  0.00  0.00    +0.022 C 
ATOM     27  H   UNL     1      31.832 -10.501 -22.551  0.00  0.00    +0.158 HD
ENDBRANCH  19  20
ENDBRANCH   4  19
TORSDOF 5
ENDMDL
MODEL 2
REMARK VINA RESULT:     -10.8      4.906     10.137
REMARK  Name = 11394238
REMARK  5 active torsions:
REMARK  status: ('A' for Active; 'I' for Inactive)
REMARK    1  A    between atoms: C_4  and  C_19
REMARK    2  A    between atoms: C_9  and  O_10
REMARK    3  A    between atoms: O_10  and  C_11
REMARK    4  A    between atoms: C_11  and  C_12
REMARK    5  A    between atoms: C_19  and  N_20
REMARK                            x       y       z     vdW  Elec       q    Type
REMARK                         _______ _______ _______ _____ _____    ______ ____
ROOT
ATOM      1  F   UNL     1      35.927 -20.556 -17.629  0.00  0.00    -0.235 F 
ATOM      2  O   UNL     1      37.371 -18.307 -20.536  0.00  0.00    -0.226 OA
ATOM      3  N   UNL     1      35.466 -19.622 -20.322  0.00  0.00    -0.243 N 
ATOM      4  C   UNL     1      34.125 -21.627 -18.716  0.00  0.00    +0.056 C 
ATOM      5  C   UNL     1      35.643 -21.421 -18.645  0.00  0.00    +0.182 C 
ATOM      6  C   UNL     1      33.428 -20.321 -19.126  0.00  0.00    +0.026 C 
ATOM      7  C   UNL     1      36.200 -20.828 -19.934  0.00  0.00    +0.132 C 
ATOM      8  C   UNL     1      34.011 -19.773 -20.425  0.00  0.00    +0.097 C 
ATOM      9  C   UNL     1      36.152 -18.441 -20.622  0.00  0.00    +0.405 C 
ENDROOT
BRANCH   9  10
ATOM     10  O   UNL     1      35.317 -17.432 -21.026  0.00  0.00    -0.430 OA
BRANCH  10  11
ATOM     11  C   UNL     1      35.304 -16.258 -20.207  0.00  0.00    +0.237 C 
BRANCH  11  12
ATOM     12  C   UNL     1      34.984 -15.068 -21.063  0.00  0.00    +0.021 C 
ATOM     13  C   UNL     1      34.569 -13.883 -20.465  0.00  0.00    -0.001 C 
ATOM     14  C   UNL     1      35.105 -15.161 -22.444  0.00  0.00    -0.001 C 
ATOM     15  C   UNL     1      34.389 -12.863 -22.648  0.00  0.00    -0.022 C 
ATOM     16  C   UNL     1      34.270 -12.777 -21.261  0.00  0.00    -0.004 C 
ATOM     17  C   UNL     1      34.806 -14.054 -23.240  0.00  0.00    -0.004 C 
ATOM     18  C   UNL     1      34.071 -11.679 -23.498  0.00  0.00    +0.031 C 
ENDBRANCH  11  12
ENDBRANCH  10  11
ENDBRANCH   9  10
BRANCH   4  19
ATOM     19  C   UNL     1      33.577 -22.136 -17.385  0.00  0.00    +0.100 C 
BRANCH  19  20
ATOM     20  N   UNL     1      32.170 -21.848 -17.296  0.00  0.00    -0.278 N 
ATOM     21  N   UNL     1      30.031 -21.982 -16.340  0.00  0.00    -0.181 NA
ATOM     22  N   UNL     1      31.902 -23.138 -15.354  0.00  0.00    -0.203 NA
ATOM     23  C   UNL     1      31.340 -22.339 -16.297  0.00  0.00    +0.087 C 
ATOM     24  C   UNL     1      29.255 -22.477 -15.354  0.00  0.00    +0.108 C 
ATOM     25  C   UNL     1      31.068 -23.598 -14.399  0.00  0.00    +0.165 C 
ATOM     26  C   UNL     1      29.723 -23.297 -14.347  0.00  0.00    +0.022 C 
ATOM     27  H   UNL     1      31.771 -21.267 -17.985  0.00  0.00    +0.158 HD
ENDBRANCH  19  20
ENDBRANCH   4  19
TORSDOF 5
ENDMDL
MODEL 3
REMARK VINA RESULT:     -10.5      7.622     10.925
REMARK  Name = 11394238
REMARK  5 active torsions:
REMARK  status: ('A' for Active; 'I' for Inactive)
REMARK    1  A    between atoms: C_4  and  C_19
REMARK    2  A    between atoms: C_9  and  O_10
REMARK    3  A    between atoms: O_10  and  C_11
REMARK    4  A    between atoms: C_11  and  C_12
REMARK    5  A    between atoms: C_19  and  N_20
REMARK                            x       y       z     vdW  Elec       q    Type
REMARK                         _______ _______ _______ _____ _____    ______ ____
ROOT
ATOM      1  F   UNL     1      32.488 -21.690 -15.722  0.00  0.00    -0.235 F 
ATOM      2  O   UNL     1      33.066 -23.645 -12.340  0.00  0.00    -0.226 OA
ATOM      3  N   UNL     1      34.286 -23.454 -14.309  0.00  0.00    -0.243 N 
ATOM      4  C   UNL     1      34.241 -22.538 -17.058  0.00  0.00    +0.056 C 
ATOM      5  C   UNL     1      32.949 -22.842 -16.289  0.00  0.00    +0.182 C 
ATOM      6  C   UNL     1      35.355 -22.122 -16.085  0.00  0.00    +0.026 C 
ATOM      7  C   UNL     1      33.174 -23.856 -15.173  0.00  0.00    +0.132 C 
ATOM      8  C   UNL     1      35.550 -23.172 -14.995  0.00  0.00    +0.097 C 
ATOM      9  C   UNL     1      34.124 -23.411 -12.921  0.00  0.00    +0.405 C 
ENDROOT
BRANCH   9  10
ATOM     10  O   UNL     1      35.279 -23.076 -12.264  0.00  0.00    -0.430 OA
BRANCH  10  11
ATOM     11  C   UNL     1      35.897 -24.120 -11.503  0.00  0.00    +0.237 C 
BRANCH  11  12
ATOM     12  C   UNL     1      37.174 -24.527 -12.178  0.00  0.00    +0.021 C 
ATOM     13  C   UNL     1      37.205 -25.683 -12.950  0.00  0.00    -0.001 C 
ATOM     14  C   UNL     1      38.313 -23.745 -12.025  0.00  0.00    -0.001 C 
ATOM     15  C   UNL     1      39.540 -25.282 -13.428  0.00  0.00    -0.022 C 
ATOM     16  C   UNL     1      38.393 -26.061 -13.578  0.00  0.00    -0.004 C 
ATOM     17  C   UNL     1      39.500 -24.124 -12.653  0.00  0.00    -0.004 C 
ATOM     18  C   UNL     1      40.809 -25.686 -14.100  0.00  0.00    +0.031 C 
ENDBRANCH  11  12
ENDBRANCH  10  11
ENDBRANCH   9  10
BRANCH   4  19
ATOM     19  C   UNL     1      34.012 -21.454 -18.110  0.00  0.00    +0.100 C 
BRANCH  19  20
ATOM     20  N   UNL     1      35.246 -20.762 -18.371  0.00  0.00    -0.278 N 
ATOM     21  N   UNL     1      36.655 -19.310 -19.560  0.00  0.00    -0.181 NA
ATOM     22  N   UNL     1      34.387 -19.696 -20.277  0.00  0.00    -0.203 NA
ATOM     23  C   UNL     1      35.436 -19.894 -19.438  0.00  0.00    +0.087 C 
ATOM     24  C   UNL     1      36.804 -18.473 -20.607  0.00  0.00    +0.108 C 
ATOM     25  C   UNL     1      34.605 -18.847 -21.303  0.00  0.00    +0.165 C 
ATOM     26  C   UNL     1      35.805 -18.200 -21.519  0.00  0.00    +0.022 C 
ATOM     27  H   UNL     1      36.001 -20.912 -17.757  0.00  0.00    +0.158 HD
ENDBRANCH  19  20
ENDBRANCH   4  19
TORSDOF 5
ENDMDL
MODEL 4
REMARK VINA RESULT:     -10.4      1.462      2.120
REMARK  Name = 11394238
REMARK  5 active torsions:
REMARK  status: ('A' for Active; 'I' for Inactive)
REMARK    1  A    between atoms: C_4  and  C_19
REMARK    2  A    between atoms: C_9  and  O_10
REMARK    3  A    between atoms: O_10  and  C_11
REMARK    4  A    between atoms: C_11  and  C_12
REMARK    5  A    between atoms: C_19  and  N_20
REMARK                            x       y       z     vdW  Elec       q    Type
REMARK                         _______ _______ _______ _____ _____    ______ ____
ROOT
ATOM      1  F   UNL     1      33.068 -14.983 -24.354  0.00  0.00    -0.235 F 
ATOM      2  O   UNL     1      34.696 -18.487 -23.536  0.00  0.00    -0.226 OA
ATOM      3  N   UNL     1      35.119 -16.317 -22.820  0.00  0.00    -0.243 N 
ATOM      4  C   UNL     1      34.562 -13.509 -23.271  0.00  0.00    +0.056 C 
ATOM      5  C   UNL     1      34.364 -14.557 -24.373  0.00  0.00    +0.182 C 
ATOM      6  C   UNL     1      34.396 -14.154 -21.886  0.00  0.00    +0.026 C 
ATOM      7  C   UNL     1      35.261 -15.774 -24.172  0.00  0.00    +0.132 C 
ATOM      8  C   UNL     1      35.320 -15.358 -21.729  0.00  0.00    +0.097 C 
ATOM      9  C   UNL     1      34.866 -17.678 -22.626  0.00  0.00    +0.405 C 
ENDROOT
BRANCH   9  10
ATOM     10  O   UNL     1      34.826 -18.026 -21.301  0.00  0.00    -0.430 OA
BRANCH  10  11
ATOM     11  C   UNL     1      35.796 -18.987 -20.871  0.00  0.00    +0.237 C 
BRANCH  11  12
ATOM     12  C   UNL     1      35.170 -19.892 -19.852  0.00  0.00    +0.021 C 
ATOM     13  C   UNL     1      33.785 -19.990 -19.777  0.00  0.00    -0.001 C 
ATOM     14  C   UNL     1      35.980 -20.625 -18.992  0.00  0.00    -0.001 C 
ATOM     15  C   UNL     1      34.009 -21.569 -17.962  0.00  0.00    -0.022 C 
ATOM     16  C   UNL     1      33.203 -20.831 -18.828  0.00  0.00    -0.004 C 
ATOM     17  C   UNL     1      35.397 -21.467 -18.044  0.00  0.00    -0.004 C 
ATOM     18  C   UNL     1      33.386 -22.469 -16.949  0.00  0.00    +0.031 C 
ENDBRANCH  11  12
ENDBRANCH  10  11
ENDBRANCH   9  10
BRANCH   4  19
ATOM     19  C   UNL     1      33.591 -12.342 -23.442  0.00  0.00    +0.100 C 
BRANCH  19  20
ATOM     20  N   UNL     1      32.917 -12.084 -22.198  0.00  0.00    -0.278 N 
ATOM     21  N   UNL     1      31.986 -10.722 -20.529  0.00  0.00    -0.181 NA
ATOM     22  N   UNL     1      33.015  -9.758 -22.483  0.00  0.00    -0.203 NA
ATOM     23  C   UNL     1      32.630 -10.813 -21.721  0.00  0.00    +0.087 C 
ATOM     24  C   UNL     1      31.724  -9.471 -20.096  0.00  0.00    +0.108 C 
ATOM     25  C   UNL     1      32.722  -8.537 -21.991  0.00  0.00    +0.165 C 
ATOM     26  C   UNL     1      32.071  -8.331 -20.791  0.00  0.00    +0.022 C 
ATOM     27  H   UNL     1      32.641 -12.856 -21.651  0.00  0.00    +0.158 HD
ENDBRANCH  19  20
ENDBRANCH   4  19
TORSDOF 5
ENDMDL
MODEL 5
REMARK VINA RESULT:     -10.4      8.491     13.033
REMARK  Name = 11394238
REMARK  5 active torsions:
REMARK  status: ('A' for Active; 'I' for Inactive)
REMARK    1  A    between atoms: C_4  and  C_19
REMARK    2  A    between atoms: C_9  and  O_10
REMARK    3  A    between atoms: O_10  and  C_11
REMARK    4  A    between atoms: C_11  and  C_12
REMARK    5  A    between atoms: C_19  and  N_20
REMARK                            x       y       z     vdW  Elec       q    Type
REMARK                         _______ _______ _______ _____ _____    ______ ____
ROOT
ATOM      1  F   UNL     1      33.908 -24.802 -13.383  0.00  0.00    -0.235 F 
ATOM      2  O   UNL     1      32.041 -22.943 -16.324  0.00  0.00    -0.226 OA
ATOM      3  N   UNL     1      33.928 -22.451 -15.059  0.00  0.00    -0.243 N 
ATOM      4  C   UNL     1      35.480 -23.169 -12.719  0.00  0.00    +0.056 C 
ATOM      5  C   UNL     1      34.000 -23.549 -12.852  0.00  0.00    +0.182 C 
ATOM      6  C   UNL     1      36.124 -23.040 -14.108  0.00  0.00    +0.026 C 
ATOM      7  C   UNL     1      33.246 -22.595 -13.772  0.00  0.00    +0.132 C 
ATOM      8  C   UNL     1      35.342 -22.067 -14.986  0.00  0.00    +0.097 C 
ATOM      9  C   UNL     1      33.226 -22.620 -16.256  0.00  0.00    +0.405 C 
ENDROOT
BRANCH   9  10
ATOM     10  O   UNL     1      34.001 -22.388 -17.362  0.00  0.00    -0.430 OA
BRANCH  10  11
ATOM     11  C   UNL     1      33.360 -21.719 -18.453  0.00  0.00    +0.237 C 
BRANCH  11  12
ATOM     12  C   UNL     1      34.342 -20.791 -19.104  0.00  0.00    +0.021 C 
ATOM     13  C   UNL     1      35.701 -20.936 -18.845  0.00  0.00    -0.001 C 
ATOM     14  C   UNL     1      33.886 -19.794 -19.958  0.00  0.00    -0.001 C 
ATOM     15  C   UNL     1      36.164 -19.070 -20.308  0.00  0.00    -0.022 C 
ATOM     16  C   UNL     1      36.615 -20.072 -19.450  0.00  0.00    -0.004 C 
ATOM     17  C   UNL     1      34.800 -18.930 -20.563  0.00  0.00    -0.004 C 
ATOM     18  C   UNL     1      37.141 -18.148 -20.955  0.00  0.00    +0.031 C 
ENDBRANCH  11  12
ENDBRANCH  10  11
ENDBRANCH   9  10
BRANCH   4  19
ATOM     19  C   UNL     1      36.234 -24.188 -11.868  0.00  0.00    +0.100 C 
BRANCH  19  20
ATOM     20  N   UNL     1      36.823 -25.189 -12.716  0.00  0.00    -0.278 N 
ATOM     21  N   UNL     1      38.573 -26.198 -13.911  0.00  0.00    -0.181 NA
ATOM     22  N   UNL     1      38.937 -24.173 -12.657  0.00  0.00    -0.203 NA
ATOM     23  C   UNL     1      38.155 -25.187 -13.108  0.00  0.00    +0.087 C 
ATOM     24  C   UNL     1      39.872 -26.164 -14.272  0.00  0.00    +0.108 C 
ATOM     25  C   UNL     1      40.225 -24.200 -13.057  0.00  0.00    +0.165 C 
ATOM     26  C   UNL     1      40.754 -25.180 -13.872  0.00  0.00    +0.022 C 
ATOM     27  H   UNL     1      36.248 -25.922 -13.038  0.00  0.00    +0.158 HD
ENDBRANCH  19  20
ENDBRANCH   4  19
TORSDOF 5
ENDMDL
MODEL 6
REMARK VINA RESULT:     -10.4      5.763      8.630
REMARK  Name = 11394238
REMARK  5 active torsions:
REMARK  status: ('A' for Active; 'I' for Inactive)
REMARK    1  A    between atoms: C_4  and  C_19
REMARK    2  A    between atoms: C_9  and  O_10
REMARK    3  A    between atoms: O_10  and  C_11
REMARK    4  A    between atoms: C_11  and  C_12
REMARK    5  A    between atoms: C_19  and  N_20
REMARK                            x       y       z     vdW  Elec       q    Type
REMARK                         _______ _______ _______ _____ _____    ______ ____
ROOT
ATOM      1  F   UNL     1      33.508 -19.797 -18.974  0.00  0.00    -0.235 F 
ATOM      2  O   UNL     1      33.160 -22.741 -16.366  0.00  0.00    -0.226 OA
ATOM      3  N   UNL     1      34.917 -21.953 -17.669  0.00  0.00    -0.243 N 
ATOM      4  C   UNL     1      35.660 -20.205 -19.857  0.00  0.00    +0.056 C 
ATOM      5  C   UNL     1      34.224 -20.715 -19.686  0.00  0.00    +0.182 C 
ATOM      6  C   UNL     1      36.370 -20.144 -18.497  0.00  0.00    +0.026 C 
ATOM      7  C   UNL     1      34.174 -22.037 -18.928  0.00  0.00    +0.132 C 
ATOM      8  C   UNL     1      36.303 -21.491 -17.783  0.00  0.00    +0.097 C 
ATOM      9  C   UNL     1      34.322 -22.354 -16.468  0.00  0.00    +0.405 C 
ENDROOT
BRANCH   9  10
ATOM     10  O   UNL     1      35.178 -22.269 -15.401  0.00  0.00    -0.430 OA
BRANCH  10  11
ATOM     11  C   UNL     1      35.170 -23.378 -14.496  0.00  0.00    +0.237 C 
BRANCH  11  12
ATOM     12  C   UNL     1      36.567 -23.908 -14.358  0.00  0.00    +0.021 C 
ATOM     13  C   UNL     1      36.766 -25.219 -13.940  0.00  0.00    -0.001 C 
ATOM     14  C   UNL     1      37.647 -23.084 -14.650  0.00  0.00    -0.001 C 
ATOM     15  C   UNL     1      39.155 -24.891 -14.102  0.00  0.00    -0.022 C 
ATOM     16  C   UNL     1      38.066 -25.712 -13.812  0.00  0.00    -0.004 C 
ATOM     17  C   UNL     1      38.946 -23.578 -14.522  0.00  0.00    -0.004 C 
ATOM     18  C   UNL     1      40.543 -25.419 -13.966  0.00  0.00    +0.031 C 
ENDBRANCH  11  12
ENDBRANCH  10  11
ENDBRANCH   9  10
BRANCH   4  19
ATOM     19  C   UNL     1      35.680 -18.838 -20.538  0.00  0.00    +0.100 C 
BRANCH  19  20
ATOM     20  N   UNL     1      35.054 -18.928 -21.830  0.00  0.00    -0.278 N 
ATOM     21  N   UNL     1      34.302 -18.089 -23.888  0.00  0.00    -0.181 NA
ATOM     22  N   UNL     1      35.398 -16.654 -22.293  0.00  0.00    -0.203 NA
ATOM     23  C   UNL     1      34.913 -17.855 -22.699  0.00  0.00    +0.087 C 
ATOM     24  C   UNL     1      34.182 -17.024 -24.707  0.00  0.00    +0.108 C 
ATOM     25  C   UNL     1      35.244 -15.632 -23.161  0.00  0.00    +0.165 C 
ATOM     26  C   UNL     1      34.638 -15.760 -24.394  0.00  0.00    +0.022 C 
ATOM     27  H   UNL     1      34.706 -19.804 -22.117  0.00  0.00    +0.158 HD
ENDBRANCH  19  20
ENDBRANCH   4  19
TORSDOF 5
ENDMDL
MODEL 7
REMARK VINA RESULT:     -10.3      4.880      8.183
REMARK  Name = 11394238
REMARK  5 active torsions:
REMARK  status: ('A' for Active; 'I' for Inactive)
REMARK    1  A    between atoms: C_4  and  C_19
REMARK    2  A    between atoms: C_9  and  O_10
REMARK    3  A    between atoms: O_10  and  C_11
REMARK    4  A    between atoms: C_11  and  C_12
REMARK    5  A    between atoms: C_19  and  N_20
REMARK                            x       y       z     vdW  Elec       q    Type
REMARK                         _______ _______ _______ _____ _____    ______ ____
ROOT
ATOM      1  F   UNL     1      33.653 -19.876 -19.146  0.00  0.00    -0.235 F 
ATOM      2  O   UNL     1      33.508 -22.479 -16.180  0.00  0.00    -0.226 OA
ATOM      3  N   UNL     1      35.193 -21.786 -17.624  0.00  0.00    -0.243 N 
ATOM      4  C   UNL     1      35.799 -20.299 -20.035  0.00  0.00    +0.056 C 
ATOM      5  C   UNL     1      34.394 -20.845 -19.758  0.00  0.00    +0.182 C 
ATOM      6  C   UNL     1      36.539 -20.034 -18.715  0.00  0.00    +0.026 C 
ATOM      7  C   UNL     1      34.424 -22.061 -18.839  0.00  0.00    +0.132 C 
ATOM      8  C   UNL     1      36.553 -21.282 -17.836  0.00  0.00    +0.097 C 
ATOM      9  C   UNL     1      34.648 -22.057 -16.365  0.00  0.00    +0.405 C 
ENDROOT
BRANCH   9  10
ATOM     10  O   UNL     1      35.524 -21.800 -15.343  0.00  0.00    -0.430 OA
BRANCH  10  11
ATOM     11  C   UNL     1      35.486 -22.707 -14.236  0.00  0.00    +0.237 C 
BRANCH  11  12
ATOM     12  C   UNL     1      36.805 -23.417 -14.139  0.00  0.00    +0.021 C 
ATOM     13  C   UNL     1      36.908 -24.574 -13.374  0.00  0.00    -0.001 C 
ATOM     14  C   UNL     1      37.909 -22.912 -14.814  0.00  0.00    -0.001 C 
ATOM     15  C   UNL     1      39.247 -24.732 -13.958  0.00  0.00    -0.022 C 
ATOM     16  C   UNL     1      38.135 -25.233 -13.284  0.00  0.00    -0.004 C 
ATOM     17  C   UNL     1      39.135 -23.572 -14.724  0.00  0.00    -0.004 C 
ATOM     18  C   UNL     1      40.558 -25.438 -13.862  0.00  0.00    +0.031 C 
ENDBRANCH  11  12
ENDBRANCH  10  11
ENDBRANCH   9  10
BRANCH   4  19
ATOM     19  C   UNL     1      35.738 -19.029 -20.882  0.00  0.00    +0.100 C 
BRANCH  19  20
ATOM     20  N   UNL     1      35.541 -17.886 -20.032  0.00  0.00    -0.278 N 
ATOM     21  N   UNL     1      35.155 -15.615 -19.581  0.00  0.00    -0.181 NA
ATOM     22  N   UNL     1      35.302 -16.420 -21.848  0.00  0.00    -0.203 NA
ATOM     23  C   UNL     1      35.326 -16.598 -20.502  0.00  0.00    +0.087 C 
ATOM     24  C   UNL     1      34.947 -14.377 -20.074  0.00  0.00    +0.108 C 
ATOM     25  C   UNL     1      35.090 -15.157 -22.272  0.00  0.00    +0.165 C 
ATOM     26  C   UNL     1      34.904 -14.085 -21.422  0.00  0.00    +0.022 C 
ATOM     27  H   UNL     1      35.560 -18.025 -19.056  0.00  0.00    +0.158 HD
ENDBRANCH  19  20
ENDBRANCH   4  19
TORSDOF 5
ENDMDL
MODEL 8
REMARK VINA RESULT:     -10.1      4.332      7.132
REMARK  Name = 11394238
REMARK  5 active torsions:
REMARK  status: ('A' for Active; 'I' for Inactive)
REMARK    1  A    between atoms: C_4  and  C_19
REMARK    2  A    between atoms: C_9  and  O_10
REMARK    3  A    between atoms: O_10  and  C_11
REMARK    4  A    between atoms: C_11  and  C_12
REMARK    5  A    between atoms: C_19  and  N_20
REMARK                            x       y       z     vdW  Elec       q    Type
REMARK                         _______ _______ _______ _____ _____    ______ ____
ROOT
ATOM      1  F   UNL     1      34.238 -18.090 -19.764  0.00  0.00    -0.235 F 
ATOM      2  O   UNL     1      32.955 -21.327 -17.903  0.00  0.00    -0.226 OA
ATOM      3  N   UNL     1      34.816 -20.866 -19.217  0.00  0.00    -0.243 N 
ATOM      4  C   UNL     1      36.047 -18.954 -21.013  0.00  0.00    +0.056 C 
ATOM      5  C   UNL     1      34.534 -18.968 -20.766  0.00  0.00    +0.182 C 
ATOM      6  C   UNL     1      36.793 -19.510 -19.790  0.00  0.00    +0.026 C 
ATOM      7  C   UNL     1      34.037 -20.346 -20.342  0.00  0.00    +0.132 C 
ATOM      8  C   UNL     1      36.269 -20.893 -19.412  0.00  0.00    +0.097 C 
ATOM      9  C   UNL     1      34.172 -21.348 -18.073  0.00  0.00    +0.405 C 
ENDROOT
BRANCH   9  10
ATOM     10  O   UNL     1      35.047 -21.853 -17.147  0.00  0.00    -0.430 OA
BRANCH  10  11
ATOM     11  C   UNL     1      34.462 -22.535 -16.032  0.00  0.00    +0.237 C 
BRANCH  11  12
ATOM     12  C   UNL     1      35.555 -23.005 -15.117  0.00  0.00    +0.021 C 
ATOM     13  C   UNL     1      36.845 -22.513 -15.278  0.00  0.00    -0.001 C 
ATOM     14  C   UNL     1      35.267 -23.928 -14.119  0.00  0.00    -0.001 C 
ATOM     15  C   UNL     1      37.580 -23.877 -13.424  0.00  0.00    -0.022 C 
ATOM     16  C   UNL     1      37.861 -22.951 -14.428  0.00  0.00    -0.004 C 
ATOM     17  C   UNL     1      36.283 -24.365 -13.269  0.00  0.00    -0.004 C 
ATOM     18  C   UNL     1      38.666 -24.343 -12.515  0.00  0.00    +0.031 C 
ENDBRANCH  11  12
ENDBRANCH  10  11
ENDBRANCH   9  10
BRANCH   4  19
ATOM     19  C   UNL     1      36.536 -17.546 -21.347  0.00  0.00    +0.100 C 
BRANCH  19  20
ATOM     20  N   UNL     1      35.941 -17.104 -22.580  0.00  0.00    -0.278 N 
ATOM     21  N   UNL     1      34.742 -15.621 -23.948  0.00  0.00    -0.181 NA
ATOM     22  N   UNL     1      35.136 -15.118 -21.624  0.00  0.00    -0.203 NA
ATOM     23  C   UNL     1      35.250 -15.909 -22.722  0.00  0.00    +0.087 C 
ATOM     24  C   UNL     1      34.078 -14.452 -24.049  0.00  0.00    +0.108 C 
ATOM     25  C   UNL     1      34.459 -13.964 -21.797  0.00  0.00    +0.165 C 
ATOM     26  C   UNL     1      33.903 -13.575 -22.998  0.00  0.00    +0.022 C 
ATOM     27  H   UNL     1      36.029 -17.684 -23.372  0.00  0.00    +0.158 HD
ENDBRANCH  19  20
ENDBRANCH   4  19
TORSDOF 5
ENDMDL
MODEL 9
REMARK VINA RESULT:      -9.7      3.031      9.622
REMARK  Name = 11394238
REMARK  5 active torsions:
REMARK  status: ('A' for Active; 'I' for Inactive)
REMARK    1  A    between atoms: C_4  and  C_19
REMARK    2  A    between atoms: C_9  and  O_10
REMARK    3  A    between atoms: O_10  and  C_11
REMARK    4  A    between atoms: C_11  and  C_12
REMARK    5  A    between atoms: C_19  and  N_20
REMARK                            x       y       z     vdW  Elec       q    Type
REMARK                         _______ _______ _______ _____ _____    ______ ____
ROOT
ATOM      1  F   UNL     1      35.488 -15.106 -25.175  0.00  0.00    -0.235 F 
ATOM      2  O   UNL     1      33.890 -11.579 -25.947  0.00  0.00    -0.226 OA
ATOM      3  N   UNL     1      33.869 -12.976 -24.090  0.00  0.00    -0.243 N 
ATOM      4  C   UNL     1      34.496 -15.624 -23.095  0.00  0.00    +0.056 C 
ATOM      5  C   UNL     1      34.281 -15.355 -24.589  0.00  0.00    +0.182 C 
ATOM      6  C   UNL     1      35.003 -14.356 -22.392  0.00  0.00    +0.026 C 
ATOM      7  C   UNL     1      33.386 -14.144 -24.829  0.00  0.00    +0.132 C 
ATOM      8  C   UNL     1      34.070 -13.176 -22.651  0.00  0.00    +0.097 C 
ATOM      9  C   UNL     1      34.056 -11.753 -24.742  0.00  0.00    +0.405 C 
ENDROOT
BRANCH   9  10
ATOM     10  O   UNL     1      34.450 -10.754 -23.890  0.00  0.00    -0.430 OA
BRANCH  10  11
ATOM     11  C   UNL     1      33.942  -9.446 -24.174  0.00  0.00    +0.237 C 
BRANCH  11  12
ATOM     12  C   UNL     1      33.533  -8.790 -22.888  0.00  0.00    +0.021 C 
ATOM     13  C   UNL     1      34.098  -7.573 -22.527  0.00  0.00    -0.001 C 
ATOM     14  C   UNL     1      32.593  -9.407 -22.069  0.00  0.00    -0.001 C 
ATOM     15  C   UNL     1      32.777  -7.575 -20.504  0.00  0.00    -0.022 C 
ATOM     16  C   UNL     1      33.718  -6.963 -21.330  0.00  0.00    -0.004 C 
ATOM     17  C   UNL     1      32.213  -8.796 -20.873  0.00  0.00    -0.004 C 
ATOM     18  C   UNL     1      32.370  -6.923 -19.226  0.00  0.00    +0.031 C 
ENDBRANCH  11  12
ENDBRANCH  10  11
ENDBRANCH   9  10
BRANCH   4  19
ATOM     19  C   UNL     1      35.466 -16.784 -22.880  0.00  0.00    +0.100 C 
BRANCH  19  20
ATOM     20  N   UNL     1      34.794 -17.862 -22.205  0.00  0.00    -0.278 N 
ATOM     21  N   UNL     1      34.614 -19.607 -20.645  0.00  0.00    -0.181 NA
ATOM     22  N   UNL     1      36.640 -18.316 -20.829  0.00  0.00    -0.203 NA
ATOM     23  C   UNL     1      35.368 -18.620 -21.193  0.00  0.00    +0.087 C 
ATOM     24  C   UNL     1      35.203 -20.322 -19.666  0.00  0.00    +0.108 C 
ATOM     25  C   UNL     1      37.168 -19.071 -19.844  0.00  0.00    +0.165 C 
ATOM     26  C   UNL     1      36.489 -20.098 -19.219  0.00  0.00    +0.022 C 
ATOM     27  H   UNL     1      33.871 -18.075 -22.475  0.00  0.00    +0.158 HD
ENDBRANCH  19  20
ENDBRANCH   4  19
TORSDOF 5
ENDMDL
