MODEL 1
REMARK VINA RESULT:     -12.1      0.000      0.000
REMARK  Name = 54726191
REMARK  4 active torsions:
REMARK  status: ('A' for Active; 'I' for Inactive)
REMARK    1  A    between atoms: C_15  and  O_31
REMARK    2  A    between atoms: C_16  and  C_20
REMARK    3  A    between atoms: N_19  and  C_22
REMARK    4  A    between atoms: C_22  and  C_25
REMARK                            x       y       z     vdW  Elec       q    Type
REMARK                         _______ _______ _______ _____ _____    ______ ____
ROOT
ATOM      1  O   UNL     1      37.294 -22.285 -14.958  0.00  0.00    -0.336 OA
ATOM      2  O   UNL     1      33.478 -23.074 -17.581  0.00  0.00    -0.268 OA
ATOM      3  O   UNL     1      33.808 -19.343 -21.029  0.00  0.00    -0.283 OA
ATOM      4  N   UNL     1      35.213 -22.540 -16.144  0.00  0.00    -0.253 N 
ATOM      5  N   UNL     1      36.214 -20.776 -18.100  0.00  0.00    -0.275 N 
ATOM      6  C   UNL     1      36.348 -21.663 -15.836  0.00  0.00    +0.215 C 
ATOM      7  C   UNL     1      34.644 -23.347 -15.050  0.00  0.00    +0.080 C 
ATOM      8  C   UNL     1      35.735 -23.883 -14.122  0.00  0.00    +0.052 C 
ATOM      9  C   UNL     1      37.119 -21.330 -17.103  0.00  0.00    +0.147 C 
ATOM     10  C   UNL     1      36.717 -22.786 -13.760  0.00  0.00    +0.146 C 
ATOM     11  C   UNL     1      34.466 -22.387 -17.321  0.00  0.00    +0.267 C 
ATOM     12  C   UNL     1      34.929 -21.301 -18.264  0.00  0.00    +0.143 C 
ATOM     13  C   UNL     1      33.591 -22.541 -14.279  0.00  0.00    +0.022 C 
ATOM     14  C   UNL     1      36.652 -19.787 -18.969  0.00  0.00    +0.074 C 
ATOM     15  C   UNL     1      34.081 -20.862 -19.220  0.00  0.00    +0.191 C 
ATOM     16  C   UNL     1      35.922 -19.260 -19.960  0.00  0.00    +0.110 C 
ATOM     17  C   UNL     1      34.543 -19.779 -20.148  0.00  0.00    +0.236 C 
ENDROOT
BRANCH  16  20
ATOM     18  O   UNL     1      37.714 -18.247 -21.091  0.00  0.00    -0.270 OA
ATOM     19  N   UNL     1      35.609 -17.247 -21.182  0.00  0.00    -0.297 N 
ATOM     20  C   UNL     1      36.519 -18.217 -20.794  0.00  0.00    +0.251 C 
ATOM     21  H   UNL     1      34.676 -17.334 -20.879  0.00  0.00    +0.150 HD
BRANCH  19  22
ATOM     22  C   UNL     1      35.958 -16.113 -22.008  0.00  0.00    +0.119 C 
BRANCH  22  25
ATOM     23  F   UNL     1      35.182 -15.034 -19.510  0.00  0.00    -0.204 F 
ATOM     24  F   UNL     1      32.243 -11.912 -21.510  0.00  0.00    -0.204 F 
ATOM     25  C   UNL     1      34.968 -14.994 -21.874  0.00  0.00    +0.025 C 
ATOM     26  C   UNL     1      34.629 -14.507 -20.611  0.00  0.00    +0.140 C 
ATOM     27  C   UNL     1      34.387 -14.438 -23.014  0.00  0.00    +0.002 C 
ATOM     28  C   UNL     1      33.708 -13.466 -20.488  0.00  0.00    +0.059 C 
ATOM     29  C   UNL     1      33.466 -13.397 -22.891  0.00  0.00    +0.030 C 
ATOM     30  C   UNL     1      33.126 -12.911 -21.629  0.00  0.00    +0.142 C 
ENDBRANCH  22  25
ENDBRANCH  19  22
ENDBRANCH  16  20
BRANCH  15  31
ATOM     31  O   UNL     1      32.800 -21.336 -19.395  0.00  0.00    -0.502 OA
ATOM     32  H   UNL     1      32.648 -22.091 -19.929  0.00  0.00    +0.292 HD
ENDBRANCH  15  31
TORSDOF 4
ENDMDL
MODEL 2
REMARK VINA RESULT:     -11.6      4.006     10.008
REMARK  Name = 54726191
REMARK  4 active torsions:
REMARK  status: ('A' for Active; 'I' for Inactive)
REMARK    1  A    between atoms: C_15  and  O_31
REMARK    2  A    between atoms: C_16  and  C_20
REMARK    3  A    between atoms: N_19  and  C_22
REMARK    4  A    between atoms: C_22  and  C_25
REMARK                            x       y       z     vdW  Elec       q    Type
REMARK                         _______ _______ _______ _____ _____    ______ ____
ROOT
ATOM      1  O   UNL     1      34.094 -10.191 -22.652  0.00  0.00    -0.336 OA
ATOM      2  O   UNL     1      33.253 -13.550 -25.826  0.00  0.00    -0.268 OA
ATOM      3  O   UNL     1      35.238 -17.645 -23.545  0.00  0.00    -0.283 OA
ATOM      4  N   UNL     1      33.885 -11.855 -24.381  0.00  0.00    -0.253 N 
ATOM      5  N   UNL     1      34.511 -13.810 -22.453  0.00  0.00    -0.275 N 
ATOM      6  C   UNL     1      34.535 -11.470 -23.124  0.00  0.00    +0.215 C 
ATOM      7  C   UNL     1      33.698 -10.817 -25.411  0.00  0.00    +0.080 C 
ATOM      8  C   UNL     1      33.321  -9.472 -24.789  0.00  0.00    +0.052 C 
ATOM      9  C   UNL     1      34.186 -12.458 -22.023  0.00  0.00    +0.147 C 
ATOM     10  C   UNL     1      34.223  -9.152 -23.613  0.00  0.00    +0.146 C 
ATOM     11  C   UNL     1      33.748 -13.199 -24.755  0.00  0.00    +0.267 C 
ATOM     12  C   UNL     1      34.266 -14.218 -23.767  0.00  0.00    +0.143 C 
ATOM     13  C   UNL     1      34.948 -10.702 -26.291  0.00  0.00    +0.022 C 
ATOM     14  C   UNL     1      34.976 -14.743 -21.536  0.00  0.00    +0.074 C 
ATOM     15  C   UNL     1      34.491 -15.482 -24.190  0.00  0.00    +0.191 C 
ATOM     16  C   UNL     1      35.241 -16.025 -21.814  0.00  0.00    +0.110 C 
ATOM     17  C   UNL     1      35.012 -16.487 -23.208  0.00  0.00    +0.236 C 
ENDROOT
BRANCH  16  20
ATOM     18  O   UNL     1      35.755 -16.503 -19.573  0.00  0.00    -0.270 OA
ATOM     19  N   UNL     1      36.142 -18.134 -21.194  0.00  0.00    -0.297 N 
ATOM     20  C   UNL     1      35.731 -16.890 -20.742  0.00  0.00    +0.251 C 
ATOM     21  H   UNL     1      36.074 -18.326 -22.157  0.00  0.00    +0.150 HD
BRANCH  19  22
ATOM     22  C   UNL     1      36.667 -19.163 -20.325  0.00  0.00    +0.119 C 
BRANCH  22  25
ATOM     23  F   UNL     1      37.167 -21.035 -18.262  0.00  0.00    -0.204 F 
ATOM     24  F   UNL     1      32.568 -22.002 -17.709  0.00  0.00    -0.204 F 
ATOM     25  C   UNL     1      35.575 -19.921 -19.627  0.00  0.00    +0.025 C 
ATOM     26  C   UNL     1      35.891 -20.830 -18.617  0.00  0.00    +0.140 C 
ATOM     27  C   UNL     1      34.244 -19.714 -19.989  0.00  0.00    +0.002 C 
ATOM     28  C   UNL     1      34.875 -21.533 -17.969  0.00  0.00    +0.059 C 
ATOM     29  C   UNL     1      33.228 -20.417 -19.340  0.00  0.00    +0.030 C 
ATOM     30  C   UNL     1      33.543 -21.327 -18.331  0.00  0.00    +0.142 C 
ENDBRANCH  22  25
ENDBRANCH  19  22
ENDBRANCH  16  20
BRANCH  15  31
ATOM     31  O   UNL     1      34.286 -15.913 -25.482  0.00  0.00    -0.502 OA
ATOM     32  H   UNL     1      33.700 -15.446 -26.044  0.00  0.00    +0.292 HD
ENDBRANCH  15  31
TORSDOF 4
ENDMDL
MODEL 3
REMARK VINA RESULT:     -11.6      3.361      5.026
REMARK  Name = 54726191
REMARK  4 active torsions:
REMARK  status: ('A' for Active; 'I' for Inactive)
REMARK    1  A    between atoms: C_15  and  O_31
REMARK    2  A    between atoms: C_16  and  C_20
REMARK    3  A    between atoms: N_19  and  C_22
REMARK    4  A    between atoms: C_22  and  C_25
REMARK                            x       y       z     vdW  Elec       q    Type
REMARK                         _______ _______ _______ _____ _____    ______ ____
ROOT
ATOM      1  O   UNL     1      38.094 -24.080 -13.256  0.00  0.00    -0.336 OA
ATOM      2  O   UNL     1      33.501 -24.064 -12.274  0.00  0.00    -0.268 OA
ATOM      3  O   UNL     1      31.554 -21.960 -16.481  0.00  0.00    -0.283 OA
ATOM      4  N   UNL     1      35.775 -23.845 -12.649  0.00  0.00    -0.253 N 
ATOM      5  N   UNL     1      35.217 -23.277 -15.351  0.00  0.00    -0.275 N 
ATOM      6  C   UNL     1      36.852 -23.431 -13.554  0.00  0.00    +0.215 C 
ATOM      7  C   UNL     1      36.094 -24.004 -11.219  0.00  0.00    +0.080 C 
ATOM      8  C   UNL     1      37.479 -24.620 -11.017  0.00  0.00    +0.052 C 
ATOM      9  C   UNL     1      36.519 -23.815 -14.986  0.00  0.00    +0.147 C 
ATOM     10  C   UNL     1      38.503 -23.937 -11.902  0.00  0.00    +0.146 C 
ATOM     11  C   UNL     1      34.428 -23.771 -13.029  0.00  0.00    +0.267 C 
ATOM     12  C   UNL     1      34.162 -23.283 -14.435  0.00  0.00    +0.143 C 
ATOM     13  C   UNL     1      35.959 -22.663 -10.486  0.00  0.00    +0.022 C 
ATOM     14  C   UNL     1      34.978 -22.841 -16.647  0.00  0.00    +0.074 C 
ATOM     15  C   UNL     1      32.920 -22.855 -14.752  0.00  0.00    +0.191 C 
ATOM     16  C   UNL     1      33.801 -22.392 -17.100  0.00  0.00    +0.110 C 
ATOM     17  C   UNL     1      32.663 -22.365 -16.145  0.00  0.00    +0.236 C 
ENDROOT
BRANCH  16  20
ATOM     18  O   UNL     1      33.777 -22.774 -19.417  0.00  0.00    -0.270 OA
ATOM     19  N   UNL     1      33.526 -20.594 -18.628  0.00  0.00    -0.297 N 
ATOM     20  C   UNL     1      33.703 -21.962 -18.494  0.00  0.00    +0.251 C 
ATOM     21  H   UNL     1      33.482 -20.047 -17.810  0.00  0.00    +0.150 HD
BRANCH  19  22
ATOM     22  C   UNL     1      33.403 -19.928 -19.905  0.00  0.00    +0.119 C 
BRANCH  22  25
ATOM     23  F   UNL     1      33.722 -18.655 -22.411  0.00  0.00    -0.204 F 
ATOM     24  F   UNL     1      38.322 -17.833 -21.669  0.00  0.00    -0.204 F 
ATOM     25  C   UNL     1      34.713 -19.369 -20.377  0.00  0.00    +0.025 C 
ATOM     26  C   UNL     1      34.802 -18.753 -21.625  0.00  0.00    +0.140 C 
ATOM     27  C   UNL     1      35.843 -19.466 -19.564  0.00  0.00    +0.002 C 
ATOM     28  C   UNL     1      36.021 -18.234 -22.062  0.00  0.00    +0.059 C 
ATOM     29  C   UNL     1      37.063 -18.947 -20.002  0.00  0.00    +0.030 C 
ATOM     30  C   UNL     1      37.152 -18.331 -21.250  0.00  0.00    +0.142 C 
ENDBRANCH  22  25
ENDBRANCH  19  22
ENDBRANCH  16  20
BRANCH  15  31
ATOM     31  O   UNL     1      31.863 -22.822 -13.870  0.00  0.00    -0.502 OA
ATOM     32  H   UNL     1      31.554 -23.616 -13.479  0.00  0.00    +0.292 HD
ENDBRANCH  15  31
TORSDOF 4
ENDMDL
MODEL 4
REMARK VINA RESULT:     -11.3      1.761      2.214
REMARK  Name = 54726191
REMARK  4 active torsions:
REMARK  status: ('A' for Active; 'I' for Inactive)
REMARK    1  A    between atoms: C_15  and  O_31
REMARK    2  A    between atoms: C_16  and  C_20
REMARK    3  A    between atoms: N_19  and  C_22
REMARK    4  A    between atoms: C_22  and  C_25
REMARK                            x       y       z     vdW  Elec       q    Type
REMARK                         _______ _______ _______ _____ _____    ______ ____
ROOT
ATOM      1  O   UNL     1      37.537 -22.526 -14.261  0.00  0.00    -0.336 OA
ATOM      2  O   UNL     1      33.686 -23.445 -16.789  0.00  0.00    -0.268 OA
ATOM      3  O   UNL     1      33.914 -19.830 -20.366  0.00  0.00    -0.283 OA
ATOM      4  N   UNL     1      35.439 -22.843 -15.401  0.00  0.00    -0.253 N 
ATOM      5  N   UNL     1      36.386 -21.137 -17.433  0.00  0.00    -0.275 N 
ATOM      6  C   UNL     1      36.569 -21.945 -15.143  0.00  0.00    +0.215 C 
ATOM      7  C   UNL     1      34.898 -23.619 -14.271  0.00  0.00    +0.080 C 
ATOM      8  C   UNL     1      36.010 -24.111 -13.344  0.00  0.00    +0.052 C 
ATOM      9  C   UNL     1      37.314 -21.646 -16.433  0.00  0.00    +0.147 C 
ATOM     10  C   UNL     1      36.985 -22.992 -13.036  0.00  0.00    +0.146 C 
ATOM     11  C   UNL     1      34.670 -22.739 -16.569  0.00  0.00    +0.267 C 
ATOM     12  C   UNL     1      35.105 -21.681 -17.556  0.00  0.00    +0.143 C 
ATOM     13  C   UNL     1      33.849 -22.799 -13.509  0.00  0.00    +0.022 C 
ATOM     14  C   UNL     1      36.798 -20.173 -18.342  0.00  0.00    +0.074 C 
ATOM     15  C   UNL     1      34.236 -21.284 -18.512  0.00  0.00    +0.191 C 
ATOM     16  C   UNL     1      36.045 -19.689 -19.338  0.00  0.00    +0.110 C 
ATOM     17  C   UNL     1      34.669 -20.229 -19.484  0.00  0.00    +0.236 C 
ENDROOT
BRANCH  16  20
ATOM     18  O   UNL     1      37.755 -18.785 -20.671  0.00  0.00    -0.270 OA
ATOM     19  N   UNL     1      35.750 -17.613 -20.456  0.00  0.00    -0.297 N 
ATOM     20  C   UNL     1      36.616 -18.668 -20.216  0.00  0.00    +0.251 C 
ATOM     21  H   UNL     1      34.861 -17.634 -20.034  0.00  0.00    +0.150 HD
BRANCH  19  22
ATOM     22  C   UNL     1      36.085 -16.482 -21.292  0.00  0.00    +0.119 C 
BRANCH  22  25
ATOM     23  F   UNL     1      35.257 -14.081 -22.538  0.00  0.00    -0.204 F 
ATOM     24  F   UNL     1      33.033 -16.383 -26.022  0.00  0.00    -0.204 F 
ATOM     25  C   UNL     1      35.271 -16.454 -22.553  0.00  0.00    +0.025 C 
ATOM     26  C   UNL     1      34.896 -15.234 -23.116  0.00  0.00    +0.140 C 
ATOM     27  C   UNL     1      34.891 -17.650 -23.162  0.00  0.00    +0.002 C 
ATOM     28  C   UNL     1      34.140 -15.210 -24.288  0.00  0.00    +0.059 C 
ATOM     29  C   UNL     1      34.134 -17.626 -24.334  0.00  0.00    +0.030 C 
ATOM     30  C   UNL     1      33.758 -16.406 -24.897  0.00  0.00    +0.142 C 
ENDBRANCH  22  25
ENDBRANCH  19  22
ENDBRANCH  16  20
BRANCH  15  31
ATOM     31  O   UNL     1      32.957 -21.777 -18.648  0.00  0.00    -0.502 OA
ATOM     32  H   UNL     1      32.311 -21.283 -19.113  0.00  0.00    +0.292 HD
ENDBRANCH  15  31
TORSDOF 4
ENDMDL
MODEL 5
REMARK VINA RESULT:     -11.1      1.586      2.209
REMARK  Name = 54726191
REMARK  4 active torsions:
REMARK  status: ('A' for Active; 'I' for Inactive)
REMARK    1  A    between atoms: C_15  and  O_31
REMARK    2  A    between atoms: C_16  and  C_20
REMARK    3  A    between atoms: N_19  and  C_22
REMARK    4  A    between atoms: C_22  and  C_25
REMARK                            x       y       z     vdW  Elec       q    Type
REMARK                         _______ _______ _______ _____ _____    ______ ____
ROOT
ATOM      1  O   UNL     1      37.987 -22.680 -13.662  0.00  0.00    -0.336 OA
ATOM      2  O   UNL     1      33.870 -23.791 -15.632  0.00  0.00    -0.268 OA
ATOM      3  O   UNL     1      33.733 -20.605 -19.600  0.00  0.00    -0.283 OA
ATOM      4  N   UNL     1      35.772 -23.077 -14.522  0.00  0.00    -0.253 N 
ATOM      5  N   UNL     1      36.504 -21.629 -16.826  0.00  0.00    -0.275 N 
ATOM      6  C   UNL     1      36.933 -22.180 -14.493  0.00  0.00    +0.215 C 
ATOM      7  C   UNL     1      35.353 -23.709 -13.259  0.00  0.00    +0.080 C 
ATOM      8  C   UNL     1      36.557 -24.119 -12.409  0.00  0.00    +0.052 C 
ATOM      9  C   UNL     1      37.533 -22.044 -15.883  0.00  0.00    +0.147 C 
ATOM     10  C   UNL     1      37.571 -22.994 -12.339  0.00  0.00    +0.146 C 
ATOM     11  C   UNL     1      34.879 -23.086 -15.603  0.00  0.00    +0.267 C 
ATOM     12  C   UNL     1      35.212 -22.155 -16.746  0.00  0.00    +0.143 C 
ATOM     13  C   UNL     1      34.404 -22.786 -12.485  0.00  0.00    +0.022 C 
ATOM     14  C   UNL     1      36.821 -20.782 -17.879  0.00  0.00    +0.074 C 
ATOM     15  C   UNL     1      34.245 -21.849 -17.640  0.00  0.00    +0.191 C 
ATOM     16  C   UNL     1      35.967 -20.396 -18.834  0.00  0.00    +0.110 C 
ATOM     17  C   UNL     1      34.578 -20.918 -18.767  0.00  0.00    +0.236 C 
ENDROOT
BRANCH  16  20
ATOM     18  O   UNL     1      37.609 -19.086 -19.886  0.00  0.00    -0.270 OA
ATOM     19  N   UNL     1      35.470 -19.176 -20.812  0.00  0.00    -0.297 N 
ATOM     20  C   UNL     1      36.446 -19.493 -19.880  0.00  0.00    +0.251 C 
ATOM     21  H   UNL     1      34.573 -19.566 -20.698  0.00  0.00    +0.150 HD
BRANCH  19  22
ATOM     22  C   UNL     1      35.699 -18.301 -21.939  0.00  0.00    +0.119 C 
BRANCH  22  25
ATOM     23  F   UNL     1      35.365 -16.307 -23.918  0.00  0.00    -0.204 F 
ATOM     24  F   UNL     1      34.538 -12.931 -20.708  0.00  0.00    -0.204 F 
ATOM     25  C   UNL     1      35.390 -16.869 -21.612  0.00  0.00    +0.025 C 
ATOM     26  C   UNL     1      35.237 -15.935 -22.638  0.00  0.00    +0.140 C 
ATOM     27  C   UNL     1      35.254 -16.473 -20.282  0.00  0.00    +0.002 C 
ATOM     28  C   UNL     1      34.949 -14.605 -22.331  0.00  0.00    +0.059 C 
ATOM     29  C   UNL     1      34.966 -15.143 -19.976  0.00  0.00    +0.030 C 
ATOM     30  C   UNL     1      34.814 -14.208 -21.001  0.00  0.00    +0.142 C 
ENDBRANCH  22  25
ENDBRANCH  19  22
ENDBRANCH  16  20
BRANCH  15  31
ATOM     31  O   UNL     1      32.955 -22.326 -17.578  0.00  0.00    -0.502 OA
ATOM     32  H   UNL     1      32.302 -21.849 -17.105  0.00  0.00    +0.292 HD
ENDBRANCH  15  31
TORSDOF 4
ENDMDL
MODEL 6
REMARK VINA RESULT:     -10.7      5.163      8.664
REMARK  Name = 54726191
REMARK  4 active torsions:
REMARK  status: ('A' for Active; 'I' for Inactive)
REMARK    1  A    between atoms: C_15  and  O_31
REMARK    2  A    between atoms: C_16  and  C_20
REMARK    3  A    between atoms: N_19  and  C_22
REMARK    4  A    between atoms: C_22  and  C_25
REMARK                            x       y       z     vdW  Elec       q    Type
REMARK                         _______ _______ _______ _____ _____    ______ ____
ROOT
ATOM      1  O   UNL     1      35.703 -17.139 -19.869  0.00  0.00    -0.336 OA
ATOM      2  O   UNL     1      35.352 -14.739 -23.892  0.00  0.00    -0.268 OA
ATOM      3  O   UNL     1      32.280 -10.910 -22.544  0.00  0.00    -0.283 OA
ATOM      4  N   UNL     1      35.326 -16.055 -21.987  0.00  0.00    -0.253 N 
ATOM      5  N   UNL     1      34.195 -13.893 -20.578  0.00  0.00    -0.275 N 
ATOM      6  C   UNL     1      34.872 -16.232 -20.603  0.00  0.00    +0.215 C 
ATOM      7  C   UNL     1      35.788 -17.246 -22.722  0.00  0.00    +0.080 C 
ATOM      8  C   UNL     1      36.584 -18.189 -21.820  0.00  0.00    +0.052 C 
ATOM      9  C   UNL     1      34.937 -14.913 -19.852  0.00  0.00    +0.147 C 
ATOM     10  C   UNL     1      35.867 -18.402 -20.501  0.00  0.00    +0.146 C 
ATOM     11  C   UNL     1      35.028 -14.894 -22.714  0.00  0.00    +0.267 C 
ATOM     12  C   UNL     1      34.255 -13.827 -21.973  0.00  0.00    +0.143 C 
ATOM     13  C   UNL     1      34.605 -17.962 -23.384  0.00  0.00    +0.022 C 
ATOM     14  C   UNL     1      33.497 -12.911 -19.889  0.00  0.00    +0.074 C 
ATOM     15  C   UNL     1      33.636 -12.858 -22.683  0.00  0.00    +0.191 C 
ATOM     16  C   UNL     1      32.840 -11.895 -20.461  0.00  0.00    +0.110 C 
ATOM     17  C   UNL     1      32.865 -11.807 -21.944  0.00  0.00    +0.236 C 
ENDROOT
BRANCH  16  20
ATOM     18  O   UNL     1      31.215 -11.293 -18.875  0.00  0.00    -0.270 OA
ATOM     19  N   UNL     1      32.643  -9.649 -19.710  0.00  0.00    -0.297 N 
ATOM     20  C   UNL     1      32.144 -10.937 -19.602  0.00  0.00    +0.251 C 
ATOM     21  H   UNL     1      33.391  -9.490 -20.329  0.00  0.00    +0.150 HD
BRANCH  19  22
ATOM     22  C   UNL     1      32.121  -8.527 -18.963  0.00  0.00    +0.119 C 
BRANCH  22  25
ATOM     23  F   UNL     1      32.207  -5.961 -17.775  0.00  0.00    -0.204 F 
ATOM     24  F   UNL     1      32.225  -3.766 -21.967  0.00  0.00    -0.204 F 
ATOM     25  C   UNL     1      32.148  -7.257 -19.763  0.00  0.00    +0.025 C 
ATOM     26  C   UNL     1      32.191  -6.023 -19.113  0.00  0.00    +0.140 C 
ATOM     27  C   UNL     1      32.132  -7.312 -21.157  0.00  0.00    +0.002 C 
ATOM     28  C   UNL     1      32.216  -4.844 -19.859  0.00  0.00    +0.059 C 
ATOM     29  C   UNL     1      32.158  -6.132 -21.901  0.00  0.00    +0.030 C 
ATOM     30  C   UNL     1      32.200  -4.898 -21.253  0.00  0.00    +0.142 C 
ENDBRANCH  22  25
ENDBRANCH  19  22
ENDBRANCH  16  20
BRANCH  15  31
ATOM     31  O   UNL     1      33.652 -12.777 -24.058  0.00  0.00    -0.502 OA
ATOM     32  H   UNL     1      33.309 -13.480 -24.573  0.00  0.00    +0.292 HD
ENDBRANCH  15  31
TORSDOF 4
ENDMDL
MODEL 7
REMARK VINA RESULT:     -10.3      5.030      8.617
REMARK  Name = 54726191
REMARK  4 active torsions:
REMARK  status: ('A' for Active; 'I' for Inactive)
REMARK    1  A    between atoms: C_15  and  O_31
REMARK    2  A    between atoms: C_16  and  C_20
REMARK    3  A    between atoms: N_19  and  C_22
REMARK    4  A    between atoms: C_22  and  C_25
REMARK                            x       y       z     vdW  Elec       q    Type
REMARK                         _______ _______ _______ _____ _____    ______ ____
ROOT
ATOM      1  O   UNL     1      35.790 -17.174 -19.895  0.00  0.00    -0.336 OA
ATOM      2  O   UNL     1      35.330 -14.709 -23.868  0.00  0.00    -0.268 OA
ATOM      3  O   UNL     1      32.198 -10.972 -22.407  0.00  0.00    -0.283 OA
ATOM      4  N   UNL     1      35.360 -16.060 -21.987  0.00  0.00    -0.253 N 
ATOM      5  N   UNL     1      34.203 -13.949 -20.523  0.00  0.00    -0.275 N 
ATOM      6  C   UNL     1      34.930 -16.271 -20.601  0.00  0.00    +0.215 C 
ATOM      7  C   UNL     1      35.837 -17.227 -22.751  0.00  0.00    +0.080 C 
ATOM      8  C   UNL     1      36.665 -18.169 -21.877  0.00  0.00    +0.052 C 
ATOM      9  C   UNL     1      34.977 -14.965 -19.826  0.00  0.00    +0.147 C 
ATOM     10  C   UNL     1      35.972 -18.421 -20.552  0.00  0.00    +0.146 C 
ATOM     11  C   UNL     1      35.027 -14.892 -22.689  0.00  0.00    +0.267 C 
ATOM     12  C   UNL     1      34.243 -13.856 -21.917  0.00  0.00    +0.143 C 
ATOM     13  C   UNL     1      34.659 -17.956 -23.409  0.00  0.00    +0.022 C 
ATOM     14  C   UNL     1      33.495 -12.994 -19.807  0.00  0.00    +0.074 C 
ATOM     15  C   UNL     1      33.593 -12.888 -22.601  0.00  0.00    +0.191 C 
ATOM     16  C   UNL     1      32.808 -11.982 -20.350  0.00  0.00    +0.110 C 
ATOM     17  C   UNL     1      32.810 -11.867 -21.832  0.00  0.00    +0.236 C 
ENDROOT
BRANCH  16  20
ATOM     18  O   UNL     1      31.237 -11.454 -18.686  0.00  0.00    -0.270 OA
ATOM     19  N   UNL     1      32.523  -9.742 -19.610  0.00  0.00    -0.297 N 
ATOM     20  C   UNL     1      32.105 -11.055 -19.464  0.00  0.00    +0.251 C 
ATOM     21  H   UNL     1      33.228  -9.548 -20.269  0.00  0.00    +0.150 HD
BRANCH  19  22
ATOM     22  C   UNL     1      31.978  -8.643 -18.846  0.00  0.00    +0.119 C 
BRANCH  22  25
ATOM     23  F   UNL     1      31.694  -8.400 -21.651  0.00  0.00    -0.204 F 
ATOM     24  F   UNL     1      32.471  -3.733 -21.558  0.00  0.00    -0.204 F 
ATOM     25  C   UNL     1      32.109  -7.335 -19.571  0.00  0.00    +0.025 C 
ATOM     26  C   UNL     1      31.957  -7.285 -20.957  0.00  0.00    +0.140 C 
ATOM     27  C   UNL     1      32.382  -6.169 -18.856  0.00  0.00    +0.002 C 
ATOM     28  C   UNL     1      32.080  -6.068 -21.628  0.00  0.00    +0.059 C 
ATOM     29  C   UNL     1      32.504  -4.952 -19.528  0.00  0.00    +0.030 C 
ATOM     30  C   UNL     1      32.354  -4.901 -20.914  0.00  0.00    +0.142 C 
ENDBRANCH  22  25
ENDBRANCH  19  22
ENDBRANCH  16  20
BRANCH  15  31
ATOM     31  O   UNL     1      33.588 -12.781 -23.974  0.00  0.00    -0.502 OA
ATOM     32  H   UNL     1      34.395 -12.693 -24.440  0.00  0.00    +0.292 HD
ENDBRANCH  15  31
TORSDOF 4
ENDMDL
MODEL 8
REMARK VINA RESULT:     -10.2      5.901     11.780
REMARK  Name = 54726191
REMARK  4 active torsions:
REMARK  status: ('A' for Active; 'I' for Inactive)
REMARK    1  A    between atoms: C_15  and  O_31
REMARK    2  A    between atoms: C_16  and  C_20
REMARK    3  A    between atoms: N_19  and  C_22
REMARK    4  A    between atoms: C_22  and  C_25
REMARK                            x       y       z     vdW  Elec       q    Type
REMARK                         _______ _______ _______ _____ _____    ______ ____
ROOT
ATOM      1  O   UNL     1      33.762  -6.601 -24.240  0.00  0.00    -0.336 OA
ATOM      2  O   UNL     1      32.367  -8.432 -20.145  0.00  0.00    -0.268 OA
ATOM      3  O   UNL     1      32.328 -13.412 -21.202  0.00  0.00    -0.283 OA
ATOM      4  N   UNL     1      32.810  -7.515 -22.224  0.00  0.00    -0.253 N 
ATOM      5  N   UNL     1      33.579 -10.071 -23.125  0.00  0.00    -0.275 N 
ATOM      6  C   UNL     1      33.123  -7.735 -23.640  0.00  0.00    +0.215 C 
ATOM      7  C   UNL     1      32.288  -6.195 -21.827  0.00  0.00    +0.080 C 
ATOM      8  C   UNL     1      32.974  -5.065 -22.596  0.00  0.00    +0.052 C 
ATOM      9  C   UNL     1      34.102  -8.888 -23.793  0.00  0.00    +0.147 C 
ATOM     10  C   UNL     1      33.041  -5.388 -24.076  0.00  0.00    +0.146 C 
ATOM     11  C   UNL     1      32.678  -8.584 -21.326  0.00  0.00    +0.267 C 
ATOM     12  C   UNL     1      32.921  -9.962 -21.897  0.00  0.00    +0.143 C 
ATOM     13  C   UNL     1      30.764  -6.148 -21.993  0.00  0.00    +0.022 C 
ATOM     14  C   UNL     1      33.816 -11.334 -23.650  0.00  0.00    +0.074 C 
ATOM     15  C   UNL     1      32.479 -11.039 -21.210  0.00  0.00    +0.191 C 
ATOM     16  C   UNL     1      33.438 -12.484 -23.080  0.00  0.00    +0.110 C 
ATOM     17  C   UNL     1      32.715 -12.403 -21.784  0.00  0.00    +0.236 C 
ENDROOT
BRANCH  16  20
ATOM     18  O   UNL     1      33.134 -14.099 -24.758  0.00  0.00    -0.270 OA
ATOM     19  N   UNL     1      34.792 -14.435 -23.153  0.00  0.00    -0.297 N 
ATOM     20  C   UNL     1      33.755 -13.741 -23.756  0.00  0.00    +0.251 C 
ATOM     21  H   UNL     1      35.211 -14.043 -22.353  0.00  0.00    +0.150 HD
BRANCH  19  22
ATOM     22  C   UNL     1      35.288 -15.704 -23.635  0.00  0.00    +0.119 C 
BRANCH  22  25
ATOM     23  F   UNL     1      34.558 -18.392 -24.128  0.00  0.00    -0.204 F 
ATOM     24  F   UNL     1      35.242 -19.648 -19.618  0.00  0.00    -0.204 F 
ATOM     25  C   UNL     1      35.275 -16.756 -22.566  0.00  0.00    +0.025 C 
ATOM     26  C   UNL     1      34.904 -18.065 -22.877  0.00  0.00    +0.140 C 
ATOM     27  C   UNL     1      35.636 -16.425 -21.259  0.00  0.00    +0.002 C 
ATOM     28  C   UNL     1      34.893 -19.042 -21.880  0.00  0.00    +0.059 C 
ATOM     29  C   UNL     1      35.624 -17.402 -20.264  0.00  0.00    +0.030 C 
ATOM     30  C   UNL     1      35.253 -18.710 -20.574  0.00  0.00    +0.142 C 
ENDBRANCH  22  25
ENDBRANCH  19  22
ENDBRANCH  16  20
BRANCH  15  31
ATOM     31  O   UNL     1      31.804 -10.969 -20.012  0.00  0.00    -0.502 OA
ATOM     32  H   UNL     1      31.100 -11.561 -19.835  0.00  0.00    +0.292 HD
ENDBRANCH  15  31
TORSDOF 4
ENDMDL
MODEL 9
REMARK VINA RESULT:     -10.1      6.832     12.610
REMARK  Name = 54726191
REMARK  4 active torsions:
REMARK  status: ('A' for Active; 'I' for Inactive)
REMARK    1  A    between atoms: C_15  and  O_31
REMARK    2  A    between atoms: C_16  and  C_20
REMARK    3  A    between atoms: N_19  and  C_22
REMARK    4  A    between atoms: C_22  and  C_25
REMARK                            x       y       z     vdW  Elec       q    Type
REMARK                         _______ _______ _______ _____ _____    ______ ____
ROOT
ATOM      1  O   UNL     1      32.640  -5.144 -23.205  0.00  0.00    -0.336 OA
ATOM      2  O   UNL     1      32.425  -6.599 -18.744  0.00  0.00    -0.268 OA
ATOM      3  O   UNL     1      32.118 -11.648 -19.319  0.00  0.00    -0.283 OA
ATOM      4  N   UNL     1      32.280  -5.867 -20.936  0.00  0.00    -0.253 N 
ATOM      5  N   UNL     1      32.783  -8.504 -21.790  0.00  0.00    -0.275 N 
ATOM      6  C   UNL     1      32.195  -6.211 -22.359  0.00  0.00    +0.215 C 
ATOM      7  C   UNL     1      31.881  -4.509 -20.526  0.00  0.00    +0.080 C 
ATOM      8  C   UNL     1      32.326  -3.461 -21.547  0.00  0.00    +0.052 C 
ATOM      9  C   UNL     1      33.099  -7.392 -22.674  0.00  0.00    +0.147 C 
ATOM     10  C   UNL     1      31.987  -3.907 -22.955  0.00  0.00    +0.146 C 
ATOM     11  C   UNL     1      32.402  -6.855 -19.948  0.00  0.00    +0.267 C 
ATOM     12  C   UNL     1      32.485  -8.280 -20.443  0.00  0.00    +0.143 C 
ATOM     13  C   UNL     1      30.370  -4.446 -20.274  0.00  0.00    +0.022 C 
ATOM     14  C   UNL     1      32.873  -9.811 -22.250  0.00  0.00    +0.074 C 
ATOM     15  C   UNL     1      32.252  -9.287 -19.572  0.00  0.00    +0.191 C 
ATOM     16  C   UNL     1      32.669 -10.902 -21.501  0.00  0.00    +0.110 C 
ATOM     17  C   UNL     1      32.328 -10.699 -20.069  0.00  0.00    +0.236 C 
ENDROOT
BRANCH  16  20
ATOM     18  O   UNL     1      31.860 -13.019 -22.117  0.00  0.00    -0.270 OA
ATOM     19  N   UNL     1      34.037 -12.426 -22.705  0.00  0.00    -0.297 N 
ATOM     20  C   UNL     1      32.795 -12.217 -22.128  0.00  0.00    +0.251 C 
ATOM     21  H   UNL     1      34.705 -11.705 -22.648  0.00  0.00    +0.150 HD
BRANCH  19  22
ATOM     22  C   UNL     1      34.404 -13.648 -23.385  0.00  0.00    +0.119 C 
BRANCH  22  25
ATOM     23  F   UNL     1      35.225 -16.225 -24.216  0.00  0.00    -0.204 F 
ATOM     24  F   UNL     1      35.888 -17.702 -19.770  0.00  0.00    -0.204 F 
ATOM     25  C   UNL     1      34.800 -14.730 -22.423  0.00  0.00    +0.025 C 
ATOM     26  C   UNL     1      35.195 -15.980 -22.900  0.00  0.00    +0.140 C 
ATOM     27  C   UNL     1      34.773 -14.483 -21.050  0.00  0.00    +0.002 C 
ATOM     28  C   UNL     1      35.563 -16.984 -22.003  0.00  0.00    +0.059 C 
ATOM     29  C   UNL     1      35.140 -15.488 -20.154  0.00  0.00    +0.030 C 
ATOM     30  C   UNL     1      35.535 -16.738 -20.630  0.00  0.00    +0.142 C 
ENDBRANCH  22  25
ENDBRANCH  19  22
ENDBRANCH  16  20
BRANCH  15  31
ATOM     31  O   UNL     1      31.930  -9.104 -18.246  0.00  0.00    -0.502 OA
ATOM     32  H   UNL     1      32.438  -9.522 -17.578  0.00  0.00    +0.292 HD
ENDBRANCH  15  31
TORSDOF 4
ENDMDL
