MODEL 1
REMARK VINA RESULT:     -12.1      0.000      0.000
REMARK  Name = 135565554
REMARK  0 active torsions:
REMARK  status: ('A' for Active; 'I' for Inactive)
REMARK                            x       y       z     vdW  Elec       q    Type
REMARK                         _______ _______ _______ _____ _____    ______ ____
ROOT
ATOM      1  F   UNL     1      29.735 -23.779 -14.071  0.00  0.00    -0.204 F 
ATOM      2  O   UNL     1      32.620 -22.007 -17.692  0.00  0.00    -0.268 OA
ATOM      3  N   UNL     1      37.869 -23.588 -13.700  0.00  0.00    +0.397 N 
ATOM      4  N   UNL     1      34.339 -23.957 -12.493  0.00  0.00    -0.358 N 
ATOM      5  N   UNL     1      35.963 -22.099 -16.407  0.00  0.00    -0.185 NA
ATOM      6  N   UNL     1      34.791 -21.998 -17.075  0.00  0.00    -0.203 N 
ATOM      7  C   UNL     1      36.893 -23.702 -12.583  0.00  0.00    -0.007 C 
ATOM      8  C   UNL     1      37.219 -25.099 -12.047  0.00  0.00    -0.016 C 
ATOM      9  C   UNL     1      35.497 -23.586 -13.117  0.00  0.00    +0.017 A 
ATOM     10  C   UNL     1      38.014 -24.910 -14.325  0.00  0.00    -0.076 C 
ATOM     11  C   UNL     1      37.545 -25.920 -13.286  0.00  0.00    -0.024 C 
ATOM     12  C   UNL     1      37.603 -22.515 -14.674  0.00  0.00    -0.028 C 
ATOM     13  C   UNL     1      35.165 -23.064 -14.346  0.00  0.00    +0.024 A 
ATOM     14  C   UNL     1      37.148 -22.632 -11.516  0.00  0.00    -0.015 C 
ATOM     15  C   UNL     1      36.173 -22.561 -15.221  0.00  0.00    +0.056 C 
ATOM     16  C   UNL     1      33.784 -23.157 -14.507  0.00  0.00    +0.022 A 
ATOM     17  C   UNL     1      33.271 -23.712 -13.332  0.00  0.00    +0.059 A 
ATOM     18  C   UNL     1      32.936 -22.814 -15.554  0.00  0.00    +0.059 C 
ATOM     19  C   UNL     1      31.904 -23.936 -13.147  0.00  0.00    +0.047 C 
ATOM     20  C   UNL     1      33.455 -22.254 -16.814  0.00  0.00    +0.265 C 
ATOM     21  C   UNL     1      31.557 -23.035 -15.381  0.00  0.00    +0.034 C 
ATOM     22  C   UNL     1      31.055 -23.583 -14.198  0.00  0.00    +0.142 C 
ATOM     23  H   UNL     1      38.758 -23.291 -13.296  0.00  0.00    -0.078 HD
ATOM     24  H   UNL     1      34.277 -24.340 -11.588  0.00  0.00    +0.166 HD
ATOM     25  H   UNL     1      34.922 -21.650 -17.986  0.00  0.00    +0.178 HD
ENDROOT
TORSDOF 0
ENDMDL
MODEL 2
REMARK VINA RESULT:      -9.2      2.574      4.115
REMARK  Name = 135565554
REMARK  0 active torsions:
REMARK  status: ('A' for Active; 'I' for Inactive)
REMARK                            x       y       z     vdW  Elec       q    Type
REMARK                         _______ _______ _______ _____ _____    ______ ____
ROOT
ATOM      1  F   UNL     1      36.590 -20.190 -19.106  0.00  0.00    -0.204 F 
ATOM      2  O   UNL     1      32.496 -22.063 -17.032  0.00  0.00    -0.268 OA
ATOM      3  N   UNL     1      36.517 -24.132 -11.979  0.00  0.00    +0.397 N 
ATOM      4  N   UNL     1      37.942 -22.534 -15.057  0.00  0.00    -0.358 N 
ATOM      5  N   UNL     1      33.601 -23.833 -14.120  0.00  0.00    -0.185 NA
ATOM      6  N   UNL     1      32.986 -23.215 -15.154  0.00  0.00    -0.203 N 
ATOM      7  C   UNL     1      37.668 -23.884 -12.889  0.00  0.00    -0.007 C 
ATOM      8  C   UNL     1      38.545 -22.981 -12.018  0.00  0.00    -0.016 C 
ATOM      9  C   UNL     1      37.188 -23.212 -14.140  0.00  0.00    +0.017 A 
ATOM     10  C   UNL     1      36.266 -22.908 -11.207  0.00  0.00    -0.076 C 
ATOM     11  C   UNL     1      37.559 -22.105 -11.258  0.00  0.00    -0.024 C 
ATOM     12  C   UNL     1      35.304 -24.673 -12.616  0.00  0.00    -0.028 C 
ATOM     13  C   UNL     1      35.881 -23.187 -14.568  0.00  0.00    +0.024 A 
ATOM     14  C   UNL     1      38.394 -25.190 -13.229  0.00  0.00    -0.015 C 
ATOM     15  C   UNL     1      34.857 -23.843 -13.824  0.00  0.00    +0.056 C 
ATOM     16  C   UNL     1      35.815 -22.440 -15.743  0.00  0.00    +0.022 A 
ATOM     17  C   UNL     1      37.119 -22.041 -16.049  0.00  0.00    +0.059 A 
ATOM     18  C   UNL     1      34.755 -22.075 -16.565  0.00  0.00    +0.059 C 
ATOM     19  C   UNL     1      37.421 -21.279 -17.180  0.00  0.00    +0.047 C 
ATOM     20  C   UNL     1      33.368 -22.459 -16.250  0.00  0.00    +0.265 C 
ATOM     21  C   UNL     1      35.045 -21.308 -17.709  0.00  0.00    +0.034 C 
ATOM     22  C   UNL     1      36.354 -20.922 -18.008  0.00  0.00    +0.142 C 
ATOM     23  H   UNL     1      36.785 -24.893 -11.355  0.00  0.00    -0.078 HD
ATOM     24  H   UNL     1      38.919 -22.415 -15.015  0.00  0.00    +0.166 HD
ATOM     25  H   UNL     1      32.009 -23.333 -15.118  0.00  0.00    +0.178 HD
ENDROOT
TORSDOF 0
ENDMDL
MODEL 3
REMARK VINA RESULT:      -9.2     13.422     15.809
REMARK  Name = 135565554
REMARK  0 active torsions:
REMARK  status: ('A' for Active; 'I' for Inactive)
REMARK                            x       y       z     vdW  Elec       q    Type
REMARK                         _______ _______ _______ _____ _____    ______ ____
ROOT
ATOM      1  F   UNL     1      31.044 -10.615 -16.912  0.00  0.00    -0.204 F 
ATOM      2  O   UNL     1      32.729 -14.024 -20.090  0.00  0.00    -0.268 OA
ATOM      3  N   UNL     1      34.085  -8.849 -24.257  0.00  0.00    +0.397 N 
ATOM      4  N   UNL     1      32.290  -8.302 -21.011  0.00  0.00    -0.358 N 
ATOM      5  N   UNL     1      33.535 -12.243 -23.092  0.00  0.00    -0.185 NA
ATOM      6  N   UNL     1      33.310 -13.087 -22.060  0.00  0.00    -0.203 N 
ATOM      7  C   UNL     1      33.202  -8.017 -23.396  0.00  0.00    -0.007 C 
ATOM      8  C   UNL     1      34.123  -6.836 -23.082  0.00  0.00    -0.016 C 
ATOM      9  C   UNL     1      32.805  -8.796 -22.178  0.00  0.00    +0.017 A 
ATOM     10  C   UNL     1      35.461  -8.736 -23.755  0.00  0.00    -0.076 C 
ATOM     11  C   UNL     1      35.506  -7.454 -22.935  0.00  0.00    -0.024 C 
ATOM     12  C   UNL     1      33.654 -10.244 -24.455  0.00  0.00    -0.028 C 
ATOM     13  C   UNL     1      32.893 -10.163 -22.054  0.00  0.00    +0.024 A 
ATOM     14  C   UNL     1      31.959  -7.555 -24.163  0.00  0.00    -0.015 C 
ATOM     15  C   UNL     1      33.373 -10.963 -23.132  0.00  0.00    +0.056 C 
ATOM     16  C   UNL     1      32.472 -10.519 -20.774  0.00  0.00    +0.022 A 
ATOM     17  C   UNL     1      32.086  -9.342 -20.128  0.00  0.00    +0.059 A 
ATOM     18  C   UNL     1      32.390 -11.743 -20.119  0.00  0.00    +0.059 C 
ATOM     19  C   UNL     1      31.595  -9.335 -18.819  0.00  0.00    +0.047 C 
ATOM     20  C   UNL     1      32.819 -12.994 -20.768  0.00  0.00    +0.265 C 
ATOM     21  C   UNL     1      31.898 -11.750 -18.801  0.00  0.00    +0.034 C 
ATOM     22  C   UNL     1      31.506 -10.567 -18.168  0.00  0.00    +0.142 C 
ATOM     23  H   UNL     1      34.024  -8.473 -25.204  0.00  0.00    -0.078 HD
ATOM     24  H   UNL     1      32.098  -7.354 -20.830  0.00  0.00    +0.166 HD
ATOM     25  H   UNL     1      33.562 -14.011 -22.286  0.00  0.00    +0.178 HD
ENDROOT
TORSDOF 0
ENDMDL
MODEL 4
REMARK VINA RESULT:      -9.2     13.086     15.509
REMARK  Name = 135565554
REMARK  0 active torsions:
REMARK  status: ('A' for Active; 'I' for Inactive)
REMARK                            x       y       z     vdW  Elec       q    Type
REMARK                         _______ _______ _______ _____ _____    ______ ____
ROOT
ATOM      1  F   UNL     1      32.102 -14.412 -18.595  0.00  0.00    -0.204 F 
ATOM      2  O   UNL     1      34.927 -14.111 -22.657  0.00  0.00    -0.268 OA
ATOM      3  N   UNL     1      33.073  -7.594 -22.943  0.00  0.00    +0.397 N 
ATOM      4  N   UNL     1      31.592  -9.919 -20.401  0.00  0.00    -0.358 N 
ATOM      5  N   UNL     1      34.418 -10.811 -23.954  0.00  0.00    -0.185 NA
ATOM      6  N   UNL     1      34.754 -12.078 -23.622  0.00  0.00    -0.203 N 
ATOM      7  C   UNL     1      31.987  -7.935 -21.985  0.00  0.00    -0.007 C 
ATOM      8  C   UNL     1      32.220  -6.891 -20.890  0.00  0.00    -0.016 C 
ATOM      9  C   UNL     1      32.161  -9.345 -21.504  0.00  0.00    +0.017 A 
ATOM     10  C   UNL     1      34.251  -7.171 -22.175  0.00  0.00    -0.076 C 
ATOM     11  C   UNL     1      33.733  -6.754 -20.805  0.00  0.00    -0.024 C 
ATOM     12  C   UNL     1      33.379  -8.622 -23.953  0.00  0.00    -0.028 C 
ATOM     13  C   UNL     1      32.933 -10.298 -22.124  0.00  0.00    +0.024 A 
ATOM     14  C   UNL     1      30.607  -7.757 -22.628  0.00  0.00    -0.015 C 
ATOM     15  C   UNL     1      33.634  -9.999 -23.329  0.00  0.00    +0.056 C 
ATOM     16  C   UNL     1      32.882 -11.468 -21.369  0.00  0.00    +0.022 A 
ATOM     17  C   UNL     1      32.028 -11.223 -20.291  0.00  0.00    +0.059 A 
ATOM     18  C   UNL     1      33.491 -12.709 -21.518  0.00  0.00    +0.059 C 
ATOM     19  C   UNL     1      31.738 -12.197 -19.331  0.00  0.00    +0.047 C 
ATOM     20  C   UNL     1      34.418 -12.984 -22.630  0.00  0.00    +0.265 C 
ATOM     21  C   UNL     1      33.208 -13.699 -20.558  0.00  0.00    +0.034 C 
ATOM     22  C   UNL     1      32.346 -13.444 -19.489  0.00  0.00    +0.142 C 
ATOM     23  H   UNL     1      32.734  -6.825 -23.522  0.00  0.00    -0.078 HD
ATOM     24  H   UNL     1      30.971  -9.471 -19.782  0.00  0.00    +0.166 HD
ATOM     25  H   UNL     1      35.409 -12.456 -24.252  0.00  0.00    +0.178 HD
ENDROOT
TORSDOF 0
ENDMDL
