MODEL 1
REMARK VINA RESULT:     -11.7      0.000      0.000
REMARK  Name = 11963557
REMARK  4 active torsions:
REMARK  status: ('A' for Active; 'I' for Inactive)
REMARK    1  A    between atoms: C_11  and  C_19
REMARK    2  A    between atoms: C_13  and  C_30
REMARK    3  A    between atoms: C_16  and  N_22
REMARK    4  A    between atoms: C_30  and  C_32
REMARK                            x       y       z     vdW  Elec       q    Type
REMARK                         _______ _______ _______ _____ _____    ______ ____
ROOT
ATOM      1  O   UNL     1      36.202 -21.346 -20.433  0.00  0.00    -0.270 OA
ATOM      2  O   UNL     1      34.428 -13.144 -19.906  0.00  0.00    -0.274 OA
ATOM      3  N   UNL     1      34.883 -14.893 -21.262  0.00  0.00    -0.233 N 
ATOM      4  N   UNL     1      35.647 -19.203 -19.653  0.00  0.00    -0.264 N 
ATOM      5  N   UNL     1      35.633 -17.981 -22.940  0.00  0.00    -0.273 N 
ATOM      6  N   UNL     1      35.785 -19.033 -22.066  0.00  0.00    -0.157 NA
ATOM      7  C   UNL     1      35.297 -17.057 -20.875  0.00  0.00    +0.067 A 
ATOM      8  C   UNL     1      35.356 -16.867 -22.235  0.00  0.00    +0.093 A 
ATOM      9  C   UNL     1      35.582 -18.465 -20.828  0.00  0.00    +0.157 A 
ATOM     10  C   UNL     1      35.013 -15.885 -20.247  0.00  0.00    +0.076 C 
ATOM     11  C   UNL     1      35.944 -20.564 -19.503  0.00  0.00    +0.251 C 
ATOM     12  C   UNL     1      35.108 -15.572 -22.476  0.00  0.00    +0.091 C 
ATOM     13  C   UNL     1      34.593 -13.544 -21.049  0.00  0.00    +0.238 C 
ATOM     14  H   UNL     1      35.463 -18.708 -18.823  0.00  0.00    +0.157 HD
ATOM     15  H   UNL     1      35.713 -18.034 -23.920  0.00  0.00    +0.189 HD
ENDROOT
BRANCH  11  19
ATOM     16  C   UNL     1      36.013 -22.022 -15.488  0.00  0.00    +0.048 C 
ATOM     17  C   UNL     1      34.872 -22.185 -16.300  0.00  0.00    +0.015 C 
ATOM     18  C   UNL     1      37.130 -21.363 -16.040  0.00  0.00    +0.015 C 
ATOM     19  C   UNL     1      35.967 -21.060 -18.137  0.00  0.00    +0.054 C 
ATOM     20  C   UNL     1      34.850 -21.709 -17.611  0.00  0.00    +0.006 C 
ATOM     21  C   UNL     1      37.107 -20.887 -17.351  0.00  0.00    +0.006 C 
BRANCH  16  22
ATOM     22  N   UNL     1      36.037 -22.500 -14.173  0.00  0.00    -0.312 N 
ATOM     23  N   UNL     1      36.147 -23.709 -11.588  0.00  0.00    +0.388 N 
ATOM     24  C   UNL     1      35.034 -23.501 -13.785  0.00  0.00    +0.068 C 
ATOM     25  C   UNL     1      37.307 -22.559 -13.444  0.00  0.00    +0.068 C 
ATOM     26  C   UNL     1      34.858 -23.521 -12.265  0.00  0.00    -0.056 C 
ATOM     27  C   UNL     1      37.057 -22.611 -11.934  0.00  0.00    -0.056 C 
ATOM     28  C   UNL     1      35.960 -23.781 -10.138  0.00  0.00    -0.101 C 
ATOM     29  H   UNL     1      36.558 -24.588 -11.899  0.00  0.00    -0.080 HD
ENDBRANCH  16  22
ENDBRANCH  11  19
BRANCH  13  30
ATOM     30  C   UNL     1      34.508 -12.698 -22.282  0.00  0.00    +0.119 C 
BRANCH  30  32
ATOM     31  S   UNL     1      33.621 -10.143 -22.831  0.00  0.00    -0.090 S 
ATOM     32  C   UNL     1      33.451 -11.656 -22.069  0.00  0.00    +0.016 C 
ATOM     33  C   UNL     1      32.319 -11.755 -21.311  0.00  0.00    +0.003 C 
ATOM     34  C   UNL     1      31.557 -10.551 -21.354  0.00  0.00    +0.007 C 
ATOM     35  C   UNL     1      32.151  -9.592 -22.146  0.00  0.00    +0.035 C 
ENDBRANCH  30  32
ENDBRANCH  13  30
TORSDOF 4
ENDMDL
MODEL 2
REMARK VINA RESULT:     -11.3      2.182      4.022
REMARK  Name = 11963557
REMARK  4 active torsions:
REMARK  status: ('A' for Active; 'I' for Inactive)
REMARK    1  A    between atoms: C_11  and  C_19
REMARK    2  A    between atoms: C_13  and  C_30
REMARK    3  A    between atoms: C_16  and  N_22
REMARK    4  A    between atoms: C_30  and  C_32
REMARK                            x       y       z     vdW  Elec       q    Type
REMARK                         _______ _______ _______ _____ _____    ______ ____
ROOT
ATOM      1  O   UNL     1      34.973 -18.684 -23.852  0.00  0.00    -0.270 OA
ATOM      2  O   UNL     1      33.596 -10.690 -21.636  0.00  0.00    -0.274 OA
ATOM      3  N   UNL     1      33.795 -12.171 -23.331  0.00  0.00    -0.233 N 
ATOM      4  N   UNL     1      34.610 -16.710 -22.635  0.00  0.00    -0.264 N 
ATOM      5  N   UNL     1      34.192 -14.915 -25.618  0.00  0.00    -0.273 N 
ATOM      6  N   UNL     1      34.423 -16.109 -24.975  0.00  0.00    -0.157 NA
ATOM      7  C   UNL     1      34.177 -14.374 -23.395  0.00  0.00    +0.067 A 
ATOM      8  C   UNL     1      34.057 -13.943 -24.695  0.00  0.00    +0.093 A 
ATOM      9  C   UNL     1      34.412 -15.772 -23.639  0.00  0.00    +0.157 A 
ATOM     10  C   UNL     1      34.026 -13.332 -22.536  0.00  0.00    +0.076 C 
ATOM     11  C   UNL     1      34.873 -18.079 -22.771  0.00  0.00    +0.251 C 
ATOM     12  C   UNL     1      33.827 -12.623 -24.665  0.00  0.00    +0.091 C 
ATOM     13  C   UNL     1      33.588 -10.880 -22.843  0.00  0.00    +0.238 C 
ATOM     14  H   UNL     1      34.560 -16.371 -21.712  0.00  0.00    +0.157 HD
ATOM     15  H   UNL     1      34.136 -14.790 -26.593  0.00  0.00    +0.189 HD
ENDROOT
BRANCH  11  19
ATOM     16  C   UNL     1      35.436 -20.237 -19.127  0.00  0.00    +0.048 C 
ATOM     17  C   UNL     1      36.526 -19.643 -19.795  0.00  0.00    +0.015 C 
ATOM     18  C   UNL     1      34.154 -20.097 -19.697  0.00  0.00    +0.015 C 
ATOM     19  C   UNL     1      35.064 -18.814 -21.532  0.00  0.00    +0.054 C 
ATOM     20  C   UNL     1      36.341 -18.939 -20.985  0.00  0.00    +0.006 C 
ATOM     21  C   UNL     1      33.971 -19.393 -20.888  0.00  0.00    +0.006 C 
BRANCH  16  22
ATOM     22  N   UNL     1      35.619 -20.943 -17.933  0.00  0.00    -0.312 N 
ATOM     23  N   UNL     1      36.039 -22.596 -15.642  0.00  0.00    +0.388 N 
ATOM     24  C   UNL     1      34.658 -22.004 -17.604  0.00  0.00    +0.068 C 
ATOM     25  C   UNL     1      36.971 -21.123 -17.396  0.00  0.00    +0.068 C 
ATOM     26  C   UNL     1      34.678 -22.298 -16.103  0.00  0.00    -0.056 C 
ATOM     27  C   UNL     1      36.916 -21.447 -15.901  0.00  0.00    -0.056 C 
ATOM     28  C   UNL     1      36.038 -22.929 -14.217  0.00  0.00    -0.101 C 
ATOM     29  H   UNL     1      36.392 -23.402 -16.157  0.00  0.00    -0.080 HD
ENDBRANCH  16  22
ENDBRANCH  11  19
BRANCH  13  30
ATOM     30  C   UNL     1      33.368  -9.824 -23.882  0.00  0.00    +0.119 C 
BRANCH  30  32
ATOM     31  S   UNL     1      34.102  -7.418 -22.746  0.00  0.00    -0.090 S 
ATOM     32  C   UNL     1      32.928  -8.567 -23.194  0.00  0.00    +0.016 C 
ATOM     33  C   UNL     1      31.656  -8.197 -22.858  0.00  0.00    +0.003 C 
ATOM     34  C   UNL     1      31.637  -6.927 -22.211  0.00  0.00    +0.007 C 
ATOM     35  C   UNL     1      32.901  -6.392 -22.086  0.00  0.00    +0.035 C 
ENDBRANCH  30  32
ENDBRANCH  13  30
TORSDOF 4
ENDMDL
MODEL 3
REMARK VINA RESULT:     -11.3      2.228      3.537
REMARK  Name = 11963557
REMARK  4 active torsions:
REMARK  status: ('A' for Active; 'I' for Inactive)
REMARK    1  A    between atoms: C_11  and  C_19
REMARK    2  A    between atoms: C_13  and  C_30
REMARK    3  A    between atoms: C_16  and  N_22
REMARK    4  A    between atoms: C_30  and  C_32
REMARK                            x       y       z     vdW  Elec       q    Type
REMARK                         _______ _______ _______ _____ _____    ______ ____
ROOT
ATOM      1  O   UNL     1      35.128 -19.336 -23.480  0.00  0.00    -0.270 OA
ATOM      2  O   UNL     1      33.740 -11.214 -21.806  0.00  0.00    -0.274 OA
ATOM      3  N   UNL     1      33.957 -12.801 -23.399  0.00  0.00    -0.233 N 
ATOM      4  N   UNL     1      34.754 -17.286 -22.399  0.00  0.00    -0.264 N 
ATOM      5  N   UNL     1      34.378 -15.688 -25.498  0.00  0.00    -0.273 N 
ATOM      6  N   UNL     1      34.598 -16.838 -24.775  0.00  0.00    -0.157 NA
ATOM      7  C   UNL     1      34.336 -15.004 -23.315  0.00  0.00    +0.067 A 
ATOM      8  C   UNL     1      34.233 -14.659 -24.641  0.00  0.00    +0.093 A 
ATOM      9  C   UNL     1      34.571 -16.415 -23.465  0.00  0.00    +0.157 A 
ATOM     10  C   UNL     1      34.176 -13.908 -22.528  0.00  0.00    +0.076 C 
ATOM     11  C   UNL     1      35.016 -18.662 -22.442  0.00  0.00    +0.251 C 
ATOM     12  C   UNL     1      34.005 -13.339 -24.700  0.00  0.00    +0.091 C 
ATOM     13  C   UNL     1      33.746 -11.481 -22.999  0.00  0.00    +0.238 C 
ATOM     14  H   UNL     1      34.693 -16.888 -21.501  0.00  0.00    +0.157 HD
ATOM     15  H   UNL     1      34.334 -15.628 -26.479  0.00  0.00    +0.189 HD
ENDROOT
BRANCH  11  19
ATOM     16  C   UNL     1      35.528 -20.581 -18.660  0.00  0.00    +0.048 C 
ATOM     17  C   UNL     1      34.246 -20.421 -19.225  0.00  0.00    +0.015 C 
ATOM     18  C   UNL     1      36.635 -20.089 -19.380  0.00  0.00    +0.015 C 
ATOM     19  C   UNL     1      35.190 -19.315 -21.155  0.00  0.00    +0.054 C 
ATOM     20  C   UNL     1      34.080 -19.794 -20.460  0.00  0.00    +0.006 C 
ATOM     21  C   UNL     1      36.467 -19.462 -20.615  0.00  0.00    +0.006 C 
BRANCH  16  22
ATOM     22  N   UNL     1      35.696 -21.210 -17.422  0.00  0.00    -0.312 N 
ATOM     23  N   UNL     1      36.088 -22.714 -15.026  0.00  0.00    +0.388 N 
ATOM     24  C   UNL     1      34.734 -22.252 -17.041  0.00  0.00    +0.068 C 
ATOM     25  C   UNL     1      37.041 -21.351 -16.855  0.00  0.00    +0.068 C 
ATOM     26  C   UNL     1      34.732 -22.451 -15.524  0.00  0.00    -0.056 C 
ATOM     27  C   UNL     1      36.965 -21.580 -15.343  0.00  0.00    -0.056 C 
ATOM     28  C   UNL     1      36.066 -22.957 -13.583  0.00  0.00    -0.101 C 
ATOM     29  H   UNL     1      36.451 -23.550 -15.483  0.00  0.00    -0.080 HD
ENDBRANCH  16  22
ENDBRANCH  11  19
BRANCH  13  30
ATOM     30  C   UNL     1      33.541 -10.495 -24.107  0.00  0.00    +0.119 C 
BRANCH  30  32
ATOM     31  S   UNL     1      32.984  -7.995 -23.077  0.00  0.00    -0.090 S 
ATOM     32  C   UNL     1      34.074  -9.166 -23.662  0.00  0.00    +0.016 C 
ATOM     33  C   UNL     1      35.373  -8.742 -23.662  0.00  0.00    +0.003 C 
ATOM     34  C   UNL     1      35.486  -7.411 -23.164  0.00  0.00    +0.007 C 
ATOM     35  C   UNL     1      34.262  -6.886 -22.810  0.00  0.00    +0.035 C 
ENDBRANCH  30  32
ENDBRANCH  13  30
TORSDOF 4
ENDMDL
MODEL 4
REMARK VINA RESULT:     -11.1      2.204      3.730
REMARK  Name = 11963557
REMARK  4 active torsions:
REMARK  status: ('A' for Active; 'I' for Inactive)
REMARK    1  A    between atoms: C_11  and  C_19
REMARK    2  A    between atoms: C_13  and  C_30
REMARK    3  A    between atoms: C_16  and  N_22
REMARK    4  A    between atoms: C_30  and  C_32
REMARK                            x       y       z     vdW  Elec       q    Type
REMARK                         _______ _______ _______ _____ _____    ______ ____
ROOT
ATOM      1  O   UNL     1      35.124 -19.363 -23.481  0.00  0.00    -0.270 OA
ATOM      2  O   UNL     1      33.833 -11.243 -21.720  0.00  0.00    -0.274 OA
ATOM      3  N   UNL     1      33.968 -12.828 -23.325  0.00  0.00    -0.233 N 
ATOM      4  N   UNL     1      34.808 -17.316 -22.378  0.00  0.00    -0.264 N 
ATOM      5  N   UNL     1      34.279 -15.710 -25.450  0.00  0.00    -0.273 N 
ATOM      6  N   UNL     1      34.534 -16.862 -24.742  0.00  0.00    -0.157 NA
ATOM      7  C   UNL     1      34.347 -15.031 -23.266  0.00  0.00    +0.067 A 
ATOM      8  C   UNL     1      34.178 -14.682 -24.584  0.00  0.00    +0.093 A 
ATOM      9  C   UNL     1      34.573 -16.442 -23.431  0.00  0.00    +0.157 A 
ATOM     10  C   UNL     1      34.228 -13.937 -22.469  0.00  0.00    +0.076 C 
ATOM     11  C   UNL     1      35.066 -18.692 -22.438  0.00  0.00    +0.251 C 
ATOM     12  C   UNL     1      33.950 -13.362 -24.629  0.00  0.00    +0.091 C 
ATOM     13  C   UNL     1      33.779 -11.508 -22.912  0.00  0.00    +0.238 C 
ATOM     14  H   UNL     1      34.793 -16.920 -21.477  0.00  0.00    +0.157 HD
ATOM     15  H   UNL     1      34.185 -15.646 -26.427  0.00  0.00    +0.189 HD
ENDROOT
BRANCH  11  19
ATOM     16  C   UNL     1      35.765 -20.618 -18.689  0.00  0.00    +0.048 C 
ATOM     17  C   UNL     1      36.830 -20.075 -19.436  0.00  0.00    +0.015 C 
ATOM     18  C   UNL     1      34.462 -20.507 -19.216  0.00  0.00    +0.015 C 
ATOM     19  C   UNL     1      35.303 -19.348 -21.163  0.00  0.00    +0.054 C 
ATOM     20  C   UNL     1      36.601 -19.446 -20.660  0.00  0.00    +0.006 C 
ATOM     21  C   UNL     1      34.235 -19.878 -20.441  0.00  0.00    +0.006 C 
BRANCH  16  22
ATOM     22  N   UNL     1      35.993 -21.249 -17.462  0.00  0.00    -0.312 N 
ATOM     23  N   UNL     1      36.402 -22.308 -14.841  0.00  0.00    +0.388 N 
ATOM     24  C   UNL     1      37.126 -20.787 -16.649  0.00  0.00    +0.068 C 
ATOM     25  C   UNL     1      34.866 -21.815 -16.714  0.00  0.00    +0.068 C 
ATOM     26  C   UNL     1      37.545 -21.868 -15.650  0.00  0.00    -0.056 C 
ATOM     27  C   UNL     1      35.358 -22.862 -15.711  0.00  0.00    -0.056 C 
ATOM     28  C   UNL     1      36.824 -23.302 -13.852  0.00  0.00    -0.101 C 
ATOM     29  H   UNL     1      36.022 -21.505 -14.341  0.00  0.00    -0.080 HD
ENDBRANCH  16  22
ENDBRANCH  11  19
BRANCH  13  30
ATOM     30  C   UNL     1      33.520 -10.519 -24.006  0.00  0.00    +0.119 C 
BRANCH  30  32
ATOM     31  S   UNL     1      33.062  -8.035 -22.891  0.00  0.00    -0.090 S 
ATOM     32  C   UNL     1      34.092  -9.196 -23.593  0.00  0.00    +0.016 C 
ATOM     33  C   UNL     1      35.385  -8.770 -23.707  0.00  0.00    +0.003 C 
ATOM     34  C   UNL     1      35.544  -7.447 -23.202  0.00  0.00    +0.007 C 
ATOM     35  C   UNL     1      34.359  -6.929 -22.727  0.00  0.00    +0.035 C 
ENDBRANCH  30  32
ENDBRANCH  13  30
TORSDOF 4
ENDMDL
MODEL 5
REMARK VINA RESULT:     -10.7      3.419      6.588
REMARK  Name = 11963557
REMARK  4 active torsions:
REMARK  status: ('A' for Active; 'I' for Inactive)
REMARK    1  A    between atoms: C_11  and  C_19
REMARK    2  A    between atoms: C_13  and  C_30
REMARK    3  A    between atoms: C_16  and  N_22
REMARK    4  A    between atoms: C_30  and  C_32
REMARK                            x       y       z     vdW  Elec       q    Type
REMARK                         _______ _______ _______ _____ _____    ______ ____
ROOT
ATOM      1  O   UNL     1      35.029 -15.675 -25.312  0.00  0.00    -0.270 OA
ATOM      2  O   UNL     1      32.926  -8.529 -21.411  0.00  0.00    -0.274 OA
ATOM      3  N   UNL     1      33.378  -9.541 -23.380  0.00  0.00    -0.233 N 
ATOM      4  N   UNL     1      34.425 -14.074 -23.705  0.00  0.00    -0.264 N 
ATOM      5  N   UNL     1      34.166 -11.625 -26.201  0.00  0.00    -0.273 N 
ATOM      6  N   UNL     1      34.415 -12.929 -25.840  0.00  0.00    -0.157 NA
ATOM      7  C   UNL     1      33.910 -11.644 -23.927  0.00  0.00    +0.067 A 
ATOM      8  C   UNL     1      33.882 -10.914 -25.091  0.00  0.00    +0.093 A 
ATOM      9  C   UNL     1      34.259 -12.929 -24.472  0.00  0.00    +0.157 A 
ATOM     10  C   UNL     1      33.611 -10.850 -22.865  0.00  0.00    +0.076 C 
ATOM     11  C   UNL     1      34.790 -15.357 -24.135  0.00  0.00    +0.251 C 
ATOM     12  C   UNL     1      33.563  -9.652 -24.772  0.00  0.00    +0.091 C 
ATOM     13  C   UNL     1      33.041  -8.418 -22.623  0.00  0.00    +0.238 C 
ATOM     14  H   UNL     1      34.268 -13.973 -22.739  0.00  0.00    +0.157 HD
ATOM     15  H   UNL     1      34.191 -11.269 -27.118  0.00  0.00    +0.189 HD
ENDROOT
BRANCH  11  19
ATOM     16  C   UNL     1      35.155 -18.313 -21.073  0.00  0.00    +0.048 C 
ATOM     17  C   UNL     1      35.400 -16.952 -20.801  0.00  0.00    +0.015 C 
ATOM     18  C   UNL     1      34.787 -18.670 -22.386  0.00  0.00    +0.015 C 
ATOM     19  C   UNL     1      34.915 -16.363 -23.094  0.00  0.00    +0.054 C 
ATOM     20  C   UNL     1      35.280 -15.987 -21.801  0.00  0.00    +0.006 C 
ATOM     21  C   UNL     1      34.668 -17.704 -23.386  0.00  0.00    +0.006 C 
BRANCH  16  22
ATOM     22  N   UNL     1      35.274 -19.281 -20.071  0.00  0.00    -0.312 N 
ATOM     23  N   UNL     1      35.515 -21.438 -18.213  0.00  0.00    +0.388 N 
ATOM     24  C   UNL     1      34.157 -20.215 -19.877  0.00  0.00    +0.068 C 
ATOM     25  C   UNL     1      36.599 -19.795 -19.709  0.00  0.00    +0.068 C 
ATOM     26  C   UNL     1      34.206 -20.827 -18.475  0.00  0.00    -0.056 C 
ATOM     27  C   UNL     1      36.569 -20.422 -18.312  0.00  0.00    -0.056 C 
ATOM     28  C   UNL     1      35.533 -22.068 -16.892  0.00  0.00    -0.101 C 
ATOM     29  H   UNL     1      35.687 -22.161 -18.912  0.00  0.00    -0.080 HD
ENDBRANCH  16  22
ENDBRANCH  11  19
BRANCH  13  30
ATOM     30  C   UNL     1      32.848  -7.151 -23.398  0.00  0.00    +0.119 C 
BRANCH  30  32
ATOM     31  S   UNL     1      32.001  -4.549 -23.036  0.00  0.00    -0.090 S 
ATOM     32  C   UNL     1      32.535  -6.049 -22.431  0.00  0.00    +0.016 C 
ATOM     33  C   UNL     1      32.624  -6.080 -21.068  0.00  0.00    +0.003 C 
ATOM     34  C   UNL     1      32.240  -4.834 -20.493  0.00  0.00    +0.007 C 
ATOM     35  C   UNL     1      31.878  -3.912 -21.451  0.00  0.00    +0.035 C 
ENDBRANCH  30  32
ENDBRANCH  13  30
TORSDOF 4
ENDMDL
MODEL 6
REMARK VINA RESULT:     -10.5      4.463     12.610
REMARK  Name = 11963557
REMARK  4 active torsions:
REMARK  status: ('A' for Active; 'I' for Inactive)
REMARK    1  A    between atoms: C_11  and  C_19
REMARK    2  A    between atoms: C_13  and  C_30
REMARK    3  A    between atoms: C_16  and  N_22
REMARK    4  A    between atoms: C_30  and  C_32
REMARK                            x       y       z     vdW  Elec       q    Type
REMARK                         _______ _______ _______ _____ _____    ______ ____
ROOT
ATOM      1  O   UNL     1      33.527 -12.717 -25.825  0.00  0.00    -0.270 OA
ATOM      2  O   UNL     1      36.198 -17.343 -19.331  0.00  0.00    -0.274 OA
ATOM      3  N   UNL     1      35.677 -17.300 -21.529  0.00  0.00    -0.233 N 
ATOM      4  N   UNL     1      34.252 -13.431 -23.710  0.00  0.00    -0.264 N 
ATOM      5  N   UNL     1      34.738 -16.678 -24.942  0.00  0.00    -0.273 N 
ATOM      6  N   UNL     1      34.375 -15.369 -25.159  0.00  0.00    -0.157 NA
ATOM      7  C   UNL     1      34.973 -15.677 -22.899  0.00  0.00    +0.067 A 
ATOM      8  C   UNL     1      35.072 -16.826 -23.645  0.00  0.00    +0.093 A 
ATOM      9  C   UNL     1      34.521 -14.777 -23.924  0.00  0.00    +0.157 A 
ATOM     10  C   UNL     1      35.329 -15.920 -21.609  0.00  0.00    +0.076 C 
ATOM     11  C   UNL     1      33.783 -12.486 -24.631  0.00  0.00    +0.251 C 
ATOM     12  C   UNL     1      35.495 -17.804 -22.832  0.00  0.00    +0.091 C 
ATOM     13  C   UNL     1      36.102 -17.965 -20.378  0.00  0.00    +0.238 C 
ATOM     14  H   UNL     1      34.409 -13.101 -22.796  0.00  0.00    +0.157 HD
ATOM     15  H   UNL     1      34.750 -17.390 -25.622  0.00  0.00    +0.189 HD
ENDROOT
BRANCH  11  19
ATOM     16  C   UNL     1      33.141  -8.550 -23.098  0.00  0.00    +0.048 C 
ATOM     17  C   UNL     1      33.653  -8.749 -24.397  0.00  0.00    +0.015 C 
ATOM     18  C   UNL     1      32.848  -9.689 -22.321  0.00  0.00    +0.015 C 
ATOM     19  C   UNL     1      33.565 -11.147 -24.109  0.00  0.00    +0.054 C 
ATOM     20  C   UNL     1      33.862 -10.034 -24.897  0.00  0.00    +0.006 C 
ATOM     21  C   UNL     1      33.058 -10.974 -22.822  0.00  0.00    +0.006 C 
BRANCH  16  22
ATOM     22  N   UNL     1      32.930  -7.262 -22.596  0.00  0.00    -0.312 N 
ATOM     23  N   UNL     1      32.760  -4.603 -21.567  0.00  0.00    +0.388 N 
ATOM     24  C   UNL     1      33.393  -6.968 -21.233  0.00  0.00    +0.068 C 
ATOM     25  C   UNL     1      32.899  -6.119 -23.515  0.00  0.00    +0.068 C 
ATOM     26  C   UNL     1      32.652  -5.756 -20.665  0.00  0.00    -0.056 C 
ATOM     27  C   UNL     1      32.174  -4.933 -22.872  0.00  0.00    -0.056 C 
ATOM     28  C   UNL     1      32.094  -3.434 -20.989  0.00  0.00    -0.101 C 
ATOM     29  H   UNL     1      33.745  -4.375 -21.696  0.00  0.00    -0.080 HD
ENDBRANCH  16  22
ENDBRANCH  11  19
BRANCH  13  30
ATOM     30  C   UNL     1      36.408 -19.421 -20.550  0.00  0.00    +0.119 C 
BRANCH  30  32
ATOM     31  S   UNL     1      33.808 -20.011 -19.836  0.00  0.00    -0.090 S 
ATOM     32  C   UNL     1      35.491 -20.205 -19.660  0.00  0.00    +0.016 C 
ATOM     33  C   UNL     1      35.832 -21.095 -18.681  0.00  0.00    +0.003 C 
ATOM     34  C   UNL     1      34.677 -21.641 -18.049  0.00  0.00    +0.007 C 
ATOM     35  C   UNL     1      33.510 -21.138 -18.581  0.00  0.00    +0.035 C 
ENDBRANCH  30  32
ENDBRANCH  13  30
TORSDOF 4
ENDMDL
MODEL 7
REMARK VINA RESULT:      -9.8      4.087     12.252
REMARK  Name = 11963557
REMARK  4 active torsions:
REMARK  status: ('A' for Active; 'I' for Inactive)
REMARK    1  A    between atoms: C_11  and  C_19
REMARK    2  A    between atoms: C_13  and  C_30
REMARK    3  A    between atoms: C_16  and  N_22
REMARK    4  A    between atoms: C_30  and  C_32
REMARK                            x       y       z     vdW  Elec       q    Type
REMARK                         _______ _______ _______ _____ _____    ______ ____
ROOT
ATOM      1  O   UNL     1      33.393 -14.048 -25.442  0.00  0.00    -0.270 OA
ATOM      2  O   UNL     1      36.734 -18.098 -18.875  0.00  0.00    -0.274 OA
ATOM      3  N   UNL     1      35.998 -18.244 -21.006  0.00  0.00    -0.233 N 
ATOM      4  N   UNL     1      34.330 -14.578 -23.356  0.00  0.00    -0.264 N 
ATOM      5  N   UNL     1      34.719 -17.918 -24.349  0.00  0.00    -0.273 N 
ATOM      6  N   UNL     1      34.326 -16.632 -24.640  0.00  0.00    -0.157 NA
ATOM      7  C   UNL     1      35.148 -16.745 -22.432  0.00  0.00    +0.067 A 
ATOM      8  C   UNL     1      35.182 -17.954 -23.084  0.00  0.00    +0.093 A 
ATOM      9  C   UNL     1      34.588 -15.936 -23.481  0.00  0.00    +0.157 A 
ATOM     10  C   UNL     1      35.632 -16.876 -21.169  0.00  0.00    +0.076 C 
ATOM     11  C   UNL     1      33.764 -13.715 -24.304  0.00  0.00    +0.251 C 
ATOM     12  C   UNL     1      35.691 -18.859 -22.235  0.00  0.00    +0.091 C 
ATOM     13  C   UNL     1      36.541 -18.809 -19.850  0.00  0.00    +0.238 C 
ATOM     14  H   UNL     1      34.575 -14.170 -22.494  0.00  0.00    +0.157 HD
ATOM     15  H   UNL     1      34.670 -18.686 -24.963  0.00  0.00    +0.189 HD
ENDROOT
BRANCH  11  19
ATOM     16  C   UNL     1      33.244  -9.662 -23.057  0.00  0.00    +0.048 C 
ATOM     17  C   UNL     1      33.717  -9.969 -24.349  0.00  0.00    +0.015 C 
ATOM     18  C   UNL     1      32.949 -10.732 -22.188  0.00  0.00    +0.015 C 
ATOM     19  C   UNL     1      33.588 -12.336 -23.879  0.00  0.00    +0.054 C 
ATOM     20  C   UNL     1      33.886 -11.293 -24.756  0.00  0.00    +0.006 C 
ATOM     21  C   UNL     1      33.120 -12.055 -22.596  0.00  0.00    +0.006 C 
BRANCH  16  22
ATOM     22  N   UNL     1      33.074  -8.335 -22.649  0.00  0.00    -0.312 N 
ATOM     23  N   UNL     1      32.467  -5.664 -21.839  0.00  0.00    +0.388 N 
ATOM     24  C   UNL     1      32.507  -7.383 -23.613  0.00  0.00    +0.068 C 
ATOM     25  C   UNL     1      32.814  -8.037 -21.237  0.00  0.00    +0.068 C 
ATOM     26  C   UNL     1      32.864  -5.947 -23.223  0.00  0.00    -0.056 C 
ATOM     27  C   UNL     1      33.161  -6.578 -20.923  0.00  0.00    -0.056 C 
ATOM     28  C   UNL     1      32.764  -4.273 -21.494  0.00  0.00    -0.101 C 
ATOM     29  H   UNL     1      31.462  -5.806 -21.748  0.00  0.00    -0.080 HD
ENDBRANCH  16  22
ENDBRANCH  11  19
BRANCH  13  30
ATOM     30  C   UNL     1      36.841 -20.274 -19.926  0.00  0.00    +0.119 C 
BRANCH  30  32
ATOM     31  S   UNL     1      34.619 -21.568 -18.923  0.00  0.00    -0.090 S 
ATOM     32  C   UNL     1      36.196 -20.950 -18.753  0.00  0.00    +0.016 C 
ATOM     33  C   UNL     1      36.722 -21.147 -17.508  0.00  0.00    +0.003 C 
ATOM     34  C   UNL     1      35.804 -21.830 -16.658  0.00  0.00    +0.007 C 
ATOM     35  C   UNL     1      34.620 -22.120 -17.302  0.00  0.00    +0.035 C 
ENDBRANCH  30  32
ENDBRANCH  13  30
TORSDOF 4
ENDMDL
MODEL 8
REMARK VINA RESULT:      -9.3      7.089     12.024
REMARK  Name = 11963557
REMARK  4 active torsions:
REMARK  status: ('A' for Active; 'I' for Inactive)
REMARK    1  A    between atoms: C_11  and  C_19
REMARK    2  A    between atoms: C_13  and  C_30
REMARK    3  A    between atoms: C_16  and  N_22
REMARK    4  A    between atoms: C_30  and  C_32
REMARK                            x       y       z     vdW  Elec       q    Type
REMARK                         _______ _______ _______ _____ _____    ______ ____
ROOT
ATOM      1  O   UNL     1      31.333  -8.908 -20.709  0.00  0.00    -0.270 OA
ATOM      2  O   UNL     1      34.573  -4.175 -26.856  0.00  0.00    -0.274 OA
ATOM      3  N   UNL     1      33.212  -4.255 -25.054  0.00  0.00    -0.233 N 
ATOM      4  N   UNL     1      32.570  -8.134 -22.547  0.00  0.00    -0.264 N 
ATOM      5  N   UNL     1      31.202  -4.929 -22.152  0.00  0.00    -0.273 N 
ATOM      6  N   UNL     1      31.309  -6.234 -21.729  0.00  0.00    -0.157 NA
ATOM      7  C   UNL     1      32.659  -5.890 -23.632  0.00  0.00    +0.067 A 
ATOM      8  C   UNL     1      31.981  -4.761 -23.239  0.00  0.00    +0.093 A 
ATOM      9  C   UNL     1      32.186  -6.801 -22.625  0.00  0.00    +0.157 A 
ATOM     10  C   UNL     1      33.416  -5.627 -24.729  0.00  0.00    +0.076 C 
ATOM     11  C   UNL     1      32.146  -9.102 -21.627  0.00  0.00    +0.251 C 
ATOM     12  C   UNL     1      32.308  -3.775 -24.087  0.00  0.00    +0.091 C 
ATOM     13  C   UNL     1      33.805  -3.574 -26.119  0.00  0.00    +0.238 C 
ATOM     14  H   UNL     1      33.220  -8.436 -23.221  0.00  0.00    +0.157 HD
ATOM     15  H   UNL     1      30.648  -4.233 -21.732  0.00  0.00    +0.189 HD
ENDROOT
BRANCH  11  19
ATOM     16  C   UNL     1      33.780 -13.014 -22.158  0.00  0.00    +0.048 C 
ATOM     17  C   UNL     1      34.161 -11.947 -22.998  0.00  0.00    +0.015 C 
ATOM     18  C   UNL     1      32.844 -12.751 -21.138  0.00  0.00    +0.015 C 
ATOM     19  C   UNL     1      32.701 -10.433 -21.808  0.00  0.00    +0.054 C 
ATOM     20  C   UNL     1      33.627 -10.671 -22.824  0.00  0.00    +0.006 C 
ATOM     21  C   UNL     1      32.310 -11.473 -20.965  0.00  0.00    +0.006 C 
BRANCH  16  22
ATOM     22  N   UNL     1      34.316 -14.294 -22.331  0.00  0.00    -0.312 N 
ATOM     23  N   UNL     1      35.622 -16.794 -22.782  0.00  0.00    +0.388 N 
ATOM     24  C   UNL     1      34.565 -14.758 -23.702  0.00  0.00    +0.068 C 
ATOM     25  C   UNL     1      35.190 -14.862 -21.301  0.00  0.00    +0.068 C 
ATOM     26  C   UNL     1      34.638 -16.286 -23.746  0.00  0.00    -0.056 C 
ATOM     27  C   UNL     1      35.245 -16.387 -21.423  0.00  0.00    -0.056 C 
ATOM     28  C   UNL     1      35.723 -18.251 -22.871  0.00  0.00    -0.101 C 
ATOM     29  H   UNL     1      36.535 -16.398 -23.003  0.00  0.00    -0.080 HD
ENDBRANCH  16  22
ENDBRANCH  11  19
BRANCH  13  30
ATOM     30  C   UNL     1      33.429  -2.131 -26.253  0.00  0.00    +0.119 C 
BRANCH  30  32
ATOM     31  S   UNL     1      33.085  -1.948 -28.986  0.00  0.00    -0.090 S 
ATOM     32  C   UNL     1      32.471  -1.996 -27.398  0.00  0.00    +0.016 C 
ATOM     33  C   UNL     1      31.109  -1.901 -27.343  0.00  0.00    +0.003 C 
ATOM     34  C   UNL     1      30.542  -1.786 -28.646  0.00  0.00    +0.007 C 
ATOM     35  C   UNL     1      31.505  -1.798 -29.631  0.00  0.00    +0.035 C 
ENDBRANCH  30  32
ENDBRANCH  13  30
TORSDOF 4
ENDMDL
