MODEL 1
REMARK VINA RESULT:     -12.0      0.000      0.000
REMARK  Name = 447653
REMARK  8 active torsions:
REMARK  status: ('A' for Active; 'I' for Inactive)
REMARK    1  A    between atoms: N_2  and  C_20
REMARK    2  A    between atoms: C_4  and  C_11
REMARK    3  A    between atoms: C_19  and  O_25
REMARK    4  A    between atoms: O_25  and  C_26
REMARK    5  A    between atoms: C_26  and  C_27
REMARK    6  A    between atoms: C_27  and  O_28
REMARK    7  A    between atoms: C_27  and  C_30
REMARK    8  A    between atoms: C_30  and  N_31
REMARK                            x       y       z     vdW  Elec       q    Type
REMARK                         _______ _______ _______ _____ _____    ______ ____
ROOT
ATOM      1  N   UNL     1      34.684 -22.413 -16.325  0.00  0.00    -0.340 NA
ATOM      2  N   UNL     1      32.919 -21.700 -17.697  0.00  0.00    -0.247 N 
ATOM      3  N   UNL     1      32.399 -22.957 -15.785  0.00  0.00    -0.170 NA
ATOM      4  C   UNL     1      35.060 -23.081 -15.218  0.00  0.00    +0.148 C 
ATOM      5  C   UNL     1      34.186 -23.704 -14.356  0.00  0.00    +0.052 C 
ATOM      6  C   UNL     1      33.355 -22.391 -16.546  0.00  0.00    +0.148 C 
ATOM      7  C   UNL     1      32.852 -23.609 -14.694  0.00  0.00    +0.114 C 
ATOM      8  H   UNL     1      31.942 -21.709 -17.818  0.00  0.00    +0.165 HD
ENDROOT
BRANCH   4  11
ATOM      9  N   UNL     1      37.150 -24.093 -14.307  0.00  0.00    -0.251 N 
ATOM     10  N   UNL     1      38.698 -22.605 -14.933  0.00  0.00    -0.393 NA
ATOM     11  C   UNL     1      36.486 -23.103 -14.985  0.00  0.00    +0.181 C 
ATOM     12  C   UNL     1      38.498 -23.743 -14.302  0.00  0.00    +0.187 C 
ATOM     13  C   UNL     1      37.457 -22.204 -15.358  0.00  0.00    +0.114 C 
ATOM     14  C   UNL     1      36.651 -25.248 -13.712  0.00  0.00    +0.068 C 
ATOM     15  C   UNL     1      39.395 -24.636 -13.643  0.00  0.00    +0.048 C 
ATOM     16  C   UNL     1      37.306 -20.948 -16.111  0.00  0.00    +0.064 C 
ATOM     17  C   UNL     1      37.502 -26.084 -13.095  0.00  0.00    +0.016 C 
ATOM     18  C   UNL     1      38.919 -25.756 -13.066  0.00  0.00    +0.005 C 
ENDBRANCH   4  11
BRANCH   2  20
ATOM     19  C   UNL     1      34.970 -19.610 -20.708  0.00  0.00    +0.139 C 
ATOM     20  C   UNL     1      33.607 -21.001 -18.706  0.00  0.00    +0.058 C 
ATOM     21  C   UNL     1      35.656 -20.508 -19.891  0.00  0.00    +0.038 C 
ATOM     22  C   UNL     1      33.602 -19.406 -20.525  0.00  0.00    +0.038 C 
ATOM     23  C   UNL     1      34.975 -21.203 -18.891  0.00  0.00    +0.018 C 
ATOM     24  C   UNL     1      32.921 -20.100 -19.525  0.00  0.00    +0.018 C 
BRANCH  19  25
ATOM     25  O   UNL     1      35.635 -18.932 -21.684  0.00  0.00    -0.473 OA
BRANCH  25  26
ATOM     26  C   UNL     1      34.844 -18.212 -22.628  0.00  0.00    +0.232 C 
BRANCH  26  27
ATOM     27  C   UNL     1      35.209 -16.732 -22.550  0.00  0.00    +0.133 C 
BRANCH  27  28
ATOM     28  O   UNL     1      36.605 -16.618 -22.261  0.00  0.00    -0.383 OA
ATOM     29  H   UNL     1      37.003 -17.502 -22.230  0.00  0.00    +0.210 HD
ENDBRANCH  27  28
BRANCH  27  30
ATOM     30  C   UNL     1      34.927 -15.970 -23.847  0.00  0.00    -0.044 C 
BRANCH  30  31
ATOM     31  N   UNL     1      34.069 -14.813 -23.627  0.00  0.00    +0.386 N 
ATOM     32  C   UNL     1      34.727 -13.843 -22.748  0.00  0.00    -0.101 C 
ATOM     33  C   UNL     1      33.714 -14.183 -24.900  0.00  0.00    -0.101 C 
ATOM     34  H   UNL     1      33.215 -15.134 -23.173  0.00  0.00    -0.080 HD
ENDBRANCH  30  31
ENDBRANCH  27  30
ENDBRANCH  26  27
ENDBRANCH  25  26
ENDBRANCH  19  25
ENDBRANCH   2  20
TORSDOF 8
ENDMDL
MODEL 2
REMARK VINA RESULT:     -11.3      1.475      1.551
REMARK  Name = 447653
REMARK  8 active torsions:
REMARK  status: ('A' for Active; 'I' for Inactive)
REMARK    1  A    between atoms: N_2  and  C_20
REMARK    2  A    between atoms: C_4  and  C_11
REMARK    3  A    between atoms: C_19  and  O_25
REMARK    4  A    between atoms: O_25  and  C_26
REMARK    5  A    between atoms: C_26  and  C_27
REMARK    6  A    between atoms: C_27  and  O_28
REMARK    7  A    between atoms: C_27  and  C_30
REMARK    8  A    between atoms: C_30  and  N_31
REMARK                            x       y       z     vdW  Elec       q    Type
REMARK                         _______ _______ _______ _____ _____    ______ ____
ROOT
ATOM      1  N   UNL     1      34.196 -22.288 -15.951  0.00  0.00    -0.340 NA
ATOM      2  N   UNL     1      32.725 -21.817 -17.717  0.00  0.00    -0.247 N 
ATOM      3  N   UNL     1      31.909 -23.047 -15.892  0.00  0.00    -0.170 NA
ATOM      4  C   UNL     1      34.374 -22.871 -14.749  0.00  0.00    +0.148 C 
ATOM      5  C   UNL     1      33.392 -23.548 -14.064  0.00  0.00    +0.052 C 
ATOM      6  C   UNL     1      32.954 -22.413 -16.458  0.00  0.00    +0.148 C 
ATOM      7  C   UNL     1      32.164 -23.606 -14.692  0.00  0.00    +0.114 C 
ATOM      8  H   UNL     1      31.805 -21.933 -18.048  0.00  0.00    +0.165 HD
ENDROOT
BRANCH   4  11
ATOM      9  N   UNL     1      36.078 -23.111 -12.943  0.00  0.00    -0.251 N 
ATOM     10  N   UNL     1      37.911 -22.284 -13.919  0.00  0.00    -0.393 NA
ATOM     11  C   UNL     1      35.707 -22.734 -14.208  0.00  0.00    +0.181 C 
ATOM     12  C   UNL     1      37.432 -22.816 -12.814  0.00  0.00    +0.187 C 
ATOM     13  C   UNL     1      36.849 -22.231 -14.786  0.00  0.00    +0.114 C 
ATOM     14  C   UNL     1      35.313 -23.682 -11.929  0.00  0.00    +0.068 C 
ATOM     15  C   UNL     1      38.046 -23.125 -11.564  0.00  0.00    +0.048 C 
ATOM     16  C   UNL     1      37.029 -21.681 -16.140  0.00  0.00    +0.064 C 
ATOM     17  C   UNL     1      35.898 -23.970 -10.755  0.00  0.00    +0.016 C 
ATOM     18  C   UNL     1      37.312 -23.677 -10.579  0.00  0.00    +0.005 C 
ENDBRANCH   4  11
BRANCH   2  20
ATOM     19  C   UNL     1      35.194 -19.640 -20.325  0.00  0.00    +0.139 C 
ATOM     20  C   UNL     1      33.553 -21.088 -18.591  0.00  0.00    +0.058 C 
ATOM     21  C   UNL     1      35.744 -20.621 -19.500  0.00  0.00    +0.038 C 
ATOM     22  C   UNL     1      33.825 -19.381 -20.282  0.00  0.00    +0.038 C 
ATOM     23  C   UNL     1      34.924 -21.345 -18.634  0.00  0.00    +0.018 C 
ATOM     24  C   UNL     1      33.004 -20.104 -19.416  0.00  0.00    +0.018 C 
BRANCH  19  25
ATOM     25  O   UNL     1      35.995 -18.934 -21.170  0.00  0.00    -0.473 OA
BRANCH  25  26
ATOM     26  C   UNL     1      35.896 -17.511 -21.120  0.00  0.00    +0.232 C 
BRANCH  26  27
ATOM     27  C   UNL     1      35.658 -16.985 -22.533  0.00  0.00    +0.133 C 
BRANCH  27  28
ATOM     28  O   UNL     1      34.608 -17.746 -23.135  0.00  0.00    -0.383 OA
ATOM     29  H   UNL     1      34.439 -18.541 -22.606  0.00  0.00    +0.210 HD
ENDBRANCH  27  28
BRANCH  27  30
ATOM     30  C   UNL     1      35.257 -15.508 -22.569  0.00  0.00    -0.044 C 
BRANCH  30  31
ATOM     31  N   UNL     1      34.295 -15.227 -23.626  0.00  0.00    +0.386 N 
ATOM     32  C   UNL     1      33.736 -13.882 -23.472  0.00  0.00    -0.101 C 
ATOM     33  C   UNL     1      34.919 -15.368 -24.943  0.00  0.00    -0.101 C 
ATOM     34  H   UNL     1      33.536 -15.904 -23.551  0.00  0.00    -0.080 HD
ENDBRANCH  30  31
ENDBRANCH  27  30
ENDBRANCH  26  27
ENDBRANCH  25  26
ENDBRANCH  19  25
ENDBRANCH   2  20
TORSDOF 8
ENDMDL
MODEL 3
REMARK VINA RESULT:     -10.7      1.938      2.646
REMARK  Name = 447653
REMARK  8 active torsions:
REMARK  status: ('A' for Active; 'I' for Inactive)
REMARK    1  A    between atoms: N_2  and  C_20
REMARK    2  A    between atoms: C_4  and  C_11
REMARK    3  A    between atoms: C_19  and  O_25
REMARK    4  A    between atoms: O_25  and  C_26
REMARK    5  A    between atoms: C_26  and  C_27
REMARK    6  A    between atoms: C_27  and  O_28
REMARK    7  A    between atoms: C_27  and  C_30
REMARK    8  A    between atoms: C_30  and  N_31
REMARK                            x       y       z     vdW  Elec       q    Type
REMARK                         _______ _______ _______ _____ _____    ______ ____
ROOT
ATOM      1  N   UNL     1      35.350 -23.016 -14.287  0.00  0.00    -0.340 NA
ATOM      2  N   UNL     1      33.746 -22.424 -15.894  0.00  0.00    -0.247 N 
ATOM      3  N   UNL     1      33.004 -23.403 -13.895  0.00  0.00    -0.170 NA
ATOM      4  C   UNL     1      35.596 -23.548 -13.075  0.00  0.00    +0.148 C 
ATOM      5  C   UNL     1      34.623 -24.022 -12.225  0.00  0.00    +0.052 C 
ATOM      6  C   UNL     1      34.048 -22.974 -14.630  0.00  0.00    +0.148 C 
ATOM      7  C   UNL     1      33.329 -23.924 -12.694  0.00  0.00    +0.114 C 
ATOM      8  H   UNL     1      32.784 -22.413 -16.102  0.00  0.00    +0.165 HD
ENDROOT
BRANCH   4  11
ATOM      9  N   UNL     1      37.944 -24.345 -13.350  0.00  0.00    -0.251 N 
ATOM     10  N   UNL     1      39.001 -23.256 -11.707  0.00  0.00    -0.393 NA
ATOM     11  C   UNL     1      36.994 -23.590 -12.710  0.00  0.00    +0.181 C 
ATOM     12  C   UNL     1      39.153 -24.107 -12.700  0.00  0.00    +0.187 C 
ATOM     13  C   UNL     1      37.667 -22.932 -11.708  0.00  0.00    +0.114 C 
ATOM     14  C   UNL     1      37.809 -25.203 -14.438  0.00  0.00    +0.068 C 
ATOM     15  C   UNL     1      40.300 -24.794 -13.197  0.00  0.00    +0.048 C 
ATOM     16  C   UNL     1      37.138 -21.987 -10.712  0.00  0.00    +0.064 C 
ATOM     17  C   UNL     1      38.894 -25.846 -14.900  0.00  0.00    +0.016 C 
ATOM     18  C   UNL     1      40.176 -25.625 -14.249  0.00  0.00    +0.005 C 
ENDBRANCH   4  11
BRANCH   2  20
ATOM     19  C   UNL     1      36.145 -20.816 -18.943  0.00  0.00    +0.139 C 
ATOM     20  C   UNL     1      34.551 -21.885 -16.916  0.00  0.00    +0.058 C 
ATOM     21  C   UNL     1      36.684 -21.039 -17.676  0.00  0.00    +0.038 C 
ATOM     22  C   UNL     1      34.810 -21.126 -19.197  0.00  0.00    +0.038 C 
ATOM     23  C   UNL     1      35.888 -21.574 -16.663  0.00  0.00    +0.018 C 
ATOM     24  C   UNL     1      34.013 -21.660 -18.184  0.00  0.00    +0.018 C 
BRANCH  19  25
ATOM     25  O   UNL     1      36.924 -20.294 -19.931  0.00  0.00    -0.473 OA
BRANCH  25  26
ATOM     26  C   UNL     1      37.117 -18.881 -19.926  0.00  0.00    +0.232 C 
BRANCH  26  27
ATOM     27  C   UNL     1      35.918 -18.217 -20.598  0.00  0.00    +0.133 C 
BRANCH  27  28
ATOM     28  O   UNL     1      35.623 -16.998 -19.909  0.00  0.00    -0.383 OA
ATOM     29  H   UNL     1      36.109 -16.267 -20.322  0.00  0.00    +0.210 HD
ENDBRANCH  27  28
BRANCH  27  30
ATOM     30  C   UNL     1      36.157 -17.885 -22.073  0.00  0.00    -0.044 C 
BRANCH  30  31
ATOM     31  N   UNL     1      34.958 -17.368 -22.719  0.00  0.00    +0.386 N 
ATOM     32  C   UNL     1      35.215 -16.052 -23.306  0.00  0.00    -0.101 C 
ATOM     33  C   UNL     1      34.484 -18.297 -23.747  0.00  0.00    -0.101 C 
ATOM     34  H   UNL     1      34.233 -17.271 -22.009  0.00  0.00    -0.080 HD
ENDBRANCH  30  31
ENDBRANCH  27  30
ENDBRANCH  26  27
ENDBRANCH  25  26
ENDBRANCH  19  25
ENDBRANCH   2  20
TORSDOF 8
ENDMDL
MODEL 4
REMARK VINA RESULT:     -10.2      4.257     12.531
REMARK  Name = 447653
REMARK  8 active torsions:
REMARK  status: ('A' for Active; 'I' for Inactive)
REMARK    1  A    between atoms: N_2  and  C_20
REMARK    2  A    between atoms: C_4  and  C_11
REMARK    3  A    between atoms: C_19  and  O_25
REMARK    4  A    between atoms: O_25  and  C_26
REMARK    5  A    between atoms: C_26  and  C_27
REMARK    6  A    between atoms: C_27  and  O_28
REMARK    7  A    between atoms: C_27  and  C_30
REMARK    8  A    between atoms: C_30  and  N_31
REMARK                            x       y       z     vdW  Elec       q    Type
REMARK                         _______ _______ _______ _____ _____    ______ ____
ROOT
ATOM      1  N   UNL     1      33.683 -10.916 -22.732  0.00  0.00    -0.340 NA
ATOM      2  N   UNL     1      34.554 -12.707 -23.972  0.00  0.00    -0.247 N 
ATOM      3  N   UNL     1      33.996 -10.734 -25.115  0.00  0.00    -0.170 NA
ATOM      4  C   UNL     1      33.211  -9.654 -22.741  0.00  0.00    +0.148 C 
ATOM      5  C   UNL     1      33.099  -8.878 -23.872  0.00  0.00    +0.052 C 
ATOM      6  C   UNL     1      34.053 -11.387 -23.938  0.00  0.00    +0.148 C 
ATOM      7  C   UNL     1      33.511  -9.478 -25.045  0.00  0.00    +0.114 C 
ATOM      8  H   UNL     1      34.813 -13.009 -24.873  0.00  0.00    +0.165 HD
ENDROOT
BRANCH   4  11
ATOM      9  N   UNL     1      32.346  -9.929 -20.418  0.00  0.00    -0.251 N 
ATOM     10  N   UNL     1      32.357  -7.824 -19.665  0.00  0.00    -0.393 NA
ATOM     11  C   UNL     1      32.815  -9.152 -21.445  0.00  0.00    +0.181 C 
ATOM     12  C   UNL     1      32.079  -9.073 -19.353  0.00  0.00    +0.187 C 
ATOM     13  C   UNL     1      32.812  -7.866 -20.958  0.00  0.00    +0.114 C 
ATOM     14  C   UNL     1      32.146 -11.306 -20.368  0.00  0.00    +0.068 C 
ATOM     15  C   UNL     1      31.574  -9.664 -18.157  0.00  0.00    +0.048 C 
ATOM     16  C   UNL     1      33.219  -6.625 -21.638  0.00  0.00    +0.064 C 
ATOM     17  C   UNL     1      31.670 -11.856 -19.239  0.00  0.00    +0.016 C 
ATOM     18  C   UNL     1      31.378 -10.996 -18.103  0.00  0.00    +0.005 C 
ENDBRANCH   4  11
BRANCH   2  20
ATOM     19  C   UNL     1      35.161 -15.595 -20.984  0.00  0.00    +0.139 C 
ATOM     20  C   UNL     1      34.758 -13.675 -22.971  0.00  0.00    +0.058 C 
ATOM     21  C   UNL     1      35.366 -15.924 -22.324  0.00  0.00    +0.038 C 
ATOM     22  C   UNL     1      34.755 -14.307 -20.637  0.00  0.00    +0.038 C 
ATOM     23  C   UNL     1      35.165 -14.964 -23.316  0.00  0.00    +0.018 C 
ATOM     24  C   UNL     1      34.553 -13.347 -21.629  0.00  0.00    +0.018 C 
BRANCH  19  25
ATOM     25  O   UNL     1      35.358 -16.531 -20.015  0.00  0.00    -0.473 OA
BRANCH  25  26
ATOM     26  C   UNL     1      36.050 -17.720 -20.394  0.00  0.00    +0.232 C 
BRANCH  26  27
ATOM     27  C   UNL     1      35.093 -18.904 -20.284  0.00  0.00    +0.133 C 
BRANCH  27  28
ATOM     28  O   UNL     1      34.464 -19.106 -21.552  0.00  0.00    -0.383 OA
ATOM     29  H   UNL     1      34.711 -18.387 -22.154  0.00  0.00    +0.210 HD
ENDBRANCH  27  28
BRANCH  27  30
ATOM     30  C   UNL     1      35.787 -20.208 -19.883  0.00  0.00    -0.044 C 
BRANCH  30  31
ATOM     31  N   UNL     1      35.500 -20.580 -18.504  0.00  0.00    +0.386 N 
ATOM     32  C   UNL     1      34.514 -21.662 -18.456  0.00  0.00    -0.101 C 
ATOM     33  C   UNL     1      36.726 -20.980 -17.810  0.00  0.00    -0.101 C 
ATOM     34  H   UNL     1      35.109 -19.765 -18.031  0.00  0.00    -0.080 HD
ENDBRANCH  30  31
ENDBRANCH  27  30
ENDBRANCH  26  27
ENDBRANCH  25  26
ENDBRANCH  19  25
ENDBRANCH   2  20
TORSDOF 8
ENDMDL
MODEL 5
REMARK VINA RESULT:     -10.2      4.869     13.186
REMARK  Name = 447653
REMARK  8 active torsions:
REMARK  status: ('A' for Active; 'I' for Inactive)
REMARK    1  A    between atoms: N_2  and  C_20
REMARK    2  A    between atoms: C_4  and  C_11
REMARK    3  A    between atoms: C_19  and  O_25
REMARK    4  A    between atoms: O_25  and  C_26
REMARK    5  A    between atoms: C_26  and  C_27
REMARK    6  A    between atoms: C_27  and  O_28
REMARK    7  A    between atoms: C_27  and  C_30
REMARK    8  A    between atoms: C_30  and  N_31
REMARK                            x       y       z     vdW  Elec       q    Type
REMARK                         _______ _______ _______ _____ _____    ______ ____
ROOT
ATOM      1  N   UNL     1      33.472 -10.788 -22.287  0.00  0.00    -0.340 NA
ATOM      2  N   UNL     1      34.456 -12.440 -23.630  0.00  0.00    -0.247 N 
ATOM      3  N   UNL     1      33.826 -10.418 -24.642  0.00  0.00    -0.170 NA
ATOM      4  C   UNL     1      32.938  -9.553 -22.217  0.00  0.00    +0.148 C 
ATOM      5  C   UNL     1      32.813  -8.703 -23.292  0.00  0.00    +0.052 C 
ATOM      6  C   UNL     1      33.891 -11.152 -23.515  0.00  0.00    +0.148 C 
ATOM      7  C   UNL     1      33.279  -9.195 -24.494  0.00  0.00    +0.114 C 
ATOM      8  H   UNL     1      34.749 -12.663 -24.544  0.00  0.00    +0.165 HD
ENDROOT
BRANCH   4  11
ATOM      9  N   UNL     1      32.526  -7.886 -20.408  0.00  0.00    -0.251 N 
ATOM     10  N   UNL     1      31.662  -9.162 -18.787  0.00  0.00    -0.393 NA
ATOM     11  C   UNL     1      32.490  -9.166 -20.899  0.00  0.00    +0.181 C 
ATOM     12  C   UNL     1      32.011  -7.935 -19.115  0.00  0.00    +0.187 C 
ATOM     13  C   UNL     1      31.956  -9.929 -19.887  0.00  0.00    +0.114 C 
ATOM     14  C   UNL     1      32.973  -6.716 -21.015  0.00  0.00    +0.068 C 
ATOM     15  C   UNL     1      31.949  -6.705 -18.396  0.00  0.00    +0.048 C 
ATOM     16  C   UNL     1      31.691 -11.376 -19.869  0.00  0.00    +0.064 C 
ATOM     17  C   UNL     1      32.912  -5.562 -20.332  0.00  0.00    +0.016 C 
ATOM     18  C   UNL     1      32.380  -5.570 -18.978  0.00  0.00    +0.005 C 
ENDBRANCH   4  11
BRANCH   2  20
ATOM     19  C   UNL     1      35.145 -15.508 -20.846  0.00  0.00    +0.139 C 
ATOM     20  C   UNL     1      34.686 -13.468 -22.697  0.00  0.00    +0.058 C 
ATOM     21  C   UNL     1      34.723 -14.252 -20.410  0.00  0.00    +0.038 C 
ATOM     22  C   UNL     1      35.338 -15.745 -22.206  0.00  0.00    +0.038 C 
ATOM     23  C   UNL     1      34.493 -13.233 -21.335  0.00  0.00    +0.018 C 
ATOM     24  C   UNL     1      35.110 -14.726 -23.131  0.00  0.00    +0.018 C 
BRANCH  19  25
ATOM     25  O   UNL     1      35.368 -16.502 -19.942  0.00  0.00    -0.473 OA
BRANCH  25  26
ATOM     26  C   UNL     1      36.052 -17.663 -20.411  0.00  0.00    +0.232 C 
BRANCH  26  27
ATOM     27  C   UNL     1      35.106 -18.858 -20.331  0.00  0.00    +0.133 C 
BRANCH  27  28
ATOM     28  O   UNL     1      34.506 -19.055 -21.614  0.00  0.00    -0.383 OA
ATOM     29  H   UNL     1      33.554 -18.881 -21.557  0.00  0.00    +0.210 HD
ENDBRANCH  27  28
BRANCH  27  30
ATOM     30  C   UNL     1      35.806 -20.158 -19.927  0.00  0.00    -0.044 C 
BRANCH  30  31
ATOM     31  N   UNL     1      35.515 -20.532 -18.550  0.00  0.00    +0.386 N 
ATOM     32  C   UNL     1      34.519 -21.604 -18.505  0.00  0.00    -0.101 C 
ATOM     33  C   UNL     1      36.737 -20.946 -17.858  0.00  0.00    -0.101 C 
ATOM     34  H   UNL     1      35.133 -19.714 -18.074  0.00  0.00    -0.080 HD
ENDBRANCH  30  31
ENDBRANCH  27  30
ENDBRANCH  26  27
ENDBRANCH  25  26
ENDBRANCH  19  25
ENDBRANCH   2  20
TORSDOF 8
ENDMDL
MODEL 6
REMARK VINA RESULT:     -10.0      2.970     11.793
REMARK  Name = 447653
REMARK  8 active torsions:
REMARK  status: ('A' for Active; 'I' for Inactive)
REMARK    1  A    between atoms: N_2  and  C_20
REMARK    2  A    between atoms: C_4  and  C_11
REMARK    3  A    between atoms: C_19  and  O_25
REMARK    4  A    between atoms: O_25  and  C_26
REMARK    5  A    between atoms: C_26  and  C_27
REMARK    6  A    between atoms: C_27  and  O_28
REMARK    7  A    between atoms: C_27  and  C_30
REMARK    8  A    between atoms: C_30  and  N_31
REMARK                            x       y       z     vdW  Elec       q    Type
REMARK                         _______ _______ _______ _____ _____    ______ ____
ROOT
ATOM      1  N   UNL     1      33.951 -14.154 -22.873  0.00  0.00    -0.340 NA
ATOM      2  N   UNL     1      34.884 -16.074 -23.848  0.00  0.00    -0.247 N 
ATOM      3  N   UNL     1      34.347 -14.268 -25.248  0.00  0.00    -0.170 NA
ATOM      4  C   UNL     1      33.467 -12.911 -23.057  0.00  0.00    +0.148 C 
ATOM      5  C   UNL     1      33.389 -12.284 -24.280  0.00  0.00    +0.052 C 
ATOM      6  C   UNL     1      34.369 -14.768 -23.997  0.00  0.00    +0.148 C 
ATOM      7  C   UNL     1      33.848 -13.020 -25.353  0.00  0.00    +0.114 C 
ATOM      8  H   UNL     1      35.178 -16.483 -24.694  0.00  0.00    +0.165 HD
ENDROOT
BRANCH   4  11
ATOM      9  N   UNL     1      32.729 -10.919 -21.749  0.00  0.00    -0.251 N 
ATOM     10  N   UNL     1      32.371 -11.799 -19.725  0.00  0.00    -0.393 NA
ATOM     11  C   UNL     1      33.020 -12.256 -21.849  0.00  0.00    +0.181 C 
ATOM     12  C   UNL     1      32.338 -10.689 -20.433  0.00  0.00    +0.187 C 
ATOM     13  C   UNL     1      32.792 -12.772 -20.596  0.00  0.00    +0.114 C 
ATOM     14  C   UNL     1      32.787  -9.924 -22.721  0.00  0.00    +0.068 C 
ATOM     15  C   UNL     1      31.983  -9.352 -20.087  0.00  0.00    +0.048 C 
ATOM     16  C   UNL     1      32.945 -14.161 -20.132  0.00  0.00    +0.064 C 
ATOM     17  C   UNL     1      32.451  -8.667 -22.388  0.00  0.00    +0.016 C 
ATOM     18  C   UNL     1      32.037  -8.384 -21.023  0.00  0.00    +0.005 C 
ENDBRANCH   4  11
BRANCH   2  20
ATOM     19  C   UNL     1      35.413 -18.554 -20.500  0.00  0.00    +0.139 C 
ATOM     20  C   UNL     1      35.062 -16.905 -22.726  0.00  0.00    +0.058 C 
ATOM     21  C   UNL     1      34.955 -19.093 -21.702  0.00  0.00    +0.038 C 
ATOM     22  C   UNL     1      35.694 -17.191 -20.410  0.00  0.00    +0.038 C 
ATOM     23  C   UNL     1      34.780 -18.270 -22.815  0.00  0.00    +0.018 C 
ATOM     24  C   UNL     1      35.519 -16.367 -21.521  0.00  0.00    +0.018 C 
BRANCH  19  25
ATOM     25  O   UNL     1      35.584 -19.359 -19.415  0.00  0.00    -0.473 OA
BRANCH  25  26
ATOM     26  C   UNL     1      35.187 -20.722 -19.550  0.00  0.00    +0.232 C 
BRANCH  26  27
ATOM     27  C   UNL     1      33.926 -20.953 -18.722  0.00  0.00    +0.133 C 
BRANCH  27  28
ATOM     28  O   UNL     1      32.794 -20.933 -19.594  0.00  0.00    -0.383 OA
ATOM     29  H   UNL     1      32.661 -21.816 -19.973  0.00  0.00    +0.210 HD
ENDBRANCH  27  28
BRANCH  27  30
ATOM     30  C   UNL     1      33.929 -22.289 -17.974  0.00  0.00    -0.044 C 
BRANCH  30  31
ATOM     31  N   UNL     1      33.596 -22.129 -16.565  0.00  0.00    +0.386 N 
ATOM     32  C   UNL     1      32.321 -22.779 -16.258  0.00  0.00    -0.101 C 
ATOM     33  C   UNL     1      34.659 -22.675 -15.718  0.00  0.00    -0.101 C 
ATOM     34  H   UNL     1      33.507 -21.132 -16.373  0.00  0.00    -0.080 HD
ENDBRANCH  30  31
ENDBRANCH  27  30
ENDBRANCH  26  27
ENDBRANCH  25  26
ENDBRANCH  19  25
ENDBRANCH   2  20
TORSDOF 8
ENDMDL
MODEL 7
REMARK VINA RESULT:      -9.9      4.285     12.942
REMARK  Name = 447653
REMARK  8 active torsions:
REMARK  status: ('A' for Active; 'I' for Inactive)
REMARK    1  A    between atoms: N_2  and  C_20
REMARK    2  A    between atoms: C_4  and  C_11
REMARK    3  A    between atoms: C_19  and  O_25
REMARK    4  A    between atoms: O_25  and  C_26
REMARK    5  A    between atoms: C_26  and  C_27
REMARK    6  A    between atoms: C_27  and  O_28
REMARK    7  A    between atoms: C_27  and  C_30
REMARK    8  A    between atoms: C_30  and  N_31
REMARK                            x       y       z     vdW  Elec       q    Type
REMARK                         _______ _______ _______ _____ _____    ______ ____
ROOT
ATOM      1  N   UNL     1      33.404 -10.938 -22.339  0.00  0.00    -0.340 NA
ATOM      2  N   UNL     1      32.561 -12.569 -20.878  0.00  0.00    -0.247 N 
ATOM      3  N   UNL     1      31.418 -10.526 -21.037  0.00  0.00    -0.170 NA
ATOM      4  C   UNL     1      33.269  -9.702 -22.857  0.00  0.00    +0.148 C 
ATOM      5  C   UNL     1      32.257  -8.831 -22.526  0.00  0.00    +0.052 C 
ATOM      6  C   UNL     1      32.455 -11.281 -21.446  0.00  0.00    +0.148 C 
ATOM      7  C   UNL     1      31.349  -9.302 -21.599  0.00  0.00    +0.114 C 
ATOM      8  H   UNL     1      31.847 -12.777 -20.232  0.00  0.00    +0.165 HD
ENDROOT
BRANCH   4  11
ATOM      9  N   UNL     1      34.549 -10.023 -24.974  0.00  0.00    -0.251 N 
ATOM     10  N   UNL     1      35.984  -8.309 -24.914  0.00  0.00    -0.393 NA
ATOM     11  C   UNL     1      34.288  -9.338 -23.815  0.00  0.00    +0.181 C 
ATOM     12  C   UNL     1      35.593  -9.357 -25.610  0.00  0.00    +0.187 C 
ATOM     13  C   UNL     1      35.180  -8.292 -23.802  0.00  0.00    +0.114 C 
ATOM     14  C   UNL     1      33.940 -11.166 -25.485  0.00  0.00    +0.068 C 
ATOM     15  C   UNL     1      36.044  -9.895 -26.852  0.00  0.00    +0.048 C 
ATOM     16  C   UNL     1      35.345  -7.237 -22.789  0.00  0.00    +0.064 C 
ATOM     17  C   UNL     1      34.369 -11.666 -26.654  0.00  0.00    +0.016 C 
ATOM     18  C   UNL     1      35.458 -11.000 -27.351  0.00  0.00    +0.005 C 
ENDBRANCH   4  11
BRANCH   2  20
ATOM     19  C   UNL     1      35.321 -15.691 -21.407  0.00  0.00    +0.139 C 
ATOM     20  C   UNL     1      33.485 -13.616 -21.055  0.00  0.00    +0.058 C 
ATOM     21  C   UNL     1      34.905 -15.337 -20.123  0.00  0.00    +0.038 C 
ATOM     22  C   UNL     1      34.820 -15.007 -22.514  0.00  0.00    +0.038 C 
ATOM     23  C   UNL     1      33.988 -14.301 -19.947  0.00  0.00    +0.018 C 
ATOM     24  C   UNL     1      33.904 -13.970 -22.339  0.00  0.00    +0.018 C 
BRANCH  19  25
ATOM     25  O   UNL     1      36.215 -16.703 -21.577  0.00  0.00    -0.473 OA
BRANCH  25  26
ATOM     26  C   UNL     1      36.252 -17.712 -20.570  0.00  0.00    +0.232 C 
BRANCH  26  27
ATOM     27  C   UNL     1      35.174 -18.750 -20.873  0.00  0.00    +0.133 C 
BRANCH  27  28
ATOM     28  O   UNL     1      35.173 -19.013 -22.279  0.00  0.00    -0.383 OA
ATOM     29  H   UNL     1      34.312 -18.769 -22.654  0.00  0.00    +0.210 HD
ENDBRANCH  27  28
BRANCH  27  30
ATOM     30  C   UNL     1      35.388 -20.077 -20.140  0.00  0.00    -0.044 C 
BRANCH  30  31
ATOM     31  N   UNL     1      34.317 -20.357 -19.193  0.00  0.00    +0.386 N 
ATOM     32  C   UNL     1      33.017 -19.999 -19.762  0.00  0.00    -0.101 C 
ATOM     33  C   UNL     1      34.329 -21.769 -18.804  0.00  0.00    -0.101 C 
ATOM     34  H   UNL     1      34.475 -19.789 -18.361  0.00  0.00    -0.080 HD
ENDBRANCH  30  31
ENDBRANCH  27  30
ENDBRANCH  26  27
ENDBRANCH  25  26
ENDBRANCH  19  25
ENDBRANCH   2  20
TORSDOF 8
ENDMDL
MODEL 8
REMARK VINA RESULT:      -9.9      5.183     13.038
REMARK  Name = 447653
REMARK  8 active torsions:
REMARK  status: ('A' for Active; 'I' for Inactive)
REMARK    1  A    between atoms: N_2  and  C_20
REMARK    2  A    between atoms: C_4  and  C_11
REMARK    3  A    between atoms: C_19  and  O_25
REMARK    4  A    between atoms: O_25  and  C_26
REMARK    5  A    between atoms: C_26  and  C_27
REMARK    6  A    between atoms: C_27  and  O_28
REMARK    7  A    between atoms: C_27  and  C_30
REMARK    8  A    between atoms: C_30  and  N_31
REMARK                            x       y       z     vdW  Elec       q    Type
REMARK                         _______ _______ _______ _____ _____    ______ ____
ROOT
ATOM      1  N   UNL     1      33.153  -9.224 -22.566  0.00  0.00    -0.340 NA
ATOM      2  N   UNL     1      33.792 -10.210 -24.597  0.00  0.00    -0.247 N 
ATOM      3  N   UNL     1      33.346  -7.907 -24.576  0.00  0.00    -0.170 NA
ATOM      4  C   UNL     1      32.794  -8.100 -21.916  0.00  0.00    +0.148 C 
ATOM      5  C   UNL     1      32.688  -6.863 -22.509  0.00  0.00    +0.052 C 
ATOM      6  C   UNL     1      33.412  -9.057 -23.878  0.00  0.00    +0.148 C 
ATOM      7  C   UNL     1      32.979  -6.826 -23.858  0.00  0.00    +0.114 C 
ATOM      8  H   UNL     1      33.972 -10.041 -25.550  0.00  0.00    +0.165 HD
ENDROOT
BRANCH   4  11
ATOM      9  N   UNL     1      32.196  -9.483 -19.928  0.00  0.00    -0.251 N 
ATOM     10  N   UNL     1      32.195  -7.963 -18.287  0.00  0.00    -0.393 NA
ATOM     11  C   UNL     1      32.518  -8.283 -20.509  0.00  0.00    +0.181 C 
ATOM     12  C   UNL     1      32.008  -9.235 -18.570  0.00  0.00    +0.187 C 
ATOM     13  C   UNL     1      32.510  -7.369 -19.483  0.00  0.00    +0.114 C 
ATOM     14  C   UNL     1      32.064 -10.742 -20.507  0.00  0.00    +0.068 C 
ATOM     15  C   UNL     1      31.660 -10.350 -17.751  0.00  0.00    +0.048 C 
ATOM     16  C   UNL     1      32.786  -5.924 -19.538  0.00  0.00    +0.064 C 
ATOM     17  C   UNL     1      31.737 -11.786 -19.729  0.00  0.00    +0.016 C 
ATOM     18  C   UNL     1      31.531 -11.571 -18.306  0.00  0.00    +0.005 C 
ENDBRANCH   4  11
BRANCH   2  20
ATOM     19  C   UNL     1      34.313 -14.223 -23.470  0.00  0.00    +0.139 C 
ATOM     20  C   UNL     1      33.966 -11.555 -24.219  0.00  0.00    +0.058 C 
ATOM     21  C   UNL     1      34.636 -13.200 -22.578  0.00  0.00    +0.038 C 
ATOM     22  C   UNL     1      33.818 -13.913 -24.737  0.00  0.00    +0.038 C 
ATOM     23  C   UNL     1      34.462 -11.868 -22.952  0.00  0.00    +0.018 C 
ATOM     24  C   UNL     1      33.645 -12.580 -25.111  0.00  0.00    +0.018 C 
BRANCH  19  25
ATOM     25  O   UNL     1      34.482 -15.523 -23.105  0.00  0.00    -0.473 OA
BRANCH  25  26
ATOM     26  C   UNL     1      35.385 -15.783 -22.031  0.00  0.00    +0.232 C 
BRANCH  26  27
ATOM     27  C   UNL     1      35.608 -17.289 -21.928  0.00  0.00    +0.133 C 
BRANCH  27  28
ATOM     28  O   UNL     1      36.984 -17.569 -22.200  0.00  0.00    -0.383 OA
ATOM     29  H   UNL     1      37.158 -17.451 -23.146  0.00  0.00    +0.210 HD
ENDBRANCH  27  28
BRANCH  27  30
ATOM     30  C   UNL     1      35.269 -17.859 -20.548  0.00  0.00    -0.044 C 
BRANCH  30  31
ATOM     31  N   UNL     1      35.073 -19.302 -20.585  0.00  0.00    +0.386 N 
ATOM     32  C   UNL     1      36.088 -19.982 -19.777  0.00  0.00    -0.101 C 
ATOM     33  C   UNL     1      33.732 -19.653 -20.112  0.00  0.00    -0.101 C 
ATOM     34  H   UNL     1      35.168 -19.610 -21.552  0.00  0.00    -0.080 HD
ENDBRANCH  30  31
ENDBRANCH  27  30
ENDBRANCH  26  27
ENDBRANCH  25  26
ENDBRANCH  19  25
ENDBRANCH   2  20
TORSDOF 8
ENDMDL
MODEL 9
REMARK VINA RESULT:      -9.9      1.789      4.221
REMARK  Name = 447653
REMARK  8 active torsions:
REMARK  status: ('A' for Active; 'I' for Inactive)
REMARK    1  A    between atoms: N_2  and  C_20
REMARK    2  A    between atoms: C_4  and  C_11
REMARK    3  A    between atoms: C_19  and  O_25
REMARK    4  A    between atoms: O_25  and  C_26
REMARK    5  A    between atoms: C_26  and  C_27
REMARK    6  A    between atoms: C_27  and  O_28
REMARK    7  A    between atoms: C_27  and  C_30
REMARK    8  A    between atoms: C_30  and  N_31
REMARK                            x       y       z     vdW  Elec       q    Type
REMARK                         _______ _______ _______ _____ _____    ______ ____
ROOT
ATOM      1  N   UNL     1      35.135 -21.758 -16.826  0.00  0.00    -0.340 NA
ATOM      2  N   UNL     1      37.062 -20.903 -17.856  0.00  0.00    -0.247 N 
ATOM      3  N   UNL     1      37.326 -22.229 -15.938  0.00  0.00    -0.170 NA
ATOM      4  C   UNL     1      34.618 -22.495 -15.825  0.00  0.00    +0.148 C 
ATOM      5  C   UNL     1      35.370 -23.122 -14.857  0.00  0.00    +0.052 C 
ATOM      6  C   UNL     1      36.480 -21.668 -16.823  0.00  0.00    +0.148 C 
ATOM      7  C   UNL     1      36.735 -22.951 -14.965  0.00  0.00    +0.114 C 
ATOM      8  H   UNL     1      38.045 -20.865 -17.815  0.00  0.00    +0.165 HD
ENDROOT
BRANCH   4  11
ATOM      9  N   UNL     1      32.432 -23.225 -14.871  0.00  0.00    -0.251 N 
ATOM     10  N   UNL     1      30.978 -22.415 -16.365  0.00  0.00    -0.393 NA
ATOM     11  C   UNL     1      33.176 -22.590 -15.832  0.00  0.00    +0.181 C 
ATOM     12  C   UNL     1      31.096 -23.091 -15.242  0.00  0.00    +0.187 C 
ATOM     13  C   UNL     1      32.262 -22.101 -16.735  0.00  0.00    +0.114 C 
ATOM     14  C   UNL     1      32.850 -23.894 -13.724  0.00  0.00    +0.068 C 
ATOM     15  C   UNL     1      30.124 -23.682 -14.381  0.00  0.00    +0.048 C 
ATOM     16  C   UNL     1      32.508 -21.335 -17.968  0.00  0.00    +0.064 C 
ATOM     17  C   UNL     1      31.928 -24.447 -12.919  0.00  0.00    +0.016 C 
ATOM     18  C   UNL     1      30.522 -24.330 -13.270  0.00  0.00    +0.005 C 
ENDBRANCH   4  11
BRANCH   2  20
ATOM     19  C   UNL     1      35.429 -18.759 -21.078  0.00  0.00    +0.139 C 
ATOM     20  C   UNL     1      36.514 -20.184 -18.935  0.00  0.00    +0.058 C 
ATOM     21  C   UNL     1      34.687 -19.769 -20.464  0.00  0.00    +0.038 C 
ATOM     22  C   UNL     1      36.713 -18.462 -20.622  0.00  0.00    +0.038 C 
ATOM     23  C   UNL     1      35.229 -20.480 -19.393  0.00  0.00    +0.018 C 
ATOM     24  C   UNL     1      37.255 -19.174 -19.552  0.00  0.00    +0.018 C 
BRANCH  19  25
ATOM     25  O   UNL     1      34.899 -18.065 -22.122  0.00  0.00    -0.473 OA
BRANCH  25  26
ATOM     26  C   UNL     1      35.617 -16.916 -22.568  0.00  0.00    +0.232 C 
BRANCH  26  27
ATOM     27  C   UNL     1      34.832 -15.664 -22.185  0.00  0.00    +0.133 C 
BRANCH  27  28
ATOM     28  O   UNL     1      35.190 -15.287 -20.853  0.00  0.00    -0.383 OA
ATOM     29  H   UNL     1      34.646 -14.535 -20.572  0.00  0.00    +0.210 HD
ENDBRANCH  27  28
BRANCH  27  30
ATOM     30  C   UNL     1      35.103 -14.473 -23.107  0.00  0.00    -0.044 C 
BRANCH  30  31
ATOM     31  N   UNL     1      33.908 -13.671 -23.333  0.00  0.00    +0.386 N 
ATOM     32  C   UNL     1      34.139 -12.279 -22.941  0.00  0.00    -0.101 C 
ATOM     33  C   UNL     1      33.497 -13.740 -24.737  0.00  0.00    -0.101 C 
ATOM     34  H   UNL     1      33.159 -14.051 -22.755  0.00  0.00    -0.080 HD
ENDBRANCH  30  31
ENDBRANCH  27  30
ENDBRANCH  26  27
ENDBRANCH  25  26
ENDBRANCH  19  25
ENDBRANCH   2  20
TORSDOF 8
ENDMDL
