MODEL 1
REMARK VINA RESULT:     -11.5      0.000      0.000
REMARK  Name = 23650961
REMARK  5 active torsions:
REMARK  status: ('A' for Active; 'I' for Inactive)
REMARK    1  A    between atoms: N_1  and  C_23
REMARK    2  A    between atoms: C_5  and  C_12
REMARK    3  A    between atoms: C_23  and  C_24
REMARK    4  A    between atoms: C_24  and  C_25
REMARK    5  A    between atoms: C_25  and  C_27
REMARK                            x       y       z     vdW  Elec       q    Type
REMARK                         _______ _______ _______ _____ _____    ______ ____
ROOT
ATOM      1  N   UNL     1      35.249 -16.855 -22.780  0.00  0.00    -0.268 N 
ATOM      2  N   UNL     1      34.385 -15.012 -23.948  0.00  0.00    -0.342 NA
ATOM      3  N   UNL     1      35.184 -14.779 -21.687  0.00  0.00    -0.170 NA
ATOM      4  C   UNL     1      34.930 -15.506 -22.806  0.00  0.00    +0.144 C 
ATOM      5  C   UNL     1      34.302 -12.868 -22.856  0.00  0.00    +0.061 C 
ATOM      6  C   UNL     1      34.085 -13.697 -23.939  0.00  0.00    +0.123 C 
ATOM      7  C   UNL     1      34.859 -13.471 -21.746  0.00  0.00    +0.113 C 
ATOM      8  C   UNL     1      33.488 -13.165 -25.201  0.00  0.00    +0.067 C 
ATOM      9  H   UNL     1      35.069 -17.389 -23.586  0.00  0.00    +0.159 HD
ENDROOT
BRANCH   5  12
ATOM     10  N   UNL     1      32.867 -10.977 -22.223  0.00  0.00    -0.314 N 
ATOM     11  N   UNL     1      34.671 -10.509 -23.434  0.00  0.00    -0.315 N 
ATOM     12  C   UNL     1      33.978 -11.467 -22.856  0.00  0.00    +0.171 C 
ATOM     13  C   UNL     1      32.843  -9.618 -22.406  0.00  0.00    +0.059 C 
ATOM     14  C   UNL     1      33.980  -9.350 -23.164  0.00  0.00    +0.055 C 
ATOM     15  C   UNL     1      34.260  -8.024 -23.534  0.00  0.00    -0.008 C 
ATOM     16  C   UNL     1      31.952  -8.629 -21.985  0.00  0.00    +0.011 C 
ATOM     17  C   UNL     1      32.245  -7.315 -22.363  0.00  0.00    -0.021 C 
ATOM     18  C   UNL     1      33.377  -7.015 -23.123  0.00  0.00    -0.007 C 
ATOM     19  C   UNL     1      35.457  -7.652 -24.346  0.00  0.00    +0.032 C 
ATOM     20  C   UNL     1      31.330  -6.212 -21.942  0.00  0.00    +0.031 C 
ATOM     21  H   UNL     1      32.203 -11.506 -21.726  0.00  0.00    +0.149 HD
ATOM     22  H   UNL     1      35.506 -10.601 -23.949  0.00  0.00    +0.149 HD
ENDBRANCH   5  12
BRANCH   1  23
ATOM     23  C   UNL     1      35.832 -17.518 -21.639  0.00  0.00    +0.098 C 
BRANCH  23  24
ATOM     24  C   UNL     1      34.903 -18.608 -21.113  0.00  0.00    +0.022 C 
BRANCH  24  25
ATOM     25  C   UNL     1      35.667 -19.773 -20.482  0.00  0.00    +0.002 C 
BRANCH  25  27
ATOM     26  N   UNL     1      33.974 -22.294 -17.411  0.00  0.00    +0.385 N 
ATOM     27  C   UNL     1      35.037 -20.193 -19.156  0.00  0.00    -0.004 C 
ATOM     28  C   UNL     1      35.943 -21.173 -18.404  0.00  0.00    -0.023 C 
ATOM     29  C   UNL     1      33.660 -20.826 -19.376  0.00  0.00    -0.023 C 
ATOM     30  C   UNL     1      35.276 -21.677 -17.123  0.00  0.00    -0.077 C 
ATOM     31  C   UNL     1      33.067 -21.340 -18.063  0.00  0.00    -0.077 C 
ATOM     32  C   UNL     1      33.371 -22.816 -16.184  0.00  0.00    -0.101 C 
ATOM     33  H   UNL     1      34.130 -23.071 -18.054  0.00  0.00    -0.080 HD
ENDBRANCH  25  27
ENDBRANCH  24  25
ENDBRANCH  23  24
ENDBRANCH   1  23
TORSDOF 5
ENDMDL
MODEL 2
REMARK VINA RESULT:     -11.4      3.465     13.043
REMARK  Name = 23650961
REMARK  5 active torsions:
REMARK  status: ('A' for Active; 'I' for Inactive)
REMARK    1  A    between atoms: N_1  and  C_23
REMARK    2  A    between atoms: C_5  and  C_12
REMARK    3  A    between atoms: C_23  and  C_24
REMARK    4  A    between atoms: C_24  and  C_25
REMARK    5  A    between atoms: C_25  and  C_27
REMARK                            x       y       z     vdW  Elec       q    Type
REMARK                         _______ _______ _______ _____ _____    ______ ____
ROOT
ATOM      1  N   UNL     1      35.145 -20.063 -20.252  0.00  0.00    -0.268 N 
ATOM      2  N   UNL     1      34.472 -21.411 -18.452  0.00  0.00    -0.342 NA
ATOM      3  N   UNL     1      36.638 -20.355 -18.465  0.00  0.00    -0.170 NA
ATOM      4  C   UNL     1      35.427 -20.627 -19.017  0.00  0.00    +0.144 C 
ATOM      5  C   UNL     1      35.980 -21.732 -16.603  0.00  0.00    +0.061 C 
ATOM      6  C   UNL     1      34.780 -21.944 -17.252  0.00  0.00    +0.123 C 
ATOM      7  C   UNL     1      36.880 -20.921 -17.264  0.00  0.00    +0.113 C 
ATOM      8  C   UNL     1      33.722 -22.804 -16.641  0.00  0.00    +0.067 C 
ATOM      9  H   UNL     1      34.270 -20.255 -20.659  0.00  0.00    +0.159 HD
ENDROOT
BRANCH   5  12
ATOM     10  N   UNL     1      35.491 -22.143 -14.231  0.00  0.00    -0.314 N 
ATOM     11  N   UNL     1      37.359 -23.034 -15.041  0.00  0.00    -0.315 N 
ATOM     12  C   UNL     1      36.299 -22.306 -15.324  0.00  0.00    +0.171 C 
ATOM     13  C   UNL     1      36.067 -22.806 -13.178  0.00  0.00    +0.059 C 
ATOM     14  C   UNL     1      37.232 -23.354 -13.709  0.00  0.00    +0.055 C 
ATOM     15  C   UNL     1      38.073 -24.113 -12.877  0.00  0.00    -0.008 C 
ATOM     16  C   UNL     1      35.681 -22.970 -11.846  0.00  0.00    +0.011 C 
ATOM     17  C   UNL     1      36.530 -23.727 -11.033  0.00  0.00    -0.021 C 
ATOM     18  C   UNL     1      37.705 -24.289 -11.536  0.00  0.00    -0.007 C 
ATOM     19  C   UNL     1      39.340 -24.733 -13.368  0.00  0.00    +0.032 C 
ATOM     20  C   UNL     1      36.171 -23.939  -9.599  0.00  0.00    +0.031 C 
ATOM     21  H   UNL     1      34.647 -21.639 -14.205  0.00  0.00    +0.149 HD
ATOM     22  H   UNL     1      38.088 -23.293 -15.651  0.00  0.00    +0.149 HD
ENDBRANCH   5  12
BRANCH   1  23
ATOM     23  C   UNL     1      36.060 -19.211 -20.971  0.00  0.00    +0.098 C 
BRANCH  23  24
ATOM     24  C   UNL     1      35.307 -18.101 -21.700  0.00  0.00    +0.022 C 
BRANCH  24  25
ATOM     25  C   UNL     1      35.706 -16.708 -21.213  0.00  0.00    +0.002 C 
BRANCH  25  27
ATOM     26  N   UNL     1      33.775 -14.134 -24.094  0.00  0.00    +0.385 N 
ATOM     27  C   UNL     1      35.530 -15.665 -22.314  0.00  0.00    -0.004 C 
ATOM     28  C   UNL     1      34.689 -14.482 -21.822  0.00  0.00    -0.023 C 
ATOM     29  C   UNL     1      34.879 -16.282 -23.556  0.00  0.00    -0.023 C 
ATOM     30  C   UNL     1      34.423 -13.482 -22.948  0.00  0.00    -0.077 C 
ATOM     31  C   UNL     1      34.607 -15.222 -24.626  0.00  0.00    -0.077 C 
ATOM     32  C   UNL     1      33.480 -13.157 -25.142  0.00  0.00    -0.101 C 
ATOM     33  H   UNL     1      32.896 -14.540 -23.770  0.00  0.00    -0.080 HD
ENDBRANCH  25  27
ENDBRANCH  24  25
ENDBRANCH  23  24
ENDBRANCH   1  23
TORSDOF 5
ENDMDL
MODEL 3
REMARK VINA RESULT:     -11.4      2.762     11.571
REMARK  Name = 23650961
REMARK  5 active torsions:
REMARK  status: ('A' for Active; 'I' for Inactive)
REMARK    1  A    between atoms: N_1  and  C_23
REMARK    2  A    between atoms: C_5  and  C_12
REMARK    3  A    between atoms: C_23  and  C_24
REMARK    4  A    between atoms: C_24  and  C_25
REMARK    5  A    between atoms: C_25  and  C_27
REMARK                            x       y       z     vdW  Elec       q    Type
REMARK                         _______ _______ _______ _____ _____    ______ ____
ROOT
ATOM      1  N   UNL     1      35.472 -18.486 -22.182  0.00  0.00    -0.268 N 
ATOM      2  N   UNL     1      35.989 -19.697 -20.239  0.00  0.00    -0.342 NA
ATOM      3  N   UNL     1      33.704 -19.417 -20.952  0.00  0.00    -0.170 NA
ATOM      4  C   UNL     1      35.041 -19.223 -21.090  0.00  0.00    +0.144 C 
ATOM      5  C   UNL     1      34.199 -20.664 -18.952  0.00  0.00    +0.061 C 
ATOM      6  C   UNL     1      35.535 -20.409 -19.187  0.00  0.00    +0.123 C 
ATOM      7  C   UNL     1      33.319 -20.137 -19.877  0.00  0.00    +0.113 C 
ATOM      8  C   UNL     1      36.587 -20.924 -18.259  0.00  0.00    +0.067 C 
ATOM      9  H   UNL     1      36.439 -18.341 -22.291  0.00  0.00    +0.159 HD
ENDROOT
BRANCH   5  12
ATOM     10  N   UNL     1      32.391 -21.619 -17.590  0.00  0.00    -0.314 N 
ATOM     11  N   UNL     1      34.472 -22.009 -16.915  0.00  0.00    -0.315 N 
ATOM     12  C   UNL     1      33.725 -21.423 -17.827  0.00  0.00    +0.171 C 
ATOM     13  C   UNL     1      32.271 -22.376 -16.453  0.00  0.00    +0.059 C 
ATOM     14  C   UNL     1      33.583 -22.608 -16.051  0.00  0.00    +0.055 C 
ATOM     15  C   UNL     1      33.822 -23.369 -14.894  0.00  0.00    -0.008 C 
ATOM     16  C   UNL     1      31.160 -22.866 -15.764  0.00  0.00    +0.011 C 
ATOM     17  C   UNL     1      31.415 -23.621 -14.614  0.00  0.00    -0.021 C 
ATOM     18  C   UNL     1      32.721 -23.870 -14.186  0.00  0.00    -0.007 C 
ATOM     19  C   UNL     1      35.198 -23.662 -14.395  0.00  0.00    +0.032 C 
ATOM     20  C   UNL     1      30.268 -24.173 -13.833  0.00  0.00    +0.031 C 
ATOM     21  H   UNL     1      31.649 -21.276 -18.138  0.00  0.00    +0.149 HD
ATOM     22  H   UNL     1      35.455 -22.017 -16.861  0.00  0.00    +0.149 HD
ENDBRANCH   5  12
BRANCH   1  23
ATOM     23  C   UNL     1      34.583 -17.921 -23.168  0.00  0.00    +0.098 C 
BRANCH  23  24
ATOM     24  C   UNL     1      34.940 -16.464 -23.448  0.00  0.00    +0.022 C 
BRANCH  24  25
ATOM     25  C   UNL     1      35.599 -15.784 -22.248  0.00  0.00    +0.002 C 
BRANCH  25  27
ATOM     26  N   UNL     1      32.639 -12.738 -21.461  0.00  0.00    +0.385 N 
ATOM     27  C   UNL     1      34.990 -14.408 -21.989  0.00  0.00    -0.004 C 
ATOM     28  C   UNL     1      34.308 -14.358 -20.618  0.00  0.00    -0.023 C 
ATOM     29  C   UNL     1      33.982 -14.037 -23.082  0.00  0.00    -0.023 C 
ATOM     30  C   UNL     1      33.608 -13.017 -20.393  0.00  0.00    -0.077 C 
ATOM     31  C   UNL     1      33.294 -12.706 -22.775  0.00  0.00    -0.077 C 
ATOM     32  C   UNL     1      31.942 -11.478 -21.206  0.00  0.00    -0.101 C 
ATOM     33  H   UNL     1      31.954 -13.495 -21.469  0.00  0.00    -0.080 HD
ENDBRANCH  25  27
ENDBRANCH  24  25
ENDBRANCH  23  24
ENDBRANCH   1  23
TORSDOF 5
ENDMDL
MODEL 4
REMARK VINA RESULT:     -11.3      1.454      2.795
REMARK  Name = 23650961
REMARK  5 active torsions:
REMARK  status: ('A' for Active; 'I' for Inactive)
REMARK    1  A    between atoms: N_1  and  C_23
REMARK    2  A    between atoms: C_5  and  C_12
REMARK    3  A    between atoms: C_23  and  C_24
REMARK    4  A    between atoms: C_24  and  C_25
REMARK    5  A    between atoms: C_25  and  C_27
REMARK                            x       y       z     vdW  Elec       q    Type
REMARK                         _______ _______ _______ _____ _____    ______ ____
ROOT
ATOM      1  N   UNL     1      36.267 -18.261 -21.163  0.00  0.00    -0.268 N 
ATOM      2  N   UNL     1      35.404 -16.604 -22.583  0.00  0.00    -0.342 NA
ATOM      3  N   UNL     1      35.480 -16.272 -20.198  0.00  0.00    -0.170 NA
ATOM      4  C   UNL     1      35.699 -17.006 -21.319  0.00  0.00    +0.144 C 
ATOM      5  C   UNL     1      34.587 -14.552 -21.626  0.00  0.00    +0.061 C 
ATOM      6  C   UNL     1      34.852 -15.379 -22.699  0.00  0.00    +0.123 C 
ATOM      7  C   UNL     1      34.925 -15.056 -20.386  0.00  0.00    +0.113 C 
ATOM      8  C   UNL     1      34.532 -14.948 -24.094  0.00  0.00    +0.067 C 
ATOM      9  H   UNL     1      36.430 -18.800 -21.970  0.00  0.00    +0.159 HD
ENDROOT
BRANCH   5  12
ATOM     10  N   UNL     1      34.479 -12.318 -22.643  0.00  0.00    -0.314 N 
ATOM     11  N   UNL     1      32.962 -12.789 -21.089  0.00  0.00    -0.315 N 
ATOM     12  C   UNL     1      33.997 -13.247 -21.761  0.00  0.00    +0.171 C 
ATOM     13  C   UNL     1      33.707 -11.190 -22.531  0.00  0.00    +0.059 C 
ATOM     14  C   UNL     1      32.767 -11.509 -21.556  0.00  0.00    +0.055 C 
ATOM     15  C   UNL     1      31.803 -10.553 -21.194  0.00  0.00    -0.008 C 
ATOM     16  C   UNL     1      33.748  -9.955 -23.181  0.00  0.00    +0.011 C 
ATOM     17  C   UNL     1      32.783  -9.015 -22.808  0.00  0.00    -0.021 C 
ATOM     18  C   UNL     1      31.826  -9.306 -21.833  0.00  0.00    -0.007 C 
ATOM     19  C   UNL     1      30.761 -10.816 -20.157  0.00  0.00    +0.032 C 
ATOM     20  C   UNL     1      32.774  -7.675 -23.469  0.00  0.00    +0.031 C 
ATOM     21  H   UNL     1      35.245 -12.437 -23.249  0.00  0.00    +0.149 HD
ATOM     22  H   UNL     1      32.439 -13.261 -20.400  0.00  0.00    +0.149 HD
ENDBRANCH   5  12
BRANCH   1  23
ATOM     23  C   UNL     1      36.633 -18.820 -19.884  0.00  0.00    +0.098 C 
BRANCH  23  24
ATOM     24  C   UNL     1      36.257 -20.298 -19.811  0.00  0.00    +0.022 C 
BRANCH  24  25
ATOM     25  C   UNL     1      34.817 -20.511 -19.344  0.00  0.00    +0.002 C 
BRANCH  25  27
ATOM     26  N   UNL     1      34.185 -22.462 -15.542  0.00  0.00    +0.385 N 
ATOM     27  C   UNL     1      34.735 -21.618 -18.295  0.00  0.00    -0.004 C 
ATOM     28  C   UNL     1      33.311 -21.749 -17.744  0.00  0.00    -0.023 C 
ATOM     29  C   UNL     1      35.713 -21.360 -17.144  0.00  0.00    -0.023 C 
ATOM     30  C   UNL     1      33.242 -22.785 -16.621  0.00  0.00    -0.077 C 
ATOM     31  C   UNL     1      35.565 -22.410 -16.042  0.00  0.00    -0.077 C 
ATOM     32  C   UNL     1      34.071 -23.433 -14.454  0.00  0.00    -0.101 C 
ATOM     33  H   UNL     1      33.946 -21.538 -15.182  0.00  0.00    -0.080 HD
ENDBRANCH  25  27
ENDBRANCH  24  25
ENDBRANCH  23  24
ENDBRANCH   1  23
TORSDOF 5
ENDMDL
MODEL 5
REMARK VINA RESULT:     -11.2      1.263      2.007
REMARK  Name = 23650961
REMARK  5 active torsions:
REMARK  status: ('A' for Active; 'I' for Inactive)
REMARK    1  A    between atoms: N_1  and  C_23
REMARK    2  A    between atoms: C_5  and  C_12
REMARK    3  A    between atoms: C_23  and  C_24
REMARK    4  A    between atoms: C_24  and  C_25
REMARK    5  A    between atoms: C_25  and  C_27
REMARK                            x       y       z     vdW  Elec       q    Type
REMARK                         _______ _______ _______ _____ _____    ______ ____
ROOT
ATOM      1  N   UNL     1      35.818 -18.238 -21.401  0.00  0.00    -0.268 N 
ATOM      2  N   UNL     1      35.103 -16.621 -22.944  0.00  0.00    -0.342 NA
ATOM      3  N   UNL     1      35.391 -16.068 -20.617  0.00  0.00    -0.170 NA
ATOM      4  C   UNL     1      35.425 -16.934 -21.662  0.00  0.00    +0.144 C 
ATOM      5  C   UNL     1      34.655 -14.385 -22.174  0.00  0.00    +0.061 C 
ATOM      6  C   UNL     1      34.725 -15.345 -23.163  0.00  0.00    +0.123 C 
ATOM      7  C   UNL     1      35.003 -14.808 -20.907  0.00  0.00    +0.113 C 
ATOM      8  C   UNL     1      34.373 -15.013 -24.577  0.00  0.00    +0.067 C 
ATOM      9  H   UNL     1      35.846 -18.873 -22.152  0.00  0.00    +0.159 HD
ENDROOT
BRANCH   5  12
ATOM     10  N   UNL     1      33.243 -12.429 -21.707  0.00  0.00    -0.314 N 
ATOM     11  N   UNL     1      34.766 -12.210 -23.311  0.00  0.00    -0.315 N 
ATOM     12  C   UNL     1      34.250 -13.027 -22.417  0.00  0.00    +0.171 C 
ATOM     13  C   UNL     1      33.102 -11.148 -22.174  0.00  0.00    +0.059 C 
ATOM     14  C   UNL     1      34.064 -11.034 -23.174  0.00  0.00    +0.055 C 
ATOM     15  C   UNL     1      34.189  -9.821 -23.871  0.00  0.00    -0.008 C 
ATOM     16  C   UNL     1      32.241 -10.108 -21.818  0.00  0.00    +0.011 C 
ATOM     17  C   UNL     1      32.379  -8.907 -22.522  0.00  0.00    -0.021 C 
ATOM     18  C   UNL     1      33.334  -8.763 -23.530  0.00  0.00    -0.007 C 
ATOM     19  C   UNL     1      35.194  -9.618 -24.957  0.00  0.00    +0.032 C 
ATOM     20  C   UNL     1      31.488  -7.757 -22.186  0.00  0.00    +0.031 C 
ATOM     21  H   UNL     1      32.714 -12.846 -20.990  0.00  0.00    +0.149 HD
ATOM     22  H   UNL     1      35.498 -12.399 -23.943  0.00  0.00    +0.149 HD
ENDBRANCH   5  12
BRANCH   1  23
ATOM     23  C   UNL     1      36.188 -18.716 -20.090  0.00  0.00    +0.098 C 
BRANCH  23  24
ATOM     24  C   UNL     1      35.932 -20.215 -19.968  0.00  0.00    +0.022 C 
BRANCH  24  25
ATOM     25  C   UNL     1      34.547 -20.526 -19.400  0.00  0.00    +0.002 C 
BRANCH  25  27
ATOM     26  N   UNL     1      34.360 -22.439 -15.531  0.00  0.00    +0.385 N 
ATOM     27  C   UNL     1      34.620 -21.616 -18.333  0.00  0.00    -0.004 C 
ATOM     28  C   UNL     1      33.259 -21.816 -17.657  0.00  0.00    -0.023 C 
ATOM     29  C   UNL     1      35.678 -21.283 -17.276  0.00  0.00    -0.023 C 
ATOM     30  C   UNL     1      33.347 -22.834 -16.519  0.00  0.00    -0.077 C 
ATOM     31  C   UNL     1      35.686 -22.320 -16.151  0.00  0.00    -0.077 C 
ATOM     32  C   UNL     1      34.397 -23.394 -14.424  0.00  0.00    -0.101 C 
ATOM     33  H   UNL     1      34.101 -21.523 -15.164  0.00  0.00    -0.080 HD
ENDBRANCH  25  27
ENDBRANCH  24  25
ENDBRANCH  23  24
ENDBRANCH   1  23
TORSDOF 5
ENDMDL
MODEL 6
REMARK VINA RESULT:     -10.8      2.773     12.344
REMARK  Name = 23650961
REMARK  5 active torsions:
REMARK  status: ('A' for Active; 'I' for Inactive)
REMARK    1  A    between atoms: N_1  and  C_23
REMARK    2  A    between atoms: C_5  and  C_12
REMARK    3  A    between atoms: C_23  and  C_24
REMARK    4  A    between atoms: C_24  and  C_25
REMARK    5  A    between atoms: C_25  and  C_27
REMARK                            x       y       z     vdW  Elec       q    Type
REMARK                         _______ _______ _______ _____ _____    ______ ____
ROOT
ATOM      1  N   UNL     1      35.047 -18.903 -21.397  0.00  0.00    -0.268 N 
ATOM      2  N   UNL     1      34.232 -20.300 -19.696  0.00  0.00    -0.342 NA
ATOM      3  N   UNL     1      36.527 -19.568 -19.703  0.00  0.00    -0.170 NA
ATOM      4  C   UNL     1      35.276 -19.612 -20.228  0.00  0.00    +0.144 C 
ATOM      5  C   UNL     1      35.724 -21.002 -17.943  0.00  0.00    +0.061 C 
ATOM      6  C   UNL     1      34.489 -20.979 -18.560  0.00  0.00    +0.123 C 
ATOM      7  C   UNL     1      36.716 -20.271 -18.566  0.00  0.00    +0.113 C 
ATOM      8  C   UNL     1      33.333 -21.730 -17.985  0.00  0.00    +0.067 C 
ATOM      9  H   UNL     1      34.143 -18.929 -21.785  0.00  0.00    +0.159 HD
ENDROOT
BRANCH   5  12
ATOM     10  N   UNL     1      37.262 -22.036 -16.330  0.00  0.00    -0.314 N 
ATOM     11  N   UNL     1      35.089 -22.180 -15.883  0.00  0.00    -0.315 N 
ATOM     12  C   UNL     1      35.989 -21.731 -16.732  0.00  0.00    +0.171 C 
ATOM     13  C   UNL     1      37.176 -22.727 -15.149  0.00  0.00    +0.059 C 
ATOM     14  C   UNL     1      35.811 -22.804 -14.890  0.00  0.00    +0.055 C 
ATOM     15  C   UNL     1      35.368 -23.462 -13.730  0.00  0.00    -0.008 C 
ATOM     16  C   UNL     1      38.147 -23.275 -14.308  0.00  0.00    +0.011 C 
ATOM     17  C   UNL     1      37.690 -23.928 -13.159  0.00  0.00    -0.021 C 
ATOM     18  C   UNL     1      36.326 -24.021 -12.873  0.00  0.00    -0.007 C 
ATOM     19  C   UNL     1      33.922 -23.589 -13.381  0.00  0.00    +0.032 C 
ATOM     20  C   UNL     1      38.680 -24.534 -12.219  0.00  0.00    +0.031 C 
ATOM     21  H   UNL     1      38.091 -21.802 -16.805  0.00  0.00    +0.149 HD
ATOM     22  H   UNL     1      34.110 -22.090 -15.945  0.00  0.00    +0.149 HD
ENDBRANCH   5  12
BRANCH   1  23
ATOM     23  C   UNL     1      36.058 -18.129 -22.076  0.00  0.00    +0.098 C 
BRANCH  23  24
ATOM     24  C   UNL     1      35.910 -16.644 -21.754  0.00  0.00    +0.022 C 
BRANCH  24  25
ATOM     25  C   UNL     1      35.362 -15.843 -22.936  0.00  0.00    +0.002 C 
BRANCH  25  27
ATOM     26  N   UNL     1      32.740 -12.720 -21.512  0.00  0.00    +0.385 N 
ATOM     27  C   UNL     1      34.883 -14.462 -22.492  0.00  0.00    -0.004 C 
ATOM     28  C   UNL     1      34.403 -14.488 -21.037  0.00  0.00    -0.023 C 
ATOM     29  C   UNL     1      33.759 -13.952 -23.399  0.00  0.00    -0.023 C 
ATOM     30  C   UNL     1      33.829 -13.134 -20.617  0.00  0.00    -0.077 C 
ATOM     31  C   UNL     1      33.206 -12.616 -22.901  0.00  0.00    -0.077 C 
ATOM     32  C   UNL     1      32.167 -11.449 -21.068  0.00  0.00    -0.101 C 
ATOM     33  H   UNL     1      32.014 -13.436 -21.476  0.00  0.00    -0.080 HD
ENDBRANCH  25  27
ENDBRANCH  24  25
ENDBRANCH  23  24
ENDBRANCH   1  23
TORSDOF 5
ENDMDL
MODEL 7
REMARK VINA RESULT:     -10.7      2.042      4.008
REMARK  Name = 23650961
REMARK  5 active torsions:
REMARK  status: ('A' for Active; 'I' for Inactive)
REMARK    1  A    between atoms: N_1  and  C_23
REMARK    2  A    between atoms: C_5  and  C_12
REMARK    3  A    between atoms: C_23  and  C_24
REMARK    4  A    between atoms: C_24  and  C_25
REMARK    5  A    between atoms: C_25  and  C_27
REMARK                            x       y       z     vdW  Elec       q    Type
REMARK                         _______ _______ _______ _____ _____    ______ ____
ROOT
ATOM      1  N   UNL     1      33.458 -13.962 -22.692  0.00  0.00    -0.268 N 
ATOM      2  N   UNL     1      32.313 -12.219 -21.617  0.00  0.00    -0.342 NA
ATOM      3  N   UNL     1      34.025 -11.754 -23.246  0.00  0.00    -0.170 NA
ATOM      4  C   UNL     1      33.259 -12.602 -22.513  0.00  0.00    +0.144 C 
ATOM      5  C   UNL     1      32.870  -9.941 -22.161  0.00  0.00    +0.061 C 
ATOM      6  C   UNL     1      32.145 -10.889 -21.466  0.00  0.00    +0.123 C 
ATOM      7  C   UNL     1      33.806 -10.437 -23.047  0.00  0.00    +0.113 C 
ATOM      8  C   UNL     1      31.101 -10.481 -20.478  0.00  0.00    +0.067 C 
ATOM      9  H   UNL     1      32.908 -14.585 -22.165  0.00  0.00    +0.159 HD
ENDROOT
BRANCH   5  12
ATOM     10  N   UNL     1      32.471  -7.688 -23.055  0.00  0.00    -0.314 N 
ATOM     11  N   UNL     1      32.691  -7.871 -20.851  0.00  0.00    -0.315 N 
ATOM     12  C   UNL     1      32.684  -8.525 -21.993  0.00  0.00    +0.171 C 
ATOM     13  C   UNL     1      32.334  -6.414 -22.567  0.00  0.00    +0.059 C 
ATOM     14  C   UNL     1      32.474  -6.554 -21.189  0.00  0.00    +0.055 C 
ATOM     15  C   UNL     1      32.383  -5.415 -20.371  0.00  0.00    -0.008 C 
ATOM     16  C   UNL     1      32.104  -5.188 -23.193  0.00  0.00    +0.011 C 
ATOM     17  C   UNL     1      32.018  -4.064 -22.365  0.00  0.00    -0.021 C 
ATOM     18  C   UNL     1      32.154  -4.173 -20.979  0.00  0.00    -0.007 C 
ATOM     19  C   UNL     1      32.523  -5.480 -18.886  0.00  0.00    +0.032 C 
ATOM     20  C   UNL     1      31.772  -2.723 -22.975  0.00  0.00    +0.031 C 
ATOM     21  H   UNL     1      32.426  -7.953 -24.002  0.00  0.00    +0.149 HD
ATOM     22  H   UNL     1      32.823  -8.243 -19.949  0.00  0.00    +0.149 HD
ENDBRANCH   5  12
BRANCH   1  23
ATOM     23  C   UNL     1      34.426 -14.516 -23.607  0.00  0.00    +0.098 C 
BRANCH  23  24
ATOM     24  C   UNL     1      35.493 -15.306 -22.855  0.00  0.00    +0.022 C 
BRANCH  24  25
ATOM     25  C   UNL     1      35.322 -16.817 -23.013  0.00  0.00    +0.002 C 
BRANCH  25  27
ATOM     26  N   UNL     1      36.101 -19.909 -20.099  0.00  0.00    +0.385 N 
ATOM     27  C   UNL     1      35.415 -17.528 -21.665  0.00  0.00    -0.004 C 
ATOM     28  C   UNL     1      36.864 -17.913 -21.345  0.00  0.00    -0.023 C 
ATOM     29  C   UNL     1      34.530 -18.777 -21.638  0.00  0.00    -0.023 C 
ATOM     30  C   UNL     1      36.953 -18.714 -20.045  0.00  0.00    -0.077 C 
ATOM     31  C   UNL     1      34.696 -19.549 -20.327  0.00  0.00    -0.077 C 
ATOM     32  C   UNL     1      36.237 -20.691 -18.870  0.00  0.00    -0.101 C 
ATOM     33  H   UNL     1      36.411 -20.481 -20.886  0.00  0.00    -0.080 HD
ENDBRANCH  25  27
ENDBRANCH  24  25
ENDBRANCH  23  24
ENDBRANCH   1  23
TORSDOF 5
ENDMDL
MODEL 8
REMARK VINA RESULT:     -10.3      4.348      8.199
REMARK  Name = 23650961
REMARK  5 active torsions:
REMARK  status: ('A' for Active; 'I' for Inactive)
REMARK    1  A    between atoms: N_1  and  C_23
REMARK    2  A    between atoms: C_5  and  C_12
REMARK    3  A    between atoms: C_23  and  C_24
REMARK    4  A    between atoms: C_24  and  C_25
REMARK    5  A    between atoms: C_25  and  C_27
REMARK                            x       y       z     vdW  Elec       q    Type
REMARK                         _______ _______ _______ _____ _____    ______ ____
ROOT
ATOM      1  N   UNL     1      34.069 -22.888 -16.562  0.00  0.00    -0.268 N 
ATOM      2  N   UNL     1      35.449 -21.680 -18.026  0.00  0.00    -0.342 NA
ATOM      3  N   UNL     1      33.066 -21.322 -17.993  0.00  0.00    -0.170 NA
ATOM      4  C   UNL     1      34.198 -21.933 -17.558  0.00  0.00    +0.144 C 
ATOM      5  C   UNL     1      34.453 -20.066 -19.509  0.00  0.00    +0.061 C 
ATOM      6  C   UNL     1      35.539 -20.746 -18.996  0.00  0.00    +0.123 C 
ATOM      7  C   UNL     1      33.229 -20.399 -18.964  0.00  0.00    +0.113 C 
ATOM      8  C   UNL     1      36.919 -20.477 -19.501  0.00  0.00    +0.067 C 
ATOM      9  H   UNL     1      34.884 -23.336 -16.240  0.00  0.00    +0.159 HD
ENDROOT
BRANCH   5  12
ATOM     10  N   UNL     1      34.886 -17.771 -20.272  0.00  0.00    -0.314 N 
ATOM     11  N   UNL     1      34.369 -19.268 -21.831  0.00  0.00    -0.315 N 
ATOM     12  C   UNL     1      34.559 -19.073 -20.544  0.00  0.00    +0.171 C 
ATOM     13  C   UNL     1      34.906 -17.086 -21.459  0.00  0.00    +0.059 C 
ATOM     14  C   UNL     1      34.581 -18.041 -22.417  0.00  0.00    +0.055 C 
ATOM     15  C   UNL     1      34.514 -17.662 -23.769  0.00  0.00    -0.008 C 
ATOM     16  C   UNL     1      35.174 -15.751 -21.768  0.00  0.00    +0.011 C 
ATOM     17  C   UNL     1      35.102 -15.390 -23.118  0.00  0.00    -0.021 C 
ATOM     18  C   UNL     1      34.778 -16.326 -24.102  0.00  0.00    -0.007 C 
ATOM     19  C   UNL     1      34.171 -18.626 -24.857  0.00  0.00    +0.032 C 
ATOM     20  C   UNL     1      35.379 -13.977 -23.512  0.00  0.00    +0.031 C 
ATOM     21  H   UNL     1      35.073 -17.395 -19.383  0.00  0.00    +0.149 HD
ATOM     22  H   UNL     1      34.127 -20.111 -22.279  0.00  0.00    +0.149 HD
ENDBRANCH   5  12
BRANCH   1  23
ATOM     23  C   UNL     1      32.807 -23.261 -15.969  0.00  0.00    +0.098 C 
BRANCH  23  24
ATOM     24  C   UNL     1      32.733 -22.799 -14.517  0.00  0.00    +0.022 C 
BRANCH  24  25
ATOM     25  C   UNL     1      33.398 -23.786 -13.556  0.00  0.00    +0.002 C 
BRANCH  25  27
ATOM     26  N   UNL     1      37.563 -24.376 -12.574  0.00  0.00    +0.385 N 
ATOM     27  C   UNL     1      34.897 -23.519 -13.440  0.00  0.00    -0.004 C 
ATOM     28  C   UNL     1      35.705 -24.581 -14.194  0.00  0.00    -0.023 C 
ATOM     29  C   UNL     1      35.338 -23.478 -11.974  0.00  0.00    -0.023 C 
ATOM     30  C   UNL     1      37.208 -24.379 -14.000  0.00  0.00    -0.077 C 
ATOM     31  C   UNL     1      36.854 -23.311 -11.853  0.00  0.00    -0.077 C 
ATOM     32  C   UNL     1      39.009 -24.234 -12.406  0.00  0.00    -0.101 C 
ATOM     33  H   UNL     1      37.274 -25.271 -12.177  0.00  0.00    -0.080 HD
ENDBRANCH  25  27
ENDBRANCH  24  25
ENDBRANCH  23  24
ENDBRANCH   1  23
TORSDOF 5
ENDMDL
MODEL 9
REMARK VINA RESULT:     -10.3      4.579      7.884
REMARK  Name = 23650961
REMARK  5 active torsions:
REMARK  status: ('A' for Active; 'I' for Inactive)
REMARK    1  A    between atoms: N_1  and  C_23
REMARK    2  A    between atoms: C_5  and  C_12
REMARK    3  A    between atoms: C_23  and  C_24
REMARK    4  A    between atoms: C_24  and  C_25
REMARK    5  A    between atoms: C_25  and  C_27
REMARK                            x       y       z     vdW  Elec       q    Type
REMARK                         _______ _______ _______ _____ _____    ______ ____
ROOT
ATOM      1  N   UNL     1      34.074 -22.952 -17.012  0.00  0.00    -0.268 N 
ATOM      2  N   UNL     1      35.480 -21.625 -18.343  0.00  0.00    -0.342 NA
ATOM      3  N   UNL     1      33.115 -21.183 -18.219  0.00  0.00    -0.170 NA
ATOM      4  C   UNL     1      34.228 -21.886 -17.886  0.00  0.00    +0.144 C 
ATOM      5  C   UNL     1      34.528 -19.803 -19.596  0.00  0.00    +0.061 C 
ATOM      6  C   UNL     1      35.593 -20.583 -19.192  0.00  0.00    +0.123 C 
ATOM      7  C   UNL     1      33.300 -20.154 -19.072  0.00  0.00    +0.113 C 
ATOM      8  C   UNL     1      36.976 -20.306 -19.687  0.00  0.00    +0.067 C 
ATOM      9  H   UNL     1      34.875 -23.467 -16.764  0.00  0.00    +0.159 HD
ENDROOT
BRANCH   5  12
ATOM     10  N   UNL     1      34.635 -18.857 -21.861  0.00  0.00    -0.314 N 
ATOM     11  N   UNL     1      34.811 -17.430 -20.166  0.00  0.00    -0.315 N 
ATOM     12  C   UNL     1      34.659 -18.694 -20.501  0.00  0.00    +0.171 C 
ATOM     13  C   UNL     1      34.782 -17.621 -22.436  0.00  0.00    +0.059 C 
ATOM     14  C   UNL     1      34.889 -16.747 -21.358  0.00  0.00    +0.055 C 
ATOM     15  C   UNL     1      35.053 -15.373 -21.603  0.00  0.00    -0.008 C 
ATOM     16  C   UNL     1      34.828 -17.205 -23.768  0.00  0.00    +0.011 C 
ATOM     17  C   UNL     1      34.992 -15.835 -23.994  0.00  0.00    -0.021 C 
ATOM     18  C   UNL     1      35.103 -14.933 -22.933  0.00  0.00    -0.007 C 
ATOM     19  C   UNL     1      35.177 -14.370 -20.503  0.00  0.00    +0.032 C 
ATOM     20  C   UNL     1      35.048 -15.327 -25.397  0.00  0.00    +0.031 C 
ATOM     21  H   UNL     1      34.532 -19.710 -22.339  0.00  0.00    +0.149 HD
ATOM     22  H   UNL     1      34.859 -17.054 -19.257  0.00  0.00    +0.149 HD
ENDBRANCH   5  12
BRANCH   1  23
ATOM     23  C   UNL     1      32.807 -23.347 -16.446  0.00  0.00    +0.098 C 
BRANCH  23  24
ATOM     24  C   UNL     1      32.687 -22.869 -15.002  0.00  0.00    +0.022 C 
BRANCH  24  25
ATOM     25  C   UNL     1      33.281 -23.864 -14.005  0.00  0.00    +0.002 C 
BRANCH  25  27
ATOM     26  N   UNL     1      37.318 -24.299 -12.530  0.00  0.00    +0.385 N 
ATOM     27  C   UNL     1      34.741 -23.534 -13.698  0.00  0.00    -0.004 C 
ATOM     28  C   UNL     1      35.684 -24.536 -14.372  0.00  0.00    -0.023 C 
ATOM     29  C   UNL     1      34.996 -23.519 -12.188  0.00  0.00    -0.023 C 
ATOM     30  C   UNL     1      37.141 -24.273 -13.989  0.00  0.00    -0.077 C 
ATOM     31  C   UNL     1      36.476 -23.289 -11.876  0.00  0.00    -0.077 C 
ATOM     32  C   UNL     1      38.724 -24.097 -12.181  0.00  0.00    -0.101 C 
ATOM     33  H   UNL     1      37.026 -25.217 -12.194  0.00  0.00    -0.080 HD
ENDBRANCH  25  27
ENDBRANCH  24  25
ENDBRANCH  23  24
ENDBRANCH   1  23
TORSDOF 5
ENDMDL
