MODEL 1
REMARK VINA RESULT:     -11.9      0.000      0.000
REMARK  Name = 23586145
REMARK  7 active torsions:
REMARK  status: ('A' for Active; 'I' for Inactive)
REMARK    1  A    between atoms: C_5  and  O_24
REMARK    2  A    between atoms: C_7  and  N_10
REMARK    3  A    between atoms: N_10  and  C_12
REMARK    4  A    between atoms: C_15  and  S_18
REMARK    5  A    between atoms: S_18  and  N_21
REMARK    6  A    between atoms: O_24  and  C_25
REMARK    7  A    between atoms: C_25  and  C_26
REMARK                            x       y       z     vdW  Elec       q    Type
REMARK                         _______ _______ _______ _____ _____    ______ ____
ROOT
ATOM      1  N   UNL     1      31.841 -22.009 -17.036  0.00  0.00    -0.299 NA
ATOM      2  N   UNL     1      32.195 -22.962 -14.856  0.00  0.00    -0.106 N 
ATOM      3  N   UNL     1      31.457 -23.277 -13.759  0.00  0.00    -0.139 NA
ATOM      4  N   UNL     1      30.117 -22.379 -15.367  0.00  0.00    -0.145 NA
ATOM      5  C   UNL     1      33.114 -22.169 -17.204  0.00  0.00    +0.291 C 
ATOM      6  C   UNL     1      34.089 -22.735 -16.247  0.00  0.00    +0.105 C 
ATOM      7  C   UNL     1      33.573 -23.124 -15.067  0.00  0.00    +0.142 C 
ATOM      8  C   UNL     1      31.351 -22.413 -15.828  0.00  0.00    +0.178 C 
ATOM      9  C   UNL     1      30.233 -22.909 -14.123  0.00  0.00    +0.230 C 
ENDROOT
BRANCH   7  10
ATOM     10  N   UNL     1      34.307 -23.670 -14.054  0.00  0.00    -0.299 N 
ATOM     11  H   UNL     1      33.819 -23.846 -13.217  0.00  0.00    +0.153 HD
BRANCH  10  12
ATOM     12  C   UNL     1      35.665 -24.011 -14.051  0.00  0.00    +0.049 C 
ATOM     13  C   UNL     1      36.623 -23.102 -13.584  0.00  0.00    +0.016 C 
ATOM     14  C   UNL     1      36.081 -25.266 -14.515  0.00  0.00    +0.016 C 
ATOM     15  C   UNL     1      38.381 -24.694 -14.046  0.00  0.00    +0.122 C 
ATOM     16  C   UNL     1      37.976 -23.443 -13.582  0.00  0.00    +0.021 C 
ATOM     17  C   UNL     1      37.434 -25.606 -14.512  0.00  0.00    +0.021 C 
BRANCH  15  18
ATOM     18  S   UNL     1      40.075 -25.120 -14.042  0.00  0.00    +0.057 S 
ATOM     19  O   UNL     1      40.791 -24.149 -13.227  0.00  0.00    -0.153 OA
ATOM     20  O   UNL     1      40.194 -26.541 -13.747  0.00  0.00    -0.153 OA
BRANCH  18  21
ATOM     21  N   UNL     1      40.476 -24.866 -15.684  0.00  0.00    -0.203 NA
ATOM     22  H   UNL     1      41.294 -24.259 -15.743  0.00  0.00    +0.144 HD
ATOM     23  H   UNL     1      39.691 -24.426 -16.162  0.00  0.00    +0.144 HD
ENDBRANCH  18  21
ENDBRANCH  15  18
ENDBRANCH  10  12
ENDBRANCH   7  10
BRANCH   5  24
ATOM     24  O   UNL     1      33.684 -21.804 -18.348  0.00  0.00    -0.451 OA
BRANCH  24  25
ATOM     25  C   UNL     1      35.071 -21.531 -18.271  0.00  0.00    +0.208 C 
BRANCH  25  26
ATOM     26  C   UNL     1      35.460 -20.662 -19.466  0.00  0.00    +0.044 C 
ATOM     27  C   UNL     1      34.277 -19.791 -19.910  0.00  0.00    +0.004 C 
ATOM     28  C   UNL     1      36.681 -19.796 -19.131  0.00  0.00    +0.004 C 
ATOM     29  C   UNL     1      34.657 -18.875 -21.071  0.00  0.00    +0.000 C 
ATOM     30  C   UNL     1      37.057 -18.878 -20.293  0.00  0.00    +0.000 C 
ATOM     31  C   UNL     1      35.876 -18.021 -20.737  0.00  0.00    +0.000 C 
ENDBRANCH  25  26
ENDBRANCH  24  25
ENDBRANCH   5  24
TORSDOF 7
ENDMDL
MODEL 2
REMARK VINA RESULT:     -11.8      3.334      7.113
REMARK  Name = 23586145
REMARK  7 active torsions:
REMARK  status: ('A' for Active; 'I' for Inactive)
REMARK    1  A    between atoms: C_5  and  O_24
REMARK    2  A    between atoms: C_7  and  N_10
REMARK    3  A    between atoms: N_10  and  C_12
REMARK    4  A    between atoms: C_15  and  S_18
REMARK    5  A    between atoms: S_18  and  N_21
REMARK    6  A    between atoms: O_24  and  C_25
REMARK    7  A    between atoms: C_25  and  C_26
REMARK                            x       y       z     vdW  Elec       q    Type
REMARK                         _______ _______ _______ _____ _____    ______ ____
ROOT
ATOM      1  N   UNL     1      32.885 -22.875 -13.829  0.00  0.00    -0.299 NA
ATOM      2  N   UNL     1      31.933 -22.428 -15.992  0.00  0.00    -0.106 N 
ATOM      3  N   UNL     1      30.707 -22.185 -16.525  0.00  0.00    -0.139 NA
ATOM      4  N   UNL     1      30.529 -22.494 -14.276  0.00  0.00    -0.145 NA
ATOM      5  C   UNL     1      34.018 -22.935 -14.450  0.00  0.00    +0.291 C 
ATOM      6  C   UNL     1      34.268 -22.755 -15.897  0.00  0.00    +0.105 C 
ATOM      7  C   UNL     1      33.176 -22.499 -16.639  0.00  0.00    +0.142 C 
ATOM      8  C   UNL     1      31.798 -22.614 -14.611  0.00  0.00    +0.178 C 
ATOM      9  C   UNL     1      29.915 -22.237 -15.459  0.00  0.00    +0.230 C 
ENDROOT
BRANCH   7  10
ATOM     10  N   UNL     1      33.198 -22.301 -17.990  0.00  0.00    -0.299 N 
ATOM     11  H   UNL     1      32.677 -22.943 -18.525  0.00  0.00    +0.153 HD
BRANCH  10  12
ATOM     12  C   UNL     1      33.867 -21.306 -18.711  0.00  0.00    +0.049 C 
ATOM     13  C   UNL     1      35.265 -21.238 -18.696  0.00  0.00    +0.016 C 
ATOM     14  C   UNL     1      33.144 -20.365 -19.456  0.00  0.00    +0.016 C 
ATOM     15  C   UNL     1      35.204 -19.312 -20.155  0.00  0.00    +0.122 C 
ATOM     16  C   UNL     1      35.931 -20.245 -19.415  0.00  0.00    +0.021 C 
ATOM     17  C   UNL     1      33.810 -19.372 -20.176  0.00  0.00    +0.021 C 
BRANCH  15  18
ATOM     18  S   UNL     1      36.037 -18.070 -21.055  0.00  0.00    +0.057 S 
ATOM     19  O   UNL     1      37.470 -18.254 -20.873  0.00  0.00    -0.153 OA
ATOM     20  O   UNL     1      35.479 -18.019 -22.399  0.00  0.00    -0.153 OA
BRANCH  18  21
ATOM     21  N   UNL     1      35.548 -16.670 -20.205  0.00  0.00    -0.203 NA
ATOM     22  H   UNL     1      36.311 -15.993 -20.201  0.00  0.00    +0.144 HD
ATOM     23  H   UNL     1      35.309 -16.921 -19.247  0.00  0.00    +0.144 HD
ENDBRANCH  18  21
ENDBRANCH  15  18
ENDBRANCH  10  12
ENDBRANCH   7  10
BRANCH   5  24
ATOM     24  O   UNL     1      35.135 -23.185 -13.773  0.00  0.00    -0.451 OA
BRANCH  24  25
ATOM     25  C   UNL     1      36.327 -22.737 -14.390  0.00  0.00    +0.208 C 
BRANCH  25  26
ATOM     26  C   UNL     1      37.381 -23.836 -14.262  0.00  0.00    +0.044 C 
ATOM     27  C   UNL     1      38.739 -23.347 -14.784  0.00  0.00    +0.004 C 
ATOM     28  C   UNL     1      37.493 -24.314 -12.809  0.00  0.00    +0.004 C 
ATOM     29  C   UNL     1      39.823 -24.411 -14.619  0.00  0.00    +0.000 C 
ATOM     30  C   UNL     1      38.579 -25.376 -12.647  0.00  0.00    +0.000 C 
ATOM     31  C   UNL     1      39.925 -24.889 -13.174  0.00  0.00    +0.000 C 
ENDBRANCH  25  26
ENDBRANCH  24  25
ENDBRANCH   5  24
TORSDOF 7
ENDMDL
MODEL 3
REMARK VINA RESULT:     -11.7      3.481      6.640
REMARK  Name = 23586145
REMARK  7 active torsions:
REMARK  status: ('A' for Active; 'I' for Inactive)
REMARK    1  A    between atoms: C_5  and  O_24
REMARK    2  A    between atoms: C_7  and  N_10
REMARK    3  A    between atoms: N_10  and  C_12
REMARK    4  A    between atoms: C_15  and  S_18
REMARK    5  A    between atoms: S_18  and  N_21
REMARK    6  A    between atoms: O_24  and  C_25
REMARK    7  A    between atoms: C_25  and  C_26
REMARK                            x       y       z     vdW  Elec       q    Type
REMARK                         _______ _______ _______ _____ _____    ______ ____
ROOT
ATOM      1  N   UNL     1      37.505 -22.565 -13.497  0.00  0.00    -0.299 NA
ATOM      2  N   UNL     1      35.651 -23.418 -12.223  0.00  0.00    -0.106 N 
ATOM      3  N   UNL     1      35.332 -23.623 -10.919  0.00  0.00    -0.139 NA
ATOM      4  N   UNL     1      37.422 -22.731 -11.077  0.00  0.00    -0.145 NA
ATOM      5  C   UNL     1      36.778 -22.817 -14.538  0.00  0.00    +0.291 C 
ATOM      6  C   UNL     1      35.415 -23.391 -14.572  0.00  0.00    +0.105 C 
ATOM      7  C   UNL     1      34.885 -23.680 -13.370  0.00  0.00    +0.142 C 
ATOM      8  C   UNL     1      36.938 -22.870 -12.295  0.00  0.00    +0.178 C 
ATOM      9  C   UNL     1      36.421 -23.196 -10.287  0.00  0.00    +0.230 C 
ENDROOT
BRANCH   7  10
ATOM     10  N   UNL     1      33.642 -24.214 -13.190  0.00  0.00    -0.299 N 
ATOM     11  H   UNL     1      33.587 -24.972 -12.564  0.00  0.00    +0.153 HD
BRANCH  10  12
ATOM     12  C   UNL     1      32.435 -23.825 -13.782  0.00  0.00    +0.049 C 
ATOM     13  C   UNL     1      32.425 -22.877 -14.813  0.00  0.00    +0.016 C 
ATOM     14  C   UNL     1      31.223 -24.379 -13.350  0.00  0.00    +0.016 C 
ATOM     15  C   UNL     1      30.019 -23.046 -14.967  0.00  0.00    +0.122 C 
ATOM     16  C   UNL     1      31.222 -22.489 -15.403  0.00  0.00    +0.021 C 
ATOM     17  C   UNL     1      30.020 -23.991 -13.940  0.00  0.00    +0.021 C 
BRANCH  15  18
ATOM     18  S   UNL     1      28.513 -22.560 -15.705  0.00  0.00    +0.057 S 
ATOM     19  O   UNL     1      27.498 -22.477 -14.665  0.00  0.00    -0.153 OA
ATOM     20  O   UNL     1      28.768 -21.410 -16.561  0.00  0.00    -0.153 OA
BRANCH  18  21
ATOM     21  N   UNL     1      28.184 -23.916 -16.692  0.00  0.00    -0.203 NA
ATOM     22  H   UNL     1      27.217 -23.874 -17.013  0.00  0.00    +0.144 HD
ATOM     23  H   UNL     1      28.326 -24.770 -16.154  0.00  0.00    +0.144 HD
ENDBRANCH  18  21
ENDBRANCH  15  18
ENDBRANCH  10  12
ENDBRANCH   7  10
BRANCH   5  24
ATOM     24  O   UNL     1      37.244 -22.554 -15.754  0.00  0.00    -0.451 OA
BRANCH  24  25
ATOM     25  C   UNL     1      36.969 -21.253 -16.238  0.00  0.00    +0.208 C 
BRANCH  25  26
ATOM     26  C   UNL     1      36.305 -21.377 -17.609  0.00  0.00    +0.044 C 
ATOM     27  C   UNL     1      34.784 -21.524 -17.462  0.00  0.00    +0.004 C 
ATOM     28  C   UNL     1      36.655 -20.172 -18.492  0.00  0.00    +0.004 C 
ATOM     29  C   UNL     1      34.092 -21.597 -18.822  0.00  0.00    +0.000 C 
ATOM     30  C   UNL     1      35.959 -20.247 -19.850  0.00  0.00    +0.000 C 
ATOM     31  C   UNL     1      34.449 -20.402 -19.699  0.00  0.00    +0.000 C 
ENDBRANCH  25  26
ENDBRANCH  24  25
ENDBRANCH   5  24
TORSDOF 7
ENDMDL
MODEL 4
REMARK VINA RESULT:     -11.4      5.773      9.046
REMARK  Name = 23586145
REMARK  7 active torsions:
REMARK  status: ('A' for Active; 'I' for Inactive)
REMARK    1  A    between atoms: C_5  and  O_24
REMARK    2  A    between atoms: C_7  and  N_10
REMARK    3  A    between atoms: N_10  and  C_12
REMARK    4  A    between atoms: C_15  and  S_18
REMARK    5  A    between atoms: S_18  and  N_21
REMARK    6  A    between atoms: O_24  and  C_25
REMARK    7  A    between atoms: C_25  and  C_26
REMARK                            x       y       z     vdW  Elec       q    Type
REMARK                         _______ _______ _______ _____ _____    ______ ____
ROOT
ATOM      1  N   UNL     1      34.394 -15.200 -23.593  0.00  0.00    -0.299 NA
ATOM      2  N   UNL     1      35.076 -17.462 -23.142  0.00  0.00    -0.106 N 
ATOM      3  N   UNL     1      34.963 -18.685 -23.724  0.00  0.00    -0.139 NA
ATOM      4  N   UNL     1      33.925 -17.117 -25.007  0.00  0.00    -0.145 NA
ATOM      5  C   UNL     1      34.987 -14.905 -22.481  0.00  0.00    +0.291 C 
ATOM      6  C   UNL     1      35.693 -15.823 -21.561  0.00  0.00    +0.105 C 
ATOM      7  C   UNL     1      35.710 -17.113 -21.941  0.00  0.00    +0.142 C 
ATOM      8  C   UNL     1      34.431 -16.516 -23.949  0.00  0.00    +0.178 C 
ATOM      9  C   UNL     1      34.272 -18.416 -24.826  0.00  0.00    +0.230 C 
ENDROOT
BRANCH   7  10
ATOM     10  N   UNL     1      36.311 -18.112 -21.230  0.00  0.00    -0.299 N 
ATOM     11  H   UNL     1      37.292 -18.155 -21.295  0.00  0.00    +0.153 HD
BRANCH  10  12
ATOM     12  C   UNL     1      35.710 -19.084 -20.421  0.00  0.00    +0.049 C 
ATOM     13  C   UNL     1      36.497 -19.959 -19.662  0.00  0.00    +0.016 C 
ATOM     14  C   UNL     1      34.315 -19.193 -20.362  0.00  0.00    +0.016 C 
ATOM     15  C   UNL     1      34.508 -21.030 -18.804  0.00  0.00    +0.122 C 
ATOM     16  C   UNL     1      35.898 -20.928 -18.857  0.00  0.00    +0.021 C 
ATOM     17  C   UNL     1      33.716 -20.162 -19.557  0.00  0.00    +0.021 C 
BRANCH  15  18
ATOM     18  S   UNL     1      33.759 -22.243 -17.796  0.00  0.00    +0.057 S 
ATOM     19  O   UNL     1      32.460 -21.745 -17.367  0.00  0.00    -0.153 OA
ATOM     20  O   UNL     1      33.853 -23.529 -18.472  0.00  0.00    -0.153 OA
BRANCH  18  21
ATOM     21  N   UNL     1      34.818 -22.249 -16.455  0.00  0.00    -0.203 NA
ATOM     22  H   UNL     1      34.845 -21.318 -16.040  0.00  0.00    +0.144 HD
ATOM     23  H   UNL     1      35.754 -22.512 -16.762  0.00  0.00    +0.144 HD
ENDBRANCH  18  21
ENDBRANCH  15  18
ENDBRANCH  10  12
ENDBRANCH   7  10
BRANCH   5  24
ATOM     24  O   UNL     1      35.005 -13.647 -22.051  0.00  0.00    -0.451 OA
BRANCH  24  25
ATOM     25  C   UNL     1      34.104 -12.773 -22.703  0.00  0.00    +0.208 C 
BRANCH  25  26
ATOM     26  C   UNL     1      32.910 -12.531 -21.781  0.00  0.00    +0.044 C 
ATOM     27  C   UNL     1      33.185 -13.097 -20.380  0.00  0.00    +0.004 C 
ATOM     28  C   UNL     1      32.574 -11.036 -21.710  0.00  0.00    +0.004 C 
ATOM     29  C   UNL     1      32.026 -12.821 -19.424  0.00  0.00    +0.000 C 
ATOM     30  C   UNL     1      31.416 -10.763 -20.751  0.00  0.00    +0.000 C 
ATOM     31  C   UNL     1      31.689 -11.335 -19.363  0.00  0.00    +0.000 C 
ENDBRANCH  25  26
ENDBRANCH  24  25
ENDBRANCH   5  24
TORSDOF 7
ENDMDL
MODEL 5
REMARK VINA RESULT:     -11.3      6.469      9.680
REMARK  Name = 23586145
REMARK  7 active torsions:
REMARK  status: ('A' for Active; 'I' for Inactive)
REMARK    1  A    between atoms: C_5  and  O_24
REMARK    2  A    between atoms: C_7  and  N_10
REMARK    3  A    between atoms: N_10  and  C_12
REMARK    4  A    between atoms: C_15  and  S_18
REMARK    5  A    between atoms: S_18  and  N_21
REMARK    6  A    between atoms: O_24  and  C_25
REMARK    7  A    between atoms: C_25  and  C_26
REMARK                            x       y       z     vdW  Elec       q    Type
REMARK                         _______ _______ _______ _____ _____    ______ ____
ROOT
ATOM      1  N   UNL     1      33.793 -13.838 -22.526  0.00  0.00    -0.299 NA
ATOM      2  N   UNL     1      34.946 -15.905 -22.954  0.00  0.00    -0.106 N 
ATOM      3  N   UNL     1      35.220 -16.706 -24.016  0.00  0.00    -0.139 NA
ATOM      4  N   UNL     1      34.009 -14.901 -24.697  0.00  0.00    -0.145 NA
ATOM      5  C   UNL     1      34.137 -14.016 -21.291  0.00  0.00    +0.291 C 
ATOM      6  C   UNL     1      34.917 -15.137 -20.723  0.00  0.00    +0.105 C 
ATOM      7  C   UNL     1      35.305 -16.072 -21.608  0.00  0.00    +0.142 C 
ATOM      8  C   UNL     1      34.202 -14.804 -23.397  0.00  0.00    +0.178 C 
ATOM      9  C   UNL     1      34.639 -16.059 -25.021  0.00  0.00    +0.230 C 
ENDROOT
BRANCH   7  10
ATOM     10  N   UNL     1      36.032 -17.180 -21.281  0.00  0.00    -0.299 N 
ATOM     11  H   UNL     1      36.973 -17.176 -21.568  0.00  0.00    +0.153 HD
BRANCH  10  12
ATOM     12  C   UNL     1      35.610 -18.324 -20.593  0.00  0.00    +0.049 C 
ATOM     13  C   UNL     1      34.258 -18.687 -20.582  0.00  0.00    +0.016 C 
ATOM     14  C   UNL     1      36.537 -19.118 -19.905  0.00  0.00    +0.016 C 
ATOM     15  C   UNL     1      34.768 -20.612 -19.213  0.00  0.00    +0.122 C 
ATOM     16  C   UNL     1      33.839 -19.826 -19.895  0.00  0.00    +0.021 C 
ATOM     17  C   UNL     1      36.118 -20.257 -19.219  0.00  0.00    +0.021 C 
BRANCH  15  18
ATOM     18  S   UNL     1      34.243 -22.038 -18.354  0.00  0.00    +0.057 S 
ATOM     19  O   UNL     1      34.175 -23.144 -19.298  0.00  0.00    -0.153 OA
ATOM     20  O   UNL     1      35.042 -22.168 -17.143  0.00  0.00    -0.153 OA
BRANCH  18  21
ATOM     21  N   UNL     1      32.654 -21.586 -17.916  0.00  0.00    -0.203 NA
ATOM     22  H   UNL     1      32.434 -20.679 -18.327  0.00  0.00    +0.144 HD
ATOM     23  H   UNL     1      32.585 -21.526 -16.901  0.00  0.00    +0.144 HD
ENDBRANCH  18  21
ENDBRANCH  15  18
ENDBRANCH  10  12
ENDBRANCH   7  10
BRANCH   5  24
ATOM     24  O   UNL     1      33.784 -13.128 -20.367  0.00  0.00    -0.451 OA
BRANCH  24  25
ATOM     25  C   UNL     1      32.462 -13.257 -19.880  0.00  0.00    +0.208 C 
BRANCH  25  26
ATOM     26  C   UNL     1      31.787 -11.888 -19.942  0.00  0.00    +0.044 C 
ATOM     27  C   UNL     1      31.883 -11.175 -18.586  0.00  0.00    +0.004 C 
ATOM     28  C   UNL     1      32.402 -11.030 -21.055  0.00  0.00    +0.004 C 
ATOM     29  C   UNL     1      31.259  -9.781 -18.637  0.00  0.00    +0.000 C 
ATOM     30  C   UNL     1      31.778  -9.636 -21.102  0.00  0.00    +0.000 C 
ATOM     31  C   UNL     1      31.868  -8.935 -19.751  0.00  0.00    +0.000 C 
ENDBRANCH  25  26
ENDBRANCH  24  25
ENDBRANCH   5  24
TORSDOF 7
ENDMDL
MODEL 6
REMARK VINA RESULT:     -11.2      3.326      6.539
REMARK  Name = 23586145
REMARK  7 active torsions:
REMARK  status: ('A' for Active; 'I' for Inactive)
REMARK    1  A    between atoms: C_5  and  O_24
REMARK    2  A    between atoms: C_7  and  N_10
REMARK    3  A    between atoms: N_10  and  C_12
REMARK    4  A    between atoms: C_15  and  S_18
REMARK    5  A    between atoms: S_18  and  N_21
REMARK    6  A    between atoms: O_24  and  C_25
REMARK    7  A    between atoms: C_25  and  C_26
REMARK                            x       y       z     vdW  Elec       q    Type
REMARK                         _______ _______ _______ _____ _____    ______ ____
ROOT
ATOM      1  N   UNL     1      38.378 -22.288 -15.319  0.00  0.00    -0.299 NA
ATOM      2  N   UNL     1      37.025 -23.638 -13.859  0.00  0.00    -0.106 N 
ATOM      3  N   UNL     1      37.206 -24.612 -12.929  0.00  0.00    -0.139 NA
ATOM      4  N   UNL     1      39.218 -23.963 -13.776  0.00  0.00    -0.145 NA
ATOM      5  C   UNL     1      37.261 -21.765 -15.709  0.00  0.00    +0.291 C 
ATOM      6  C   UNL     1      35.896 -22.094 -15.243  0.00  0.00    +0.105 C 
ATOM      7  C   UNL     1      35.829 -23.053 -14.302  0.00  0.00    +0.142 C 
ATOM      8  C   UNL     1      38.274 -23.256 -14.364  0.00  0.00    +0.178 C 
ATOM      9  C   UNL     1      38.526 -24.761 -12.923  0.00  0.00    +0.230 C 
ENDROOT
BRANCH   7  10
ATOM     10  N   UNL     1      34.664 -23.496 -13.744  0.00  0.00    -0.299 N 
ATOM     11  H   UNL     1      34.761 -24.101 -12.972  0.00  0.00    +0.153 HD
BRANCH  10  12
ATOM     12  C   UNL     1      33.351 -23.205 -14.128  0.00  0.00    +0.049 C 
ATOM     13  C   UNL     1      32.317 -23.215 -13.183  0.00  0.00    +0.016 C 
ATOM     14  C   UNL     1      33.054 -22.900 -15.463  0.00  0.00    +0.016 C 
ATOM     15  C   UNL     1      30.721 -22.621 -14.898  0.00  0.00    +0.122 C 
ATOM     16  C   UNL     1      31.008 -22.924 -13.567  0.00  0.00    +0.021 C 
ATOM     17  C   UNL     1      31.745 -22.609 -15.846  0.00  0.00    +0.021 C 
BRANCH  15  18
ATOM     18  S   UNL     1      29.083 -22.257 -15.378  0.00  0.00    +0.057 S 
ATOM     19  O   UNL     1      28.570 -21.211 -14.506  0.00  0.00    -0.153 OA
ATOM     20  O   UNL     1      29.054 -22.074 -16.823  0.00  0.00    -0.153 OA
BRANCH  18  21
ATOM     21  N   UNL     1      28.299 -23.727 -14.997  0.00  0.00    -0.203 NA
ATOM     22  H   UNL     1      28.280 -24.325 -15.823  0.00  0.00    +0.144 HD
ATOM     23  H   UNL     1      27.345 -23.535 -14.694  0.00  0.00    +0.144 HD
ENDBRANCH  18  21
ENDBRANCH  15  18
ENDBRANCH  10  12
ENDBRANCH   7  10
BRANCH   5  24
ATOM     24  O   UNL     1      37.260 -20.813 -16.638  0.00  0.00    -0.451 OA
BRANCH  24  25
ATOM     25  C   UNL     1      36.931 -21.245 -17.945  0.00  0.00    +0.208 C 
BRANCH  25  26
ATOM     26  C   UNL     1      35.767 -20.398 -18.456  0.00  0.00    +0.044 C 
ATOM     27  C   UNL     1      36.110 -19.770 -19.814  0.00  0.00    +0.004 C 
ATOM     28  C   UNL     1      34.487 -21.237 -18.550  0.00  0.00    +0.004 C 
ATOM     29  C   UNL     1      34.941 -18.959 -20.371  0.00  0.00    +0.000 C 
ATOM     30  C   UNL     1      33.320 -20.425 -19.110  0.00  0.00    +0.000 C 
ATOM     31  C   UNL     1      33.668 -19.795 -20.455  0.00  0.00    +0.000 C 
ENDBRANCH  25  26
ENDBRANCH  24  25
ENDBRANCH   5  24
TORSDOF 7
ENDMDL
MODEL 7
REMARK VINA RESULT:     -11.0      2.693      5.808
REMARK  Name = 23586145
REMARK  7 active torsions:
REMARK  status: ('A' for Active; 'I' for Inactive)
REMARK    1  A    between atoms: C_5  and  O_24
REMARK    2  A    between atoms: C_7  and  N_10
REMARK    3  A    between atoms: N_10  and  C_12
REMARK    4  A    between atoms: C_15  and  S_18
REMARK    5  A    between atoms: S_18  and  N_21
REMARK    6  A    between atoms: O_24  and  C_25
REMARK    7  A    between atoms: C_25  and  C_26
REMARK                            x       y       z     vdW  Elec       q    Type
REMARK                         _______ _______ _______ _____ _____    ______ ____
ROOT
ATOM      1  N   UNL     1      33.446 -21.076 -19.021  0.00  0.00    -0.299 NA
ATOM      2  N   UNL     1      35.732 -20.726 -18.359  0.00  0.00    -0.106 N 
ATOM      3  N   UNL     1      36.822 -20.052 -18.810  0.00  0.00    -0.139 NA
ATOM      4  N   UNL     1      35.066 -19.723 -20.222  0.00  0.00    -0.145 NA
ATOM      5  C   UNL     1      33.355 -21.810 -17.960  0.00  0.00    +0.291 C 
ATOM      6  C   UNL     1      34.412 -22.102 -16.967  0.00  0.00    +0.105 C 
ATOM      7  C   UNL     1      35.603 -21.528 -17.215  0.00  0.00    +0.142 C 
ATOM      8  C   UNL     1      34.667 -20.509 -19.242  0.00  0.00    +0.178 C 
ATOM      9  C   UNL     1      36.365 -19.476 -19.917  0.00  0.00    +0.230 C 
ENDROOT
BRANCH   7  10
ATOM     10  N   UNL     1      36.703 -21.674 -16.419  0.00  0.00    -0.299 N 
ATOM     11  H   UNL     1      37.523 -21.230 -16.734  0.00  0.00    +0.153 HD
BRANCH  10  12
ATOM     12  C   UNL     1      36.815 -22.376 -15.213  0.00  0.00    +0.049 C 
ATOM     13  C   UNL     1      35.776 -22.345 -14.275  0.00  0.00    +0.016 C 
ATOM     14  C   UNL     1      37.970 -23.117 -14.930  0.00  0.00    +0.016 C 
ATOM     15  C   UNL     1      37.042 -23.780 -12.800  0.00  0.00    +0.122 C 
ATOM     16  C   UNL     1      35.889 -23.045 -13.073  0.00  0.00    +0.021 C 
ATOM     17  C   UNL     1      38.083 -23.817 -13.729  0.00  0.00    +0.021 C 
BRANCH  15  18
ATOM     18  S   UNL     1      37.183 -24.656 -11.296  0.00  0.00    +0.057 S 
ATOM     19  O   UNL     1      37.437 -26.056 -11.601  0.00  0.00    -0.153 OA
ATOM     20  O   UNL     1      38.093 -23.929 -10.422  0.00  0.00    -0.153 OA
BRANCH  18  21
ATOM     21  N   UNL     1      35.595 -24.503 -10.682  0.00  0.00    -0.203 NA
ATOM     22  H   UNL     1      35.498 -23.603 -10.213  0.00  0.00    +0.144 HD
ATOM     23  H   UNL     1      35.415 -25.254 -10.017  0.00  0.00    +0.144 HD
ENDBRANCH  18  21
ENDBRANCH  15  18
ENDBRANCH  10  12
ENDBRANCH   7  10
BRANCH   5  24
ATOM     24  O   UNL     1      32.204 -22.405 -17.660  0.00  0.00    -0.451 OA
BRANCH  24  25
ATOM     25  C   UNL     1      31.582 -21.953 -16.472  0.00  0.00    +0.208 C 
BRANCH  25  26
ATOM     26  C   UNL     1      31.535 -23.112 -15.478  0.00  0.00    +0.044 C 
ATOM     27  C   UNL     1      32.255 -22.737 -14.175  0.00  0.00    +0.004 C 
ATOM     28  C   UNL     1      30.085 -23.530 -15.201  0.00  0.00    +0.004 C 
ATOM     29  C   UNL     1      32.176 -23.862 -13.145  0.00  0.00    +0.000 C 
ATOM     30  C   UNL     1      30.010 -24.653 -14.168  0.00  0.00    +0.000 C 
ATOM     31  C   UNL     1      30.734 -24.281 -12.879  0.00  0.00    +0.000 C 
ENDBRANCH  25  26
ENDBRANCH  24  25
ENDBRANCH   5  24
TORSDOF 7
ENDMDL
MODEL 8
REMARK VINA RESULT:     -10.8      1.824      2.105
REMARK  Name = 23586145
REMARK  7 active torsions:
REMARK  status: ('A' for Active; 'I' for Inactive)
REMARK    1  A    between atoms: C_5  and  O_24
REMARK    2  A    between atoms: C_7  and  N_10
REMARK    3  A    between atoms: N_10  and  C_12
REMARK    4  A    between atoms: C_15  and  S_18
REMARK    5  A    between atoms: S_18  and  N_21
REMARK    6  A    between atoms: O_24  and  C_25
REMARK    7  A    between atoms: C_25  and  C_26
REMARK                            x       y       z     vdW  Elec       q    Type
REMARK                         _______ _______ _______ _____ _____    ______ ____
ROOT
ATOM      1  N   UNL     1      30.923 -21.650 -16.949  0.00  0.00    -0.299 NA
ATOM      2  N   UNL     1      30.960 -23.134 -15.057  0.00  0.00    -0.106 N 
ATOM      3  N   UNL     1      30.071 -23.691 -14.193  0.00  0.00    -0.139 NA
ATOM      4  N   UNL     1      28.976 -22.373 -15.693  0.00  0.00    -0.145 NA
ATOM      5  C   UNL     1      32.208 -21.804 -16.970  0.00  0.00    +0.291 C 
ATOM      6  C   UNL     1      33.035 -22.626 -16.060  0.00  0.00    +0.105 C 
ATOM      7  C   UNL     1      32.355 -23.282 -15.103  0.00  0.00    +0.142 C 
ATOM      8  C   UNL     1      30.264 -22.330 -15.967  0.00  0.00    +0.178 C 
ATOM      9  C   UNL     1      28.912 -23.203 -14.621  0.00  0.00    +0.230 C 
ENDROOT
BRANCH   7  10
ATOM     10  N   UNL     1      32.935 -24.091 -14.169  0.00  0.00    -0.299 N 
ATOM     11  H   UNL     1      32.405 -24.871 -13.888  0.00  0.00    +0.153 HD
BRANCH  10  12
ATOM     12  C   UNL     1      34.187 -23.953 -13.558  0.00  0.00    +0.049 C 
ATOM     13  C   UNL     1      34.289 -23.445 -12.257  0.00  0.00    +0.016 C 
ATOM     14  C   UNL     1      35.353 -24.321 -14.242  0.00  0.00    +0.016 C 
ATOM     15  C   UNL     1      36.693 -23.676 -12.338  0.00  0.00    +0.122 C 
ATOM     16  C   UNL     1      35.537 -23.307 -11.650  0.00  0.00    +0.021 C 
ATOM     17  C   UNL     1      36.601 -24.184 -13.634  0.00  0.00    +0.021 C 
BRANCH  15  18
ATOM     18  S   UNL     1      38.255 -23.504 -11.576  0.00  0.00    +0.057 S 
ATOM     19  O   UNL     1      38.253 -24.279 -10.344  0.00  0.00    -0.153 OA
ATOM     20  O   UNL     1      39.286 -23.740 -12.577  0.00  0.00    -0.153 OA
BRANCH  18  21
ATOM     21  N   UNL     1      38.243 -21.841 -11.183  0.00  0.00    -0.203 NA
ATOM     22  H   UNL     1      38.747 -21.696 -10.308  0.00  0.00    +0.144 HD
ATOM     23  H   UNL     1      37.280 -21.524 -11.077  0.00  0.00    +0.144 HD
ENDBRANCH  18  21
ENDBRANCH  15  18
ENDBRANCH  10  12
ENDBRANCH   7  10
BRANCH   5  24
ATOM     24  O   UNL     1      32.937 -21.182 -17.890  0.00  0.00    -0.451 OA
BRANCH  24  25
ATOM     25  C   UNL     1      33.926 -21.977 -18.516  0.00  0.00    +0.208 C 
BRANCH  25  26
ATOM     26  C   UNL     1      34.720 -21.095 -19.478  0.00  0.00    +0.044 C 
ATOM     27  C   UNL     1      33.858 -19.927 -19.978  0.00  0.00    +0.004 C 
ATOM     28  C   UNL     1      36.002 -20.581 -18.810  0.00  0.00    +0.004 C 
ATOM     29  C   UNL     1      34.647 -19.000 -20.902  0.00  0.00    +0.000 C 
ATOM     30  C   UNL     1      36.787 -19.653 -19.735  0.00  0.00    +0.000 C 
ATOM     31  C   UNL     1      35.925 -18.499 -20.237  0.00  0.00    +0.000 C 
ENDBRANCH  25  26
ENDBRANCH  24  25
ENDBRANCH   5  24
TORSDOF 7
ENDMDL
MODEL 9
REMARK VINA RESULT:     -10.4      2.131      2.373
REMARK  Name = 23586145
REMARK  7 active torsions:
REMARK  status: ('A' for Active; 'I' for Inactive)
REMARK    1  A    between atoms: C_5  and  O_24
REMARK    2  A    between atoms: C_7  and  N_10
REMARK    3  A    between atoms: N_10  and  C_12
REMARK    4  A    between atoms: C_15  and  S_18
REMARK    5  A    between atoms: S_18  and  N_21
REMARK    6  A    between atoms: O_24  and  C_25
REMARK    7  A    between atoms: C_25  and  C_26
REMARK                            x       y       z     vdW  Elec       q    Type
REMARK                         _______ _______ _______ _____ _____    ______ ____
ROOT
ATOM      1  N   UNL     1      32.013 -20.963 -17.911  0.00  0.00    -0.299 NA
ATOM      2  N   UNL     1      32.310 -22.708 -16.283  0.00  0.00    -0.106 N 
ATOM      3  N   UNL     1      31.554 -23.385 -15.379  0.00  0.00    -0.139 NA
ATOM      4  N   UNL     1      30.269 -21.861 -16.480  0.00  0.00    -0.145 NA
ATOM      5  C   UNL     1      33.274 -21.113 -18.157  0.00  0.00    +0.291 C 
ATOM      6  C   UNL     1      34.214 -22.060 -17.518  0.00  0.00    +0.105 C 
ATOM      7  C   UNL     1      33.676 -22.849 -16.571  0.00  0.00    +0.142 C 
ATOM      8  C   UNL     1      31.499 -21.779 -16.946  0.00  0.00    +0.178 C 
ATOM      9  C   UNL     1      30.354 -22.839 -15.543  0.00  0.00    +0.230 C 
ENDROOT
BRANCH   7  10
ATOM     10  N   UNL     1      34.377 -23.786 -15.867  0.00  0.00    -0.299 N 
ATOM     11  H   UNL     1      34.312 -24.710 -16.202  0.00  0.00    +0.153 HD
BRANCH  10  12
ATOM     12  C   UNL     1      35.173 -23.604 -14.731  0.00  0.00    +0.049 C 
ATOM     13  C   UNL     1      36.559 -23.446 -14.854  0.00  0.00    +0.016 C 
ATOM     14  C   UNL     1      34.593 -23.577 -13.456  0.00  0.00    +0.016 C 
ATOM     15  C   UNL     1      36.766 -23.238 -12.456  0.00  0.00    +0.122 C 
ATOM     16  C   UNL     1      37.352 -23.264 -13.721  0.00  0.00    +0.021 C 
ATOM     17  C   UNL     1      35.385 -23.395 -12.323  0.00  0.00    +0.021 C 
BRANCH  15  18
ATOM     18  S   UNL     1      37.759 -23.010 -11.038  0.00  0.00    +0.057 S 
ATOM     19  O   UNL     1      37.606 -21.635 -10.587  0.00  0.00    -0.153 OA
ATOM     20  O   UNL     1      37.504 -24.107 -10.114  0.00  0.00    -0.153 OA
BRANCH  18  21
ATOM     21  N   UNL     1      39.321 -23.204 -11.701  0.00  0.00    -0.203 NA
ATOM     22  H   UNL     1      39.509 -24.197 -11.842  0.00  0.00    +0.144 HD
ATOM     23  H   UNL     1      40.013 -22.814 -11.062  0.00  0.00    +0.144 HD
ENDBRANCH  18  21
ENDBRANCH  15  18
ENDBRANCH  10  12
ENDBRANCH   7  10
BRANCH   5  24
ATOM     24  O   UNL     1      33.866 -20.363 -19.081  0.00  0.00    -0.451 OA
BRANCH  24  25
ATOM     25  C   UNL     1      35.267 -20.526 -19.185  0.00  0.00    +0.208 C 
BRANCH  25  26
ATOM     26  C   UNL     1      35.745 -19.814 -20.450  0.00  0.00    +0.044 C 
ATOM     27  C   UNL     1      34.557 -19.212 -21.214  0.00  0.00    +0.004 C 
ATOM     28  C   UNL     1      36.777 -18.732 -20.105  0.00  0.00    +0.004 C 
ATOM     29  C   UNL     1      35.015 -18.450 -22.456  0.00  0.00    +0.000 C 
ATOM     30  C   UNL     1      37.231 -17.969 -21.349  0.00  0.00    +0.000 C 
ATOM     31  C   UNL     1      36.047 -17.381 -22.110  0.00  0.00    +0.000 C 
ENDBRANCH  25  26
ENDBRANCH  24  25
ENDBRANCH   5  24
TORSDOF 7
ENDMDL
