MODEL 1
REMARK VINA RESULT:     -11.9      0.000      0.000
REMARK  Name = 11154925
REMARK  9 active torsions:
REMARK  status: ('A' for Active; 'I' for Inactive)
REMARK    1  A    between atoms: C_6  and  O_11
REMARK    2  A    between atoms: C_8  and  O_24
REMARK    3  A    between atoms: O_11  and  C_12
REMARK    4  A    between atoms: C_12  and  C_13
REMARK    5  A    between atoms: C_13  and  O_15
REMARK    6  A    between atoms: O_15  and  C_17
REMARK    7  A    between atoms: C_17  and  C_18
REMARK    8  A    between atoms: C_18  and  N_20
REMARK    9  A    between atoms: O_24  and  C_29
REMARK                            x       y       z     vdW  Elec       q    Type
REMARK                         _______ _______ _______ _____ _____    ______ ____
ROOT
ATOM      1  N   UNL     1      32.600 -22.804 -14.474  0.00  0.00    -0.180 N 
ATOM      2  N   UNL     1      31.336 -22.474 -14.863  0.00  0.00    -0.151 NA
ATOM      3  N   UNL     1      32.207 -22.285 -17.110  0.00  0.00    -0.187 NA
ATOM      4  C   UNL     1      33.663 -22.886 -15.336  0.00  0.00    +0.126 C 
ATOM      5  C   UNL     1      34.781 -23.240 -14.617  0.00  0.00    +0.034 C 
ATOM      6  C   UNL     1      34.373 -23.378 -13.265  0.00  0.00    +0.153 C 
ATOM      7  C   UNL     1      33.022 -23.103 -13.205  0.00  0.00    +0.126 C 
ATOM      8  C   UNL     1      33.393 -22.603 -16.702  0.00  0.00    +0.247 C 
ATOM      9  C   UNL     1      36.161 -23.451 -15.100  0.00  0.00    +0.036 C 
ATOM     10  C   UNL     1      31.215 -22.236 -16.141  0.00  0.00    +0.220 C 
ENDROOT
BRANCH   6  11
ATOM     11  O   UNL     1      35.124 -23.712 -12.205  0.00  0.00    -0.470 OA
BRANCH  11  12
ATOM     12  C   UNL     1      36.068 -22.741 -11.741  0.00  0.00    +0.249 C 
BRANCH  12  13
ATOM     13  C   UNL     1      36.691 -23.240 -10.443  0.00  0.00    +0.212 C 
ATOM     14  C   UNL     1      35.674 -23.973  -9.583  0.00  0.00    +0.051 C 
BRANCH  13  15
ATOM     15  O   UNL     1      37.751 -24.136 -10.770  0.00  0.00    -0.450 OA
BRANCH  15  17
ATOM     16  O   UNL     1      39.459 -22.661 -11.234  0.00  0.00    -0.252 OA
ATOM     17  C   UNL     1      38.756 -23.615 -11.541  0.00  0.00    +0.296 C 
BRANCH  17  18
ATOM     18  C   UNL     1      38.856 -24.400 -12.834  0.00  0.00    +0.036 C 
ATOM     19  C   UNL     1      38.137 -25.737 -12.709  0.00  0.00    -0.013 C 
BRANCH  18  20
ATOM     20  N   UNL     1      40.271 -24.627 -13.121  0.00  0.00    +0.389 N 
ATOM     21  H   UNL     1      40.836 -23.967 -12.587  0.00  0.00    -0.088 HD
ATOM     22  H   UNL     1      40.442 -24.492 -14.118  0.00  0.00    -0.088 HD
ATOM     23  H   UNL     1      40.523 -25.580 -12.860  0.00  0.00    -0.088 HD
ENDBRANCH  18  20
ENDBRANCH  17  18
ENDBRANCH  15  17
ENDBRANCH  13  15
ENDBRANCH  12  13
ENDBRANCH  11  12
ENDBRANCH   6  11
BRANCH   8  24
ATOM     24  O   UNL     1      34.426 -22.676 -17.575  0.00  0.00    -0.433 OA
BRANCH  24  29
ATOM     25  F   UNL     1      36.782 -21.403 -18.181  0.00  0.00    -0.201 F 
ATOM     26  N   UNL     1      34.690 -18.394 -20.989  0.00  0.00    -0.316 N 
ATOM     27  C   UNL     1      35.634 -19.880 -19.617  0.00  0.00    +0.045 C 
ATOM     28  C   UNL     1      34.418 -19.468 -20.170  0.00  0.00    +0.050 C 
ATOM     29  C   UNL     1      34.430 -21.617 -18.432  0.00  0.00    +0.175 C 
ATOM     30  C   UNL     1      36.030 -18.115 -20.973  0.00  0.00    +0.026 C 
ATOM     31  C   UNL     1      35.638 -20.976 -18.732  0.00  0.00    +0.176 C 
ATOM     32  C   UNL     1      36.641 -19.019 -20.133  0.00  0.00    +0.014 C 
ATOM     33  C   UNL     1      33.204 -20.098 -19.880  0.00  0.00    +0.018 C 
ATOM     34  C   UNL     1      33.233 -21.184 -18.999  0.00  0.00    +0.041 C 
ATOM     35  C   UNL     1      36.592 -17.007 -21.767  0.00  0.00    +0.047 C 
ATOM     36  H   UNL     1      34.017 -17.899 -21.510  0.00  0.00    +0.152 HD
ENDBRANCH  24  29
ENDBRANCH   8  24
TORSDOF 9
ENDMDL
MODEL 2
REMARK VINA RESULT:     -11.5      2.616      4.348
REMARK  Name = 11154925
REMARK  9 active torsions:
REMARK  status: ('A' for Active; 'I' for Inactive)
REMARK    1  A    between atoms: C_6  and  O_11
REMARK    2  A    between atoms: C_8  and  O_24
REMARK    3  A    between atoms: O_11  and  C_12
REMARK    4  A    between atoms: C_12  and  C_13
REMARK    5  A    between atoms: C_13  and  O_15
REMARK    6  A    between atoms: O_15  and  C_17
REMARK    7  A    between atoms: C_17  and  C_18
REMARK    8  A    between atoms: C_18  and  N_20
REMARK    9  A    between atoms: O_24  and  C_29
REMARK                            x       y       z     vdW  Elec       q    Type
REMARK                         _______ _______ _______ _____ _____    ______ ____
ROOT
ATOM      1  N   UNL     1      33.825 -21.161 -18.523  0.00  0.00    -0.180 N 
ATOM      2  N   UNL     1      32.617 -21.005 -19.134  0.00  0.00    -0.151 NA
ATOM      3  N   UNL     1      33.703 -19.429 -20.610  0.00  0.00    -0.187 NA
ATOM      4  C   UNL     1      34.962 -20.498 -18.908  0.00  0.00    +0.126 C 
ATOM      5  C   UNL     1      35.993 -20.887 -18.085  0.00  0.00    +0.034 C 
ATOM      6  C   UNL     1      35.454 -21.825 -17.167  0.00  0.00    +0.153 C 
ATOM      7  C   UNL     1      34.114 -21.976 -17.461  0.00  0.00    +0.126 C 
ATOM      8  C   UNL     1      34.833 -19.605 -20.006  0.00  0.00    +0.247 C 
ATOM      9  C   UNL     1      37.404 -20.451 -18.103  0.00  0.00    +0.036 C 
ATOM     10  C   UNL     1      32.626 -20.158 -20.128  0.00  0.00    +0.220 C 
ENDROOT
BRANCH   6  11
ATOM     11  O   UNL     1      36.088 -22.473 -16.179  0.00  0.00    -0.470 OA
BRANCH  11  12
ATOM     12  C   UNL     1      35.396 -22.604 -14.933  0.00  0.00    +0.249 C 
BRANCH  12  13
ATOM     13  C   UNL     1      36.396 -22.991 -13.850  0.00  0.00    +0.212 C 
ATOM     14  C   UNL     1      35.694 -23.375 -12.556  0.00  0.00    +0.051 C 
BRANCH  13  15
ATOM     15  O   UNL     1      37.150 -24.109 -14.316  0.00  0.00    -0.450 OA
BRANCH  15  17
ATOM     16  O   UNL     1      39.149 -23.110 -14.876  0.00  0.00    -0.252 OA
ATOM     17  C   UNL     1      38.511 -23.966 -14.277  0.00  0.00    +0.296 C 
BRANCH  17  18
ATOM     18  C   UNL     1      39.103 -25.038 -13.382  0.00  0.00    +0.036 C 
ATOM     19  C   UNL     1      40.519 -25.386 -13.823  0.00  0.00    -0.013 C 
BRANCH  18  20
ATOM     20  N   UNL     1      38.254 -26.224 -13.469  0.00  0.00    +0.389 N 
ATOM     21  H   UNL     1      38.805 -27.053 -13.247  0.00  0.00    -0.088 HD
ATOM     22  H   UNL     1      37.882 -26.306 -14.415  0.00  0.00    -0.088 HD
ATOM     23  H   UNL     1      37.483 -26.141 -12.807  0.00  0.00    -0.088 HD
ENDBRANCH  18  20
ENDBRANCH  17  18
ENDBRANCH  15  17
ENDBRANCH  13  15
ENDBRANCH  12  13
ENDBRANCH  11  12
ENDBRANCH   6  11
BRANCH   8  24
ATOM     24  O   UNL     1      35.941 -18.937 -20.406  0.00  0.00    -0.433 OA
BRANCH  24  29
ATOM     25  F   UNL     1      35.611 -16.391 -19.429  0.00  0.00    -0.201 F 
ATOM     26  N   UNL     1      34.680 -14.671 -23.611  0.00  0.00    -0.316 N 
ATOM     27  C   UNL     1      35.137 -15.572 -21.621  0.00  0.00    +0.045 C 
ATOM     28  C   UNL     1      34.992 -15.855 -22.982  0.00  0.00    +0.050 C 
ATOM     29  C   UNL     1      35.628 -17.915 -21.251  0.00  0.00    +0.175 C 
ATOM     30  C   UNL     1      34.623 -13.652 -22.699  0.00  0.00    +0.026 C 
ATOM     31  C   UNL     1      35.462 -16.622 -20.741  0.00  0.00    +0.176 C 
ATOM     32  C   UNL     1      34.903 -14.178 -21.458  0.00  0.00    +0.014 C 
ATOM     33  C   UNL     1      35.155 -17.142 -23.506  0.00  0.00    +0.018 C 
ATOM     34  C   UNL     1      35.477 -18.169 -22.613  0.00  0.00    +0.041 C 
ATOM     35  C   UNL     1      34.306 -12.272 -23.111  0.00  0.00    +0.047 C 
ATOM     36  H   UNL     1      34.519 -14.572 -24.578  0.00  0.00    +0.152 HD
ENDBRANCH  24  29
ENDBRANCH   8  24
TORSDOF 9
ENDMDL
MODEL 3
REMARK VINA RESULT:     -11.4      4.808      9.172
REMARK  Name = 11154925
REMARK  9 active torsions:
REMARK  status: ('A' for Active; 'I' for Inactive)
REMARK    1  A    between atoms: C_6  and  O_11
REMARK    2  A    between atoms: C_8  and  O_24
REMARK    3  A    between atoms: O_11  and  C_12
REMARK    4  A    between atoms: C_12  and  C_13
REMARK    5  A    between atoms: C_13  and  O_15
REMARK    6  A    between atoms: O_15  and  C_17
REMARK    7  A    between atoms: C_17  and  C_18
REMARK    8  A    between atoms: C_18  and  N_20
REMARK    9  A    between atoms: O_24  and  C_29
REMARK                            x       y       z     vdW  Elec       q    Type
REMARK                         _______ _______ _______ _____ _____    ______ ____
ROOT
ATOM      1  N   UNL     1      34.413 -17.583 -23.736  0.00  0.00    -0.180 N 
ATOM      2  N   UNL     1      33.915 -17.266 -24.965  0.00  0.00    -0.151 NA
ATOM      3  N   UNL     1      34.515 -14.974 -24.483  0.00  0.00    -0.187 NA
ATOM      4  C   UNL     1      34.954 -16.663 -22.876  0.00  0.00    +0.126 C 
ATOM      5  C   UNL     1      35.355 -17.317 -21.734  0.00  0.00    +0.034 C 
ATOM      6  C   UNL     1      35.043 -18.689 -21.916  0.00  0.00    +0.153 C 
ATOM      7  C   UNL     1      34.462 -18.825 -23.161  0.00  0.00    +0.126 C 
ATOM      8  C   UNL     1      34.979 -15.315 -23.325  0.00  0.00    +0.247 C 
ATOM      9  C   UNL     1      35.992 -16.758 -20.525  0.00  0.00    +0.036 C 
ATOM     10  C   UNL     1      33.994 -15.997 -25.263  0.00  0.00    +0.220 C 
ENDROOT
BRANCH   6  11
ATOM     11  O   UNL     1      35.254 -19.705 -21.066  0.00  0.00    -0.470 OA
BRANCH  11  12
ATOM     12  C   UNL     1      34.370 -19.814 -19.945  0.00  0.00    +0.249 C 
BRANCH  12  13
ATOM     13  C   UNL     1      34.755 -21.042 -19.130  0.00  0.00    +0.212 C 
ATOM     14  C   UNL     1      36.104 -20.859 -18.452  0.00  0.00    +0.051 C 
BRANCH  13  15
ATOM     15  O   UNL     1      33.759 -21.246 -18.130  0.00  0.00    -0.450 OA
BRANCH  15  17
ATOM     16  O   UNL     1      33.818 -23.548 -18.226  0.00  0.00    -0.252 OA
ATOM     17  C   UNL     1      33.702 -22.505 -17.594  0.00  0.00    +0.296 C 
BRANCH  17  18
ATOM     18  C   UNL     1      33.469 -22.406 -16.099  0.00  0.00    +0.036 C 
ATOM     19  C   UNL     1      34.568 -23.131 -15.334  0.00  0.00    -0.013 C 
BRANCH  18  20
ATOM     20  N   UNL     1      32.175 -23.015 -15.799  0.00  0.00    +0.389 N 
ATOM     21  H   UNL     1      32.232 -23.513 -14.911  0.00  0.00    -0.088 HD
ATOM     22  H   UNL     1      31.927 -23.669 -16.541  0.00  0.00    -0.088 HD
ATOM     23  H   UNL     1      31.463 -22.287 -15.736  0.00  0.00    -0.088 HD
ENDBRANCH  18  20
ENDBRANCH  17  18
ENDBRANCH  15  17
ENDBRANCH  13  15
ENDBRANCH  12  13
ENDBRANCH  11  12
ENDBRANCH   6  11
BRANCH   8  24
ATOM     24  O   UNL     1      35.508 -14.385 -22.493  0.00  0.00    -0.433 OA
BRANCH  24  29
ATOM     25  F   UNL     1      34.058 -14.550 -20.167  0.00  0.00    -0.201 F 
ATOM     26  N   UNL     1      31.797 -10.620 -21.040  0.00  0.00    -0.316 N 
ATOM     27  C   UNL     1      32.928 -12.511 -20.684  0.00  0.00    +0.045 C 
ATOM     28  C   UNL     1      32.759 -11.448 -21.575  0.00  0.00    +0.050 C 
ATOM     29  C   UNL     1      34.599 -13.418 -22.184  0.00  0.00    +0.175 C 
ATOM     30  C   UNL     1      31.354 -11.121 -19.846  0.00  0.00    +0.026 C 
ATOM     31  C   UNL     1      33.866 -13.514 -20.995  0.00  0.00    +0.176 C 
ATOM     32  C   UNL     1      32.036 -12.290 -19.598  0.00  0.00    +0.014 C 
ATOM     33  C   UNL     1      33.484 -11.340 -22.767  0.00  0.00    +0.018 C 
ATOM     34  C   UNL     1      34.410 -12.347 -23.054  0.00  0.00    +0.041 C 
ATOM     35  C   UNL     1      30.318 -10.424 -19.060  0.00  0.00    +0.047 C 
ATOM     36  H   UNL     1      31.475  -9.788 -21.458  0.00  0.00    +0.152 HD
ENDBRANCH  24  29
ENDBRANCH   8  24
TORSDOF 9
ENDMDL
MODEL 4
REMARK VINA RESULT:     -11.3      3.176      5.302
REMARK  Name = 11154925
REMARK  9 active torsions:
REMARK  status: ('A' for Active; 'I' for Inactive)
REMARK    1  A    between atoms: C_6  and  O_11
REMARK    2  A    between atoms: C_8  and  O_24
REMARK    3  A    between atoms: O_11  and  C_12
REMARK    4  A    between atoms: C_12  and  C_13
REMARK    5  A    between atoms: C_13  and  O_15
REMARK    6  A    between atoms: O_15  and  C_17
REMARK    7  A    between atoms: C_17  and  C_18
REMARK    8  A    between atoms: C_18  and  N_20
REMARK    9  A    between atoms: O_24  and  C_29
REMARK                            x       y       z     vdW  Elec       q    Type
REMARK                         _______ _______ _______ _____ _____    ______ ____
ROOT
ATOM      1  N   UNL     1      34.124 -20.685 -19.121  0.00  0.00    -0.180 N 
ATOM      2  N   UNL     1      32.810 -20.641 -19.482  0.00  0.00    -0.151 NA
ATOM      3  N   UNL     1      33.454 -19.036 -21.172  0.00  0.00    -0.187 NA
ATOM      4  C   UNL     1      35.105 -19.950 -19.735  0.00  0.00    +0.126 C 
ATOM      5  C   UNL     1      36.306 -20.233 -19.126  0.00  0.00    +0.034 C 
ATOM      6  C   UNL     1      36.036 -21.178 -18.103  0.00  0.00    +0.153 C 
ATOM      7  C   UNL     1      34.681 -21.440 -18.122  0.00  0.00    +0.126 C 
ATOM      8  C   UNL     1      34.691 -19.107 -20.801  0.00  0.00    +0.247 C 
ATOM      9  C   UNL     1      37.646 -19.692 -19.432  0.00  0.00    +0.036 C 
ATOM     10  C   UNL     1      32.555 -19.829 -20.473  0.00  0.00    +0.220 C 
ENDROOT
BRANCH   6  11
ATOM     11  O   UNL     1      36.902 -21.744 -17.250  0.00  0.00    -0.470 OA
BRANCH  11  12
ATOM     12  C   UNL     1      37.109 -21.085 -15.996  0.00  0.00    +0.249 C 
BRANCH  12  13
ATOM     13  C   UNL     1      36.808 -22.063 -14.868  0.00  0.00    +0.212 C 
ATOM     14  C   UNL     1      35.328 -22.407 -14.809  0.00  0.00    +0.051 C 
BRANCH  13  15
ATOM     15  O   UNL     1      37.551 -23.259 -15.101  0.00  0.00    -0.450 OA
BRANCH  15  17
ATOM     16  O   UNL     1      36.445 -25.274 -14.942  0.00  0.00    -0.252 OA
ATOM     17  C   UNL     1      37.107 -24.374 -14.441  0.00  0.00    +0.296 C 
BRANCH  17  18
ATOM     18  C   UNL     1      37.560 -24.315 -12.995  0.00  0.00    +0.036 C 
ATOM     19  C   UNL     1      38.815 -25.152 -12.790  0.00  0.00    -0.013 C 
BRANCH  18  20
ATOM     20  N   UNL     1      36.479 -24.835 -12.159  0.00  0.00    +0.389 N 
ATOM     21  H   UNL     1      35.606 -24.368 -12.403  0.00  0.00    -0.088 HD
ATOM     22  H   UNL     1      36.695 -24.660 -11.177  0.00  0.00    -0.088 HD
ATOM     23  H   UNL     1      36.383 -25.839 -12.311  0.00  0.00    -0.088 HD
ENDBRANCH  18  20
ENDBRANCH  17  18
ENDBRANCH  15  17
ENDBRANCH  13  15
ENDBRANCH  12  13
ENDBRANCH  11  12
ENDBRANCH   6  11
BRANCH   8  24
ATOM     24  O   UNL     1      35.641 -18.370 -21.424  0.00  0.00    -0.433 OA
BRANCH  24  29
ATOM     25  F   UNL     1      35.259 -16.925 -23.728  0.00  0.00    -0.201 F 
ATOM     26  N   UNL     1      34.510 -13.005 -21.407  0.00  0.00    -0.316 N 
ATOM     27  C   UNL     1      34.883 -14.936 -22.462  0.00  0.00    +0.045 C 
ATOM     28  C   UNL     1      34.798 -14.336 -21.203  0.00  0.00    +0.050 C 
ATOM     29  C   UNL     1      35.361 -17.038 -21.358  0.00  0.00    +0.175 C 
ATOM     30  C   UNL     1      34.411 -12.744 -22.747  0.00  0.00    +0.026 C 
ATOM     31  C   UNL     1      35.170 -16.312 -22.540  0.00  0.00    +0.176 C 
ATOM     32  C   UNL     1      34.636 -13.919 -23.426  0.00  0.00    +0.014 C 
ATOM     33  C   UNL     1      34.987 -15.049 -20.014  0.00  0.00    +0.018 C 
ATOM     34  C   UNL     1      35.270 -16.414 -20.115  0.00  0.00    +0.041 C 
ATOM     35  C   UNL     1      34.109 -11.387 -23.242  0.00  0.00    +0.047 C 
ATOM     36  H   UNL     1      34.393 -12.338 -20.692  0.00  0.00    +0.152 HD
ENDBRANCH  24  29
ENDBRANCH   8  24
TORSDOF 9
ENDMDL
MODEL 5
REMARK VINA RESULT:     -11.0      5.723     11.820
REMARK  Name = 11154925
REMARK  9 active torsions:
REMARK  status: ('A' for Active; 'I' for Inactive)
REMARK    1  A    between atoms: C_6  and  O_11
REMARK    2  A    between atoms: C_8  and  O_24
REMARK    3  A    between atoms: O_11  and  C_12
REMARK    4  A    between atoms: C_12  and  C_13
REMARK    5  A    between atoms: C_13  and  O_15
REMARK    6  A    between atoms: O_15  and  C_17
REMARK    7  A    between atoms: C_17  and  C_18
REMARK    8  A    between atoms: C_18  and  N_20
REMARK    9  A    between atoms: O_24  and  C_29
REMARK                            x       y       z     vdW  Elec       q    Type
REMARK                         _______ _______ _______ _____ _____    ______ ____
ROOT
ATOM      1  N   UNL     1      34.256 -15.964 -23.949  0.00  0.00    -0.180 N 
ATOM      2  N   UNL     1      34.072 -16.858 -24.961  0.00  0.00    -0.151 NA
ATOM      3  N   UNL     1      35.121 -18.504 -23.534  0.00  0.00    -0.187 NA
ATOM      4  C   UNL     1      34.846 -16.282 -22.752  0.00  0.00    +0.126 C 
ATOM      5  C   UNL     1      34.871 -15.153 -21.966  0.00  0.00    +0.034 C 
ATOM      6  C   UNL     1      34.271 -14.112 -22.721  0.00  0.00    +0.153 C 
ATOM      7  C   UNL     1      33.900 -14.641 -23.941  0.00  0.00    +0.126 C 
ATOM      8  C   UNL     1      35.276 -17.627 -22.597  0.00  0.00    +0.247 C 
ATOM      9  C   UNL     1      35.405 -14.993 -20.598  0.00  0.00    +0.036 C 
ATOM     10  C   UNL     1      34.510 -18.060 -24.698  0.00  0.00    +0.220 C 
ENDROOT
BRANCH   6  11
ATOM     11  O   UNL     1      34.076 -12.836 -22.360  0.00  0.00    -0.470 OA
BRANCH  11  12
ATOM     12  C   UNL     1      34.314 -11.832 -23.353  0.00  0.00    +0.249 C 
BRANCH  12  13
ATOM     13  C   UNL     1      33.695 -10.520 -22.888  0.00  0.00    +0.212 C 
ATOM     14  C   UNL     1      33.513  -9.549 -24.045  0.00  0.00    +0.051 C 
BRANCH  13  15
ATOM     15  O   UNL     1      32.418 -10.804 -22.319  0.00  0.00    -0.450 OA
BRANCH  15  17
ATOM     16  O   UNL     1      32.442  -9.028 -20.851  0.00  0.00    -0.252 OA
ATOM     17  C   UNL     1      32.145 -10.182 -21.130  0.00  0.00    +0.296 C 
BRANCH  17  18
ATOM     18  C   UNL     1      31.421 -11.149 -20.212  0.00  0.00    +0.036 C 
ATOM     19  C   UNL     1      31.796 -10.894 -18.758  0.00  0.00    -0.013 C 
BRANCH  18  20
ATOM     20  N   UNL     1      31.805 -12.508 -20.589  0.00  0.00    +0.389 N 
ATOM     21  H   UNL     1      32.740 -12.707 -20.236  0.00  0.00    -0.088 HD
ATOM     22  H   UNL     1      31.799 -12.593 -21.606  0.00  0.00    -0.088 HD
ATOM     23  H   UNL     1      31.142 -13.173 -20.190  0.00  0.00    -0.088 HD
ENDBRANCH  18  20
ENDBRANCH  17  18
ENDBRANCH  15  17
ENDBRANCH  13  15
ENDBRANCH  12  13
ENDBRANCH  11  12
ENDBRANCH   6  11
BRANCH   8  24
ATOM     24  O   UNL     1      35.863 -17.967 -21.425  0.00  0.00    -0.433 OA
BRANCH  24  29
ATOM     25  F   UNL     1      36.989 -19.632 -19.553  0.00  0.00    -0.201 F 
ATOM     26  N   UNL     1      32.909 -21.461 -18.404  0.00  0.00    -0.316 N 
ATOM     27  C   UNL     1      34.846 -20.533 -19.011  0.00  0.00    +0.045 C 
ATOM     28  C   UNL     1      33.469 -20.529 -19.249  0.00  0.00    +0.050 C 
ATOM     29  C   UNL     1      35.078 -18.815 -20.702  0.00  0.00    +0.175 C 
ATOM     30  C   UNL     1      33.881 -22.052 -17.642  0.00  0.00    +0.026 C 
ATOM     31  C   UNL     1      35.664 -19.659 -19.751  0.00  0.00    +0.176 C 
ATOM     32  C   UNL     1      35.090 -21.498 -17.995  0.00  0.00    +0.014 C 
ATOM     33  C   UNL     1      32.869 -19.692 -20.195  0.00  0.00    +0.018 C 
ATOM     34  C   UNL     1      33.701 -18.832 -20.919  0.00  0.00    +0.041 C 
ATOM     35  C   UNL     1      33.550 -23.093 -16.651  0.00  0.00    +0.047 C 
ATOM     36  H   UNL     1      31.948 -21.672 -18.356  0.00  0.00    +0.152 HD
ENDBRANCH  24  29
ENDBRANCH   8  24
TORSDOF 9
ENDMDL
MODEL 6
REMARK VINA RESULT:     -10.9      5.835     12.227
REMARK  Name = 11154925
REMARK  9 active torsions:
REMARK  status: ('A' for Active; 'I' for Inactive)
REMARK    1  A    between atoms: C_6  and  O_11
REMARK    2  A    between atoms: C_8  and  O_24
REMARK    3  A    between atoms: O_11  and  C_12
REMARK    4  A    between atoms: C_12  and  C_13
REMARK    5  A    between atoms: C_13  and  O_15
REMARK    6  A    between atoms: O_15  and  C_17
REMARK    7  A    between atoms: C_17  and  C_18
REMARK    8  A    between atoms: C_18  and  N_20
REMARK    9  A    between atoms: O_24  and  C_29
REMARK                            x       y       z     vdW  Elec       q    Type
REMARK                         _______ _______ _______ _____ _____    ______ ____
ROOT
ATOM      1  N   UNL     1      34.358 -16.491 -24.188  0.00  0.00    -0.180 N 
ATOM      2  N   UNL     1      34.077 -17.485 -25.077  0.00  0.00    -0.151 NA
ATOM      3  N   UNL     1      35.005 -19.026 -23.463  0.00  0.00    -0.187 NA
ATOM      4  C   UNL     1      34.941 -16.708 -22.966  0.00  0.00    +0.126 C 
ATOM      5  C   UNL     1      35.080 -15.497 -22.329  0.00  0.00    +0.034 C 
ATOM      6  C   UNL     1      34.559 -14.509 -23.204  0.00  0.00    +0.153 C 
ATOM      7  C   UNL     1      34.119 -15.151 -24.345  0.00  0.00    +0.126 C 
ATOM      8  C   UNL     1      35.255 -18.056 -22.645  0.00  0.00    +0.247 C 
ATOM      9  C   UNL     1      35.652 -15.214 -20.997  0.00  0.00    +0.036 C 
ATOM     10  C   UNL     1      34.413 -18.679 -24.668  0.00  0.00    +0.220 C 
ENDROOT
BRANCH   6  11
ATOM     11  O   UNL     1      34.483 -13.185 -23.007  0.00  0.00    -0.470 OA
BRANCH  11  12
ATOM     12  C   UNL     1      33.344 -12.694 -22.293  0.00  0.00    +0.249 C 
BRANCH  12  13
ATOM     13  C   UNL     1      33.051 -11.270 -22.749  0.00  0.00    +0.212 C 
ATOM     14  C   UNL     1      32.474 -10.431 -21.619  0.00  0.00    +0.051 C 
BRANCH  13  15
ATOM     15  O   UNL     1      34.274 -10.678 -23.184  0.00  0.00    -0.450 OA
BRANCH  15  17
ATOM     16  O   UNL     1      33.809 -10.925 -25.427  0.00  0.00    -0.252 OA
ATOM     17  C   UNL     1      34.321 -10.308 -24.502  0.00  0.00    +0.296 C 
BRANCH  17  18
ATOM     18  C   UNL     1      35.109  -9.019 -24.633  0.00  0.00    +0.036 C 
ATOM     19  C   UNL     1      36.029  -9.072 -25.846  0.00  0.00    -0.013 C 
BRANCH  18  20
ATOM     20  N   UNL     1      35.903  -8.844 -23.419  0.00  0.00    +0.389 N 
ATOM     21  H   UNL     1      36.583  -9.600 -23.346  0.00  0.00    -0.088 HD
ATOM     22  H   UNL     1      35.287  -8.861 -22.605  0.00  0.00    -0.088 HD
ATOM     23  H   UNL     1      36.391  -7.950 -23.456  0.00  0.00    -0.088 HD
ENDBRANCH  18  20
ENDBRANCH  17  18
ENDBRANCH  15  17
ENDBRANCH  13  15
ENDBRANCH  12  13
ENDBRANCH  11  12
ENDBRANCH   6  11
BRANCH   8  24
ATOM     24  O   UNL     1      35.833 -18.297 -21.444  0.00  0.00    -0.433 OA
BRANCH  24  29
ATOM     25  F   UNL     1      36.949 -19.949 -19.555  0.00  0.00    -0.201 F 
ATOM     26  N   UNL     1      32.829 -21.497 -18.157  0.00  0.00    -0.316 N 
ATOM     27  C   UNL     1      34.785 -20.705 -18.884  0.00  0.00    +0.045 C 
ATOM     28  C   UNL     1      33.401 -20.632 -19.064  0.00  0.00    +0.050 C 
ATOM     29  C   UNL     1      35.035 -19.070 -20.654  0.00  0.00    +0.175 C 
ATOM     30  C   UNL     1      33.801 -22.113 -17.415  0.00  0.00    +0.026 C 
ATOM     31  C   UNL     1      35.617 -19.909 -19.695  0.00  0.00    +0.176 C 
ATOM     32  C   UNL     1      35.022 -21.642 -17.841  0.00  0.00    +0.014 C 
ATOM     33  C   UNL     1      32.807 -19.799 -20.017  0.00  0.00    +0.018 C 
ATOM     34  C   UNL     1      33.652 -19.017 -20.810  0.00  0.00    +0.041 C 
ATOM     35  C   UNL     1      33.458 -23.093 -16.367  0.00  0.00    +0.047 C 
ATOM     36  H   UNL     1      31.862 -21.651 -18.059  0.00  0.00    +0.152 HD
ENDBRANCH  24  29
ENDBRANCH   8  24
TORSDOF 9
ENDMDL
MODEL 7
REMARK VINA RESULT:     -10.7      6.160     12.691
REMARK  Name = 11154925
REMARK  9 active torsions:
REMARK  status: ('A' for Active; 'I' for Inactive)
REMARK    1  A    between atoms: C_6  and  O_11
REMARK    2  A    between atoms: C_8  and  O_24
REMARK    3  A    between atoms: O_11  and  C_12
REMARK    4  A    between atoms: C_12  and  C_13
REMARK    5  A    between atoms: C_13  and  O_15
REMARK    6  A    between atoms: O_15  and  C_17
REMARK    7  A    between atoms: C_17  and  C_18
REMARK    8  A    between atoms: C_18  and  N_20
REMARK    9  A    between atoms: O_24  and  C_29
REMARK                            x       y       z     vdW  Elec       q    Type
REMARK                         _______ _______ _______ _____ _____    ______ ____
ROOT
ATOM      1  N   UNL     1      34.677 -14.606 -21.729  0.00  0.00    -0.180 N 
ATOM      2  N   UNL     1      34.820 -14.257 -20.420  0.00  0.00    -0.151 NA
ATOM      3  N   UNL     1      35.454 -16.552 -20.002  0.00  0.00    -0.187 NA
ATOM      4  C   UNL     1      34.905 -15.871 -22.207  0.00  0.00    +0.126 C 
ATOM      5  C   UNL     1      34.668 -15.874 -23.562  0.00  0.00    +0.034 C 
ATOM      6  C   UNL     1      34.283 -14.555 -23.915  0.00  0.00    +0.153 C 
ATOM      7  C   UNL     1      34.297 -13.793 -22.764  0.00  0.00    +0.126 C 
ATOM      8  C   UNL     1      35.309 -16.844 -21.254  0.00  0.00    +0.247 C 
ATOM      9  C   UNL     1      34.777 -16.996 -24.516  0.00  0.00    +0.036 C 
ATOM     10  C   UNL     1      35.195 -15.238 -19.642  0.00  0.00    +0.220 C 
ENDROOT
BRANCH   6  11
ATOM     11  O   UNL     1      33.956 -14.084 -25.127  0.00  0.00    -0.470 OA
BRANCH  11  12
ATOM     12  C   UNL     1      33.304 -12.811 -25.181  0.00  0.00    +0.249 C 
BRANCH  12  13
ATOM     13  C   UNL     1      34.295 -11.770 -25.689  0.00  0.00    +0.212 C 
ATOM     14  C   UNL     1      34.512 -11.893 -27.189  0.00  0.00    +0.051 C 
BRANCH  13  15
ATOM     15  O   UNL     1      33.770 -10.475 -25.403  0.00  0.00    -0.450 OA
BRANCH  15  17
ATOM     16  O   UNL     1      35.803  -9.543 -24.852  0.00  0.00    -0.252 OA
ATOM     17  C   UNL     1      34.593  -9.642 -24.694  0.00  0.00    +0.296 C 
BRANCH  17  18
ATOM     18  C   UNL     1      33.772  -8.865 -23.683  0.00  0.00    +0.036 C 
ATOM     19  C   UNL     1      34.643  -7.859 -22.942  0.00  0.00    -0.013 C 
BRANCH  18  20
ATOM     20  N   UNL     1      33.202  -9.818 -22.732  0.00  0.00    +0.389 N 
ATOM     21  H   UNL     1      33.649  -9.699 -21.823  0.00  0.00    -0.088 HD
ATOM     22  H   UNL     1      33.360 -10.768 -23.067  0.00  0.00    -0.088 HD
ATOM     23  H   UNL     1      32.200  -9.651 -22.643  0.00  0.00    -0.088 HD
ENDBRANCH  18  20
ENDBRANCH  17  18
ENDBRANCH  15  17
ENDBRANCH  13  15
ENDBRANCH  12  13
ENDBRANCH  11  12
ENDBRANCH   6  11
BRANCH   8  24
ATOM     24  O   UNL     1      35.540 -18.102 -21.699  0.00  0.00    -0.433 OA
BRANCH  24  29
ATOM     25  F   UNL     1      33.168 -19.212 -20.872  0.00  0.00    -0.201 F 
ATOM     26  N   UNL     1      35.237 -21.743 -17.612  0.00  0.00    -0.316 N 
ATOM     27  C   UNL     1      34.305 -20.491 -19.207  0.00  0.00    +0.045 C 
ATOM     28  C   UNL     1      35.518 -20.828 -18.601  0.00  0.00    +0.050 C 
ATOM     29  C   UNL     1      35.526 -19.003 -20.678  0.00  0.00    +0.175 C 
ATOM     30  C   UNL     1      33.892 -21.996 -17.571  0.00  0.00    +0.026 C 
ATOM     31  C   UNL     1      34.310 -19.562 -20.265  0.00  0.00    +0.176 C 
ATOM     32  C   UNL     1      33.288 -21.236 -18.547  0.00  0.00    +0.014 C 
ATOM     33  C   UNL     1      36.740 -20.278 -19.003  0.00  0.00    +0.018 C 
ATOM     34  C   UNL     1      36.721 -19.358 -20.056  0.00  0.00    +0.041 C 
ATOM     35  C   UNL     1      33.319 -22.943 -16.596  0.00  0.00    +0.047 C 
ATOM     36  H   UNL     1      35.906 -22.155 -17.019  0.00  0.00    +0.152 HD
ENDBRANCH  24  29
ENDBRANCH   8  24
TORSDOF 9
ENDMDL
MODEL 8
REMARK VINA RESULT:     -10.6      5.431      9.785
REMARK  Name = 11154925
REMARK  9 active torsions:
REMARK  status: ('A' for Active; 'I' for Inactive)
REMARK    1  A    between atoms: C_6  and  O_11
REMARK    2  A    between atoms: C_8  and  O_24
REMARK    3  A    between atoms: O_11  and  C_12
REMARK    4  A    between atoms: C_12  and  C_13
REMARK    5  A    between atoms: C_13  and  O_15
REMARK    6  A    between atoms: O_15  and  C_17
REMARK    7  A    between atoms: C_17  and  C_18
REMARK    8  A    between atoms: C_18  and  N_20
REMARK    9  A    between atoms: O_24  and  C_29
REMARK                            x       y       z     vdW  Elec       q    Type
REMARK                         _______ _______ _______ _____ _____    ______ ____
ROOT
ATOM      1  N   UNL     1      34.205 -17.222 -24.060  0.00  0.00    -0.180 N 
ATOM      2  N   UNL     1      33.633 -16.835 -25.235  0.00  0.00    -0.151 NA
ATOM      3  N   UNL     1      34.136 -14.560 -24.588  0.00  0.00    -0.187 NA
ATOM      4  C   UNL     1      34.738 -16.347 -23.149  0.00  0.00    +0.126 C 
ATOM      5  C   UNL     1      35.227 -17.069 -22.085  0.00  0.00    +0.034 C 
ATOM      6  C   UNL     1      34.977 -18.437 -22.368  0.00  0.00    +0.153 C 
ATOM      7  C   UNL     1      34.346 -18.503 -23.594  0.00  0.00    +0.126 C 
ATOM      8  C   UNL     1      34.671 -14.968 -23.484  0.00  0.00    +0.247 C 
ATOM      9  C   UNL     1      35.890 -16.576 -20.861  0.00  0.00    +0.036 C 
ATOM     10  C   UNL     1      33.632 -15.543 -25.428  0.00  0.00    +0.220 C 
ENDROOT
BRANCH   6  11
ATOM     11  O   UNL     1      35.280 -19.506 -21.617  0.00  0.00    -0.470 OA
BRANCH  11  12
ATOM     12  C   UNL     1      35.552 -19.274 -20.230  0.00  0.00    +0.249 C 
BRANCH  12  13
ATOM     13  C   UNL     1      35.530 -20.608 -19.494  0.00  0.00    +0.212 C 
ATOM     14  C   UNL     1      36.622 -20.678 -18.437  0.00  0.00    +0.051 C 
BRANCH  13  15
ATOM     15  O   UNL     1      34.261 -20.747 -18.857  0.00  0.00    -0.450 OA
BRANCH  15  17
ATOM     16  O   UNL     1      34.087 -23.032 -19.096  0.00  0.00    -0.252 OA
ATOM     17  C   UNL     1      33.941 -22.011 -18.437  0.00  0.00    +0.296 C 
BRANCH  17  18
ATOM     18  C   UNL     1      33.373 -21.945 -17.033  0.00  0.00    +0.036 C 
ATOM     19  C   UNL     1      33.962 -23.046 -16.162  0.00  0.00    -0.013 C 
BRANCH  18  20
ATOM     20  N   UNL     1      31.923 -22.109 -17.120  0.00  0.00    +0.389 N 
ATOM     21  H   UNL     1      31.480 -21.644 -16.327  0.00  0.00    -0.088 HD
ATOM     22  H   UNL     1      31.692 -23.102 -17.105  0.00  0.00    -0.088 HD
ATOM     23  H   UNL     1      31.585 -21.695 -17.989  0.00  0.00    -0.088 HD
ENDBRANCH  18  20
ENDBRANCH  17  18
ENDBRANCH  15  17
ENDBRANCH  13  15
ENDBRANCH  12  13
ENDBRANCH  11  12
ENDBRANCH   6  11
BRANCH   8  24
ATOM     24  O   UNL     1      35.191 -14.081 -22.601  0.00  0.00    -0.433 OA
BRANCH  24  29
ATOM     25  F   UNL     1      35.152 -11.634 -23.847  0.00  0.00    -0.201 F 
ATOM     26  N   UNL     1      31.593 -10.152 -21.308  0.00  0.00    -0.316 N 
ATOM     27  C   UNL     1      33.311 -10.935 -22.497  0.00  0.00    +0.045 C 
ATOM     28  C   UNL     1      32.402 -11.252 -21.485  0.00  0.00    +0.050 C 
ATOM     29  C   UNL     1      34.272 -13.143 -22.238  0.00  0.00    +0.175 C 
ATOM     30  C   UNL     1      31.958  -9.154 -22.170  0.00  0.00    +0.026 C 
ATOM     31  C   UNL     1      34.263 -11.899 -22.880  0.00  0.00    +0.176 C 
ATOM     32  C   UNL     1      33.018  -9.609 -22.920  0.00  0.00    +0.014 C 
ATOM     33  C   UNL     1      32.399 -12.491 -20.834  0.00  0.00    +0.018 C 
ATOM     34  C   UNL     1      33.352 -13.433 -21.231  0.00  0.00    +0.041 C 
ATOM     35  C   UNL     1      31.250  -7.860 -22.188  0.00  0.00    +0.047 C 
ATOM     36  H   UNL     1      30.858 -10.093 -20.654  0.00  0.00    +0.152 HD
ENDBRANCH  24  29
ENDBRANCH   8  24
TORSDOF 9
ENDMDL
MODEL 9
REMARK VINA RESULT:     -10.5      9.188     13.476
REMARK  Name = 11154925
REMARK  9 active torsions:
REMARK  status: ('A' for Active; 'I' for Inactive)
REMARK    1  A    between atoms: C_6  and  O_11
REMARK    2  A    between atoms: C_8  and  O_24
REMARK    3  A    between atoms: O_11  and  C_12
REMARK    4  A    between atoms: C_12  and  C_13
REMARK    5  A    between atoms: C_13  and  O_15
REMARK    6  A    between atoms: O_15  and  C_17
REMARK    7  A    between atoms: C_17  and  C_18
REMARK    8  A    between atoms: C_18  and  N_20
REMARK    9  A    between atoms: O_24  and  C_29
REMARK                            x       y       z     vdW  Elec       q    Type
REMARK                         _______ _______ _______ _____ _____    ______ ____
ROOT
ATOM      1  N   UNL     1      32.787 -12.420 -20.489  0.00  0.00    -0.180 N 
ATOM      2  N   UNL     1      31.914 -12.266 -19.454  0.00  0.00    -0.151 NA
ATOM      3  N   UNL     1      31.184 -10.229 -20.532  0.00  0.00    -0.187 NA
ATOM      4  C   UNL     1      32.891 -11.537 -21.533  0.00  0.00    +0.126 C 
ATOM      5  C   UNL     1      33.862 -11.993 -22.393  0.00  0.00    +0.034 C 
ATOM      6  C   UNL     1      34.364 -13.202 -21.845  0.00  0.00    +0.153 C 
ATOM      7  C   UNL     1      33.682 -13.442 -20.669  0.00  0.00    +0.126 C 
ATOM      8  C   UNL     1      32.025 -10.411 -21.498  0.00  0.00    +0.247 C 
ATOM      9  C   UNL     1      34.335 -11.389 -23.656  0.00  0.00    +0.036 C 
ATOM     10  C   UNL     1      31.173 -11.193 -19.534  0.00  0.00    +0.220 C 
ENDROOT
BRANCH   6  11
ATOM     11  O   UNL     1      35.321 -14.000 -22.338  0.00  0.00    -0.470 OA
BRANCH  11  12
ATOM     12  C   UNL     1      34.948 -14.893 -23.393  0.00  0.00    +0.249 C 
BRANCH  12  13
ATOM     13  C   UNL     1      34.760 -16.290 -22.815  0.00  0.00    +0.212 C 
ATOM     14  C   UNL     1      34.565 -17.325 -23.912  0.00  0.00    +0.051 C 
BRANCH  13  15
ATOM     15  O   UNL     1      35.927 -16.626 -22.066  0.00  0.00    -0.450 OA
BRANCH  15  17
ATOM     16  O   UNL     1      35.448 -16.325 -19.833  0.00  0.00    -0.252 OA
ATOM     17  C   UNL     1      35.709 -17.051 -20.783  0.00  0.00    +0.296 C 
BRANCH  17  18
ATOM     18  C   UNL     1      35.846 -18.560 -20.724  0.00  0.00    +0.036 C 
ATOM     19  C   UNL     1      34.496 -19.213 -20.457  0.00  0.00    -0.013 C 
BRANCH  18  20
ATOM     20  N   UNL     1      36.776 -18.891 -19.645  0.00  0.00    +0.389 N 
ATOM     21  H   UNL     1      37.110 -18.032 -19.210  0.00  0.00    -0.088 HD
ATOM     22  H   UNL     1      37.568 -19.409 -20.026  0.00  0.00    -0.088 HD
ATOM     23  H   UNL     1      36.300 -19.463 -18.948  0.00  0.00    -0.088 HD
ENDBRANCH  18  20
ENDBRANCH  17  18
ENDBRANCH  15  17
ENDBRANCH  13  15
ENDBRANCH  12  13
ENDBRANCH  11  12
ENDBRANCH   6  11
BRANCH   8  24
ATOM     24  O   UNL     1      32.108  -9.523 -22.517  0.00  0.00    -0.433 OA
BRANCH  24  29
ATOM     25  F   UNL     1      31.617  -7.403 -24.192  0.00  0.00    -0.201 F 
ATOM     26  N   UNL     1      32.524  -4.303 -20.893  0.00  0.00    -0.316 N 
ATOM     27  C   UNL     1      32.101  -5.857 -22.438  0.00  0.00    +0.045 C 
ATOM     28  C   UNL     1      32.475  -5.663 -21.106  0.00  0.00    +0.050 C 
ATOM     29  C   UNL     1      32.227  -8.246 -22.057  0.00  0.00    +0.175 C 
ATOM     30  C   UNL     1      32.194  -3.634 -22.041  0.00  0.00    +0.026 C 
ATOM     31  C   UNL     1      31.974  -7.174 -22.921  0.00  0.00    +0.176 C 
ATOM     32  C   UNL     1      31.927  -4.569 -23.015  0.00  0.00    +0.014 C 
ATOM     33  C   UNL     1      32.730  -6.724 -20.231  0.00  0.00    +0.018 C 
ATOM     34  C   UNL     1      32.598  -8.023 -20.732  0.00  0.00    +0.041 C 
ATOM     35  C   UNL     1      32.170  -2.160 -22.088  0.00  0.00    +0.047 C 
ATOM     36  H   UNL     1      32.762  -3.875 -20.039  0.00  0.00    +0.152 HD
ENDBRANCH  24  29
ENDBRANCH   8  24
TORSDOF 9
ENDMDL
