MODEL 1
REMARK VINA RESULT:     -11.7      0.000      0.000
REMARK  Name = 11978813
REMARK  7 active torsions:
REMARK  status: ('A' for Active; 'I' for Inactive)
REMARK    1  A    between atoms: C_1  and  N_2
REMARK    2  A    between atoms: C_1  and  C_18
REMARK    3  A    between atoms: N_3  and  C_10
REMARK    4  A    between atoms: C_18  and  C_19
REMARK    5  A    between atoms: C_19  and  C_20
REMARK    6  A    between atoms: C_20  and  O_21
REMARK    7  A    between atoms: O_21  and  C_24
REMARK                            x       y       z     vdW  Elec       q    Type
REMARK                         _______ _______ _______ _____ _____    ______ ____
ROOT
ATOM      1  C   UNL     1      35.645 -20.960 -18.667  0.00  0.00    -0.077 C 
ENDROOT
BRANCH   1   2
ATOM      2  N   UNL     1      35.640 -20.160 -19.891  0.00  0.00    +0.389 N 
ATOM      3  N   UNL     1      35.207 -17.826 -21.480  0.00  0.00    -0.312 N 
ATOM      4  C   UNL     1      34.276 -19.727 -20.218  0.00  0.00    -0.055 C 
ATOM      5  C   UNL     1      36.514 -18.990 -19.747  0.00  0.00    -0.055 C 
ATOM      6  C   UNL     1      34.250 -18.938 -21.529  0.00  0.00    +0.068 C 
ATOM      7  C   UNL     1      36.562 -18.175 -21.041  0.00  0.00    +0.068 C 
ATOM      8  H   UNL     1      35.992 -20.742 -20.652  0.00  0.00    -0.080 HD
BRANCH   3  10
ATOM      9  S   UNL     1      34.517 -12.850 -22.068  0.00  0.00    -0.086 S 
ATOM     10  C   UNL     1      35.017 -16.755 -22.361  0.00  0.00    +0.048 C 
ATOM     11  C   UNL     1      34.864 -15.406 -21.903  0.00  0.00    +0.020 C 
ATOM     12  C   UNL     1      34.973 -16.998 -23.751  0.00  0.00    +0.015 C 
ATOM     13  C   UNL     1      34.677 -14.384 -22.838  0.00  0.00    +0.031 C 
ATOM     14  C   UNL     1      34.869 -14.890 -20.564  0.00  0.00    +0.009 C 
ATOM     15  C   UNL     1      34.786 -15.967 -24.661  0.00  0.00    +0.002 C 
ATOM     16  C   UNL     1      34.636 -14.649 -24.221  0.00  0.00    +0.007 C 
ATOM     17  C   UNL     1      34.692 -13.528 -20.515  0.00  0.00    +0.035 C 
ENDBRANCH   3  10
ENDBRANCH   1   2
BRANCH   1  18
ATOM     18  C   UNL     1      34.520 -21.993 -18.702  0.00  0.00    -0.019 C 
BRANCH  18  19
ATOM     19  C   UNL     1      33.431 -21.659 -17.684  0.00  0.00    +0.045 C 
BRANCH  19  20
ATOM     20  C   UNL     1      33.448 -22.625 -16.507  0.00  0.00    +0.205 C 
BRANCH  20  21
ATOM     21  O   UNL     1      34.707 -23.282 -16.441  0.00  0.00    -0.475 OA
BRANCH  21  24
ATOM     22  O   UNL     1      35.464 -24.318  -9.443  0.00  0.00    -0.270 OA
ATOM     23  N   UNL     1      35.202 -23.990 -11.707  0.00  0.00    -0.280 N 
ATOM     24  C   UNL     1      35.429 -23.121 -15.286  0.00  0.00    +0.140 C 
ATOM     25  C   UNL     1      34.939 -23.639 -14.094  0.00  0.00    +0.052 C 
ATOM     26  C   UNL     1      35.683 -23.471 -12.923  0.00  0.00    +0.054 C 
ATOM     27  C   UNL     1      36.642 -22.442 -15.325  0.00  0.00    +0.037 C 
ATOM     28  C   UNL     1      36.904 -22.790 -12.945  0.00  0.00    +0.014 C 
ATOM     29  C   UNL     1      37.383 -22.275 -14.153  0.00  0.00    +0.004 C 
ATOM     30  C   UNL     1      37.651 -22.637 -11.698  0.00  0.00    +0.006 C 
ATOM     31  C   UNL     1      35.877 -23.866 -10.509  0.00  0.00    +0.250 C 
ATOM     32  C   UNL     1      37.175 -23.139 -10.552  0.00  0.00    +0.058 C 
ATOM     33  H   UNL     1      34.339 -24.466 -11.710  0.00  0.00    +0.155 HD
ENDBRANCH  21  24
ENDBRANCH  20  21
ENDBRANCH  19  20
ENDBRANCH  18  19
ENDBRANCH   1  18
TORSDOF 7
ENDMDL
MODEL 2
REMARK VINA RESULT:     -11.7      2.150      2.798
REMARK  Name = 11978813
REMARK  7 active torsions:
REMARK  status: ('A' for Active; 'I' for Inactive)
REMARK    1  A    between atoms: C_1  and  N_2
REMARK    2  A    between atoms: C_1  and  C_18
REMARK    3  A    between atoms: N_3  and  C_10
REMARK    4  A    between atoms: C_18  and  C_19
REMARK    5  A    between atoms: C_19  and  C_20
REMARK    6  A    between atoms: C_20  and  O_21
REMARK    7  A    between atoms: O_21  and  C_24
REMARK                            x       y       z     vdW  Elec       q    Type
REMARK                         _______ _______ _______ _____ _____    ______ ____
ROOT
ATOM      1  C   UNL     1      34.646 -21.957 -17.236  0.00  0.00    -0.077 C 
ENDROOT
BRANCH   1   2
ATOM      2  N   UNL     1      34.722 -21.360 -18.569  0.00  0.00    +0.389 N 
ATOM      3  N   UNL     1      34.850 -19.232 -20.470  0.00  0.00    -0.312 N 
ATOM      4  C   UNL     1      33.544 -20.522 -18.826  0.00  0.00    -0.055 C 
ATOM      5  C   UNL     1      35.944 -20.559 -18.706  0.00  0.00    -0.055 C 
ATOM      6  C   UNL     1      33.584 -19.938 -20.240  0.00  0.00    +0.068 C 
ATOM      7  C   UNL     1      36.064 -19.975 -20.116  0.00  0.00    +0.068 C 
ATOM      8  H   UNL     1      34.745 -22.115 -19.254  0.00  0.00    -0.080 HD
BRANCH   3  10
ATOM      9  S   UNL     1      35.037 -14.339 -21.741  0.00  0.00    -0.086 S 
ATOM     10  C   UNL     1      34.895 -18.277 -21.492  0.00  0.00    +0.048 C 
ATOM     11  C   UNL     1      34.942 -16.871 -21.224  0.00  0.00    +0.020 C 
ATOM     12  C   UNL     1      34.894 -18.701 -22.839  0.00  0.00    +0.015 C 
ATOM     13  C   UNL     1      34.985 -15.971 -22.294  0.00  0.00    +0.031 C 
ATOM     14  C   UNL     1      34.954 -16.181 -19.966  0.00  0.00    +0.009 C 
ATOM     15  C   UNL     1      34.936 -17.789 -23.885  0.00  0.00    +0.002 C 
ATOM     16  C   UNL     1      34.982 -16.416 -23.630  0.00  0.00    +0.007 C 
ATOM     17  C   UNL     1      35.004 -14.815 -20.105  0.00  0.00    +0.035 C 
ENDBRANCH   3  10
ENDBRANCH   1   2
BRANCH   1  18
ATOM     18  C   UNL     1      33.430 -22.877 -17.134  0.00  0.00    -0.019 C 
BRANCH  18  19
ATOM     19  C   UNL     1      32.589 -22.547 -15.902  0.00  0.00    +0.045 C 
BRANCH  19  20
ATOM     20  C   UNL     1      33.431 -22.545 -14.632  0.00  0.00    +0.205 C 
BRANCH  20  21
ATOM     21  O   UNL     1      33.965 -23.843 -14.406  0.00  0.00    -0.475 OA
BRANCH  21  24
ATOM     22  O   UNL     1      40.842 -25.483 -15.202  0.00  0.00    -0.270 OA
ATOM     23  N   UNL     1      38.613 -24.960 -14.961  0.00  0.00    -0.280 N 
ATOM     24  C   UNL     1      35.238 -23.908 -13.901  0.00  0.00    +0.140 C 
ATOM     25  C   UNL     1      36.266 -24.402 -14.694  0.00  0.00    +0.052 C 
ATOM     26  C   UNL     1      37.560 -24.463 -14.171  0.00  0.00    +0.054 C 
ATOM     27  C   UNL     1      35.482 -23.480 -12.601  0.00  0.00    +0.037 C 
ATOM     28  C   UNL     1      37.823 -24.037 -12.865  0.00  0.00    +0.014 C 
ATOM     29  C   UNL     1      36.777 -23.542 -12.079  0.00  0.00    +0.004 C 
ATOM     30  C   UNL     1      39.189 -24.117 -12.356  0.00  0.00    +0.006 C 
ATOM     31  C   UNL     1      39.917 -25.052 -14.517  0.00  0.00    +0.250 C 
ATOM     32  C   UNL     1      40.176 -24.593 -13.125  0.00  0.00    +0.058 C 
ATOM     33  H   UNL     1      38.409 -25.257 -15.878  0.00  0.00    +0.155 HD
ENDBRANCH  21  24
ENDBRANCH  20  21
ENDBRANCH  19  20
ENDBRANCH  18  19
ENDBRANCH   1  18
TORSDOF 7
ENDMDL
MODEL 3
REMARK VINA RESULT:     -11.6      2.265      4.051
REMARK  Name = 11978813
REMARK  7 active torsions:
REMARK  status: ('A' for Active; 'I' for Inactive)
REMARK    1  A    between atoms: C_1  and  N_2
REMARK    2  A    between atoms: C_1  and  C_18
REMARK    3  A    between atoms: N_3  and  C_10
REMARK    4  A    between atoms: C_18  and  C_19
REMARK    5  A    between atoms: C_19  and  C_20
REMARK    6  A    between atoms: C_20  and  O_21
REMARK    7  A    between atoms: O_21  and  C_24
REMARK                            x       y       z     vdW  Elec       q    Type
REMARK                         _______ _______ _______ _____ _____    ______ ____
ROOT
ATOM      1  C   UNL     1      36.530 -21.263 -17.846  0.00  0.00    -0.077 C 
ENDROOT
BRANCH   1   2
ATOM      2  N   UNL     1      36.085 -20.139 -18.668  0.00  0.00    +0.389 N 
ATOM      3  N   UNL     1      35.414 -18.784 -21.091  0.00  0.00    -0.312 N 
ATOM      4  C   UNL     1      37.136 -19.742 -19.612  0.00  0.00    -0.055 C 
ATOM      5  C   UNL     1      34.862 -20.488 -19.400  0.00  0.00    -0.055 C 
ATOM      6  C   UNL     1      36.703 -18.529 -20.438  0.00  0.00    +0.068 C 
ATOM      7  C   UNL     1      34.353 -19.301 -20.221  0.00  0.00    +0.068 C 
ATOM      8  H   UNL     1      35.885 -19.353 -18.049  0.00  0.00    -0.080 HD
BRANCH   3  10
ATOM      9  S   UNL     1      34.623 -14.177 -23.025  0.00  0.00    -0.086 S 
ATOM     10  C   UNL     1      35.079 -18.013 -22.210  0.00  0.00    +0.048 C 
ATOM     11  C   UNL     1      35.000 -16.584 -22.159  0.00  0.00    +0.020 C 
ATOM     12  C   UNL     1      34.808 -18.654 -23.439  0.00  0.00    +0.015 C 
ATOM     13  C   UNL     1      34.658 -15.876 -23.316  0.00  0.00    +0.031 C 
ATOM     14  C   UNL     1      35.223 -15.695 -21.054  0.00  0.00    +0.009 C 
ATOM     15  C   UNL     1      34.471 -17.930 -24.575  0.00  0.00    +0.002 C 
ATOM     16  C   UNL     1      34.392 -16.536 -24.531  0.00  0.00    +0.007 C 
ATOM     17  C   UNL     1      35.052 -14.373 -21.388  0.00  0.00    +0.035 C 
ENDBRANCH   3  10
ENDBRANCH   1   2
BRANCH   1  18
ATOM     18  C   UNL     1      37.105 -20.760 -16.523  0.00  0.00    -0.019 C 
BRANCH  18  19
ATOM     19  C   UNL     1      37.873 -21.864 -15.799  0.00  0.00    +0.045 C 
BRANCH  19  20
ATOM     20  C   UNL     1      37.012 -22.550 -14.747  0.00  0.00    +0.205 C 
BRANCH  20  21
ATOM     21  O   UNL     1      36.040 -23.371 -15.381  0.00  0.00    -0.475 OA
BRANCH  21  24
ATOM     22  O   UNL     1      29.217 -21.849 -16.703  0.00  0.00    -0.270 OA
ATOM     23  N   UNL     1      31.430 -22.336 -16.292  0.00  0.00    -0.280 N 
ATOM     24  C   UNL     1      34.745 -23.243 -14.949  0.00  0.00    +0.140 C 
ATOM     25  C   UNL     1      33.758 -22.855 -15.846  0.00  0.00    +0.052 C 
ATOM     26  C   UNL     1      32.441 -22.728 -15.397  0.00  0.00    +0.054 C 
ATOM     27  C   UNL     1      34.437 -23.504 -13.618  0.00  0.00    +0.037 C 
ATOM     28  C   UNL     1      32.115 -22.986 -14.061  0.00  0.00    +0.014 C 
ATOM     29  C   UNL     1      33.120 -23.377 -13.170  0.00  0.00    +0.004 C 
ATOM     30  C   UNL     1      30.726 -22.842 -13.632  0.00  0.00    +0.006 C 
ATOM     31  C   UNL     1      30.107 -22.189 -15.925  0.00  0.00    +0.250 C 
ATOM     32  C   UNL     1      29.779 -22.468 -14.501  0.00  0.00    +0.058 C 
ATOM     33  H   UNL     1      31.678 -22.157 -17.229  0.00  0.00    +0.155 HD
ENDBRANCH  21  24
ENDBRANCH  20  21
ENDBRANCH  19  20
ENDBRANCH  18  19
ENDBRANCH   1  18
TORSDOF 7
ENDMDL
MODEL 4
REMARK VINA RESULT:     -11.6      1.838      2.313
REMARK  Name = 11978813
REMARK  7 active torsions:
REMARK  status: ('A' for Active; 'I' for Inactive)
REMARK    1  A    between atoms: C_1  and  N_2
REMARK    2  A    between atoms: C_1  and  C_18
REMARK    3  A    between atoms: N_3  and  C_10
REMARK    4  A    between atoms: C_18  and  C_19
REMARK    5  A    between atoms: C_19  and  C_20
REMARK    6  A    between atoms: C_20  and  O_21
REMARK    7  A    between atoms: O_21  and  C_24
REMARK                            x       y       z     vdW  Elec       q    Type
REMARK                         _______ _______ _______ _____ _____    ______ ____
ROOT
ATOM      1  C   UNL     1      35.800 -20.952 -18.594  0.00  0.00    -0.077 C 
ENDROOT
BRANCH   1   2
ATOM      2  N   UNL     1      35.767 -20.163 -19.825  0.00  0.00    +0.389 N 
ATOM      3  N   UNL     1      35.299 -17.842 -21.423  0.00  0.00    -0.312 N 
ATOM      4  C   UNL     1      34.396 -19.730 -20.122  0.00  0.00    -0.055 C 
ATOM      5  C   UNL     1      36.646 -18.993 -19.711  0.00  0.00    -0.055 C 
ATOM      6  C   UNL     1      34.339 -18.952 -21.439  0.00  0.00    +0.068 C 
ATOM      7  C   UNL     1      36.664 -18.189 -21.013  0.00  0.00    +0.068 C 
ATOM      8  H   UNL     1      36.100 -20.752 -20.589  0.00  0.00    -0.080 HD
BRANCH   3  10
ATOM      9  S   UNL     1      34.489 -12.885 -22.030  0.00  0.00    -0.086 S 
ATOM     10  C   UNL     1      35.090 -16.778 -22.308  0.00  0.00    +0.048 C 
ATOM     11  C   UNL     1      34.899 -15.432 -21.855  0.00  0.00    +0.020 C 
ATOM     12  C   UNL     1      35.063 -17.025 -23.698  0.00  0.00    +0.015 C 
ATOM     13  C   UNL     1      34.694 -14.417 -22.795  0.00  0.00    +0.031 C 
ATOM     14  C   UNL     1      34.881 -14.912 -20.518  0.00  0.00    +0.009 C 
ATOM     15  C   UNL     1      34.858 -16.001 -24.612  0.00  0.00    +0.002 C 
ATOM     16  C   UNL     1      34.671 -14.687 -24.177  0.00  0.00    +0.007 C 
ATOM     17  C   UNL     1      34.669 -13.556 -20.474  0.00  0.00    +0.035 C 
ENDBRANCH   3  10
ENDBRANCH   1   2
BRANCH   1  18
ATOM     18  C   UNL     1      34.675 -21.986 -18.595  0.00  0.00    -0.019 C 
BRANCH  18  19
ATOM     19  C   UNL     1      33.758 -21.806 -17.386  0.00  0.00    +0.045 C 
BRANCH  19  20
ATOM     20  C   UNL     1      33.916 -22.944 -16.388  0.00  0.00    +0.205 C 
BRANCH  20  21
ATOM     21  O   UNL     1      34.206 -22.418 -15.099  0.00  0.00    -0.475 OA
BRANCH  21  24
ATOM     22  O   UNL     1      40.950 -24.674 -14.862  0.00  0.00    -0.270 OA
ATOM     23  N   UNL     1      38.769 -23.940 -14.957  0.00  0.00    -0.280 N 
ATOM     24  C   UNL     1      35.243 -22.997 -14.414  0.00  0.00    +0.140 C 
ATOM     25  C   UNL     1      36.470 -23.169 -15.042  0.00  0.00    +0.052 C 
ATOM     26  C   UNL     1      37.521 -23.759 -14.335  0.00  0.00    +0.054 C 
ATOM     27  C   UNL     1      35.052 -23.405 -13.098  0.00  0.00    +0.037 C 
ATOM     28  C   UNL     1      37.345 -24.175 -13.011  0.00  0.00    +0.014 C 
ATOM     29  C   UNL     1      36.104 -23.995 -12.392  0.00  0.00    +0.004 C 
ATOM     30  C   UNL     1      38.469 -24.787 -12.307  0.00  0.00    +0.006 C 
ATOM     31  C   UNL     1      39.855 -24.514 -14.325  0.00  0.00    +0.250 C 
ATOM     32  C   UNL     1      39.649 -24.950 -12.918  0.00  0.00    +0.058 C 
ATOM     33  H   UNL     1      38.875 -23.643 -15.890  0.00  0.00    +0.155 HD
ENDBRANCH  21  24
ENDBRANCH  20  21
ENDBRANCH  19  20
ENDBRANCH  18  19
ENDBRANCH   1  18
TORSDOF 7
ENDMDL
MODEL 5
REMARK VINA RESULT:     -11.5      2.271      3.295
REMARK  Name = 11978813
REMARK  7 active torsions:
REMARK  status: ('A' for Active; 'I' for Inactive)
REMARK    1  A    between atoms: C_1  and  N_2
REMARK    2  A    between atoms: C_1  and  C_18
REMARK    3  A    between atoms: N_3  and  C_10
REMARK    4  A    between atoms: C_18  and  C_19
REMARK    5  A    between atoms: C_19  and  C_20
REMARK    6  A    between atoms: C_20  and  O_21
REMARK    7  A    between atoms: O_21  and  C_24
REMARK                            x       y       z     vdW  Elec       q    Type
REMARK                         _______ _______ _______ _____ _____    ______ ____
ROOT
ATOM      1  C   UNL     1      34.486 -22.275 -17.839  0.00  0.00    -0.077 C 
ENDROOT
BRANCH   1   2
ATOM      2  N   UNL     1      34.639 -21.352 -18.963  0.00  0.00    +0.389 N 
ATOM      3  N   UNL     1      34.874 -18.804 -20.231  0.00  0.00    -0.312 N 
ATOM      4  C   UNL     1      33.477 -20.461 -19.059  0.00  0.00    -0.055 C 
ATOM      5  C   UNL     1      35.865 -20.560 -18.816  0.00  0.00    -0.055 C 
ATOM      6  C   UNL     1      33.598 -19.528 -20.266  0.00  0.00    +0.068 C 
ATOM      7  C   UNL     1      36.067 -19.630 -20.015  0.00  0.00    +0.068 C 
ATOM      8  H   UNL     1      34.703 -21.903 -19.819  0.00  0.00    -0.080 HD
BRANCH   3  10
ATOM      9  S   UNL     1      34.619 -16.530 -24.743  0.00  0.00    -0.086 S 
ATOM     10  C   UNL     1      34.976 -17.616 -20.964  0.00  0.00    +0.048 C 
ATOM     11  C   UNL     1      34.778 -17.572 -22.382  0.00  0.00    +0.020 C 
ATOM     12  C   UNL     1      35.285 -16.411 -20.294  0.00  0.00    +0.015 C 
ATOM     13  C   UNL     1      34.897 -16.349 -23.051  0.00  0.00    +0.031 C 
ATOM     14  C   UNL     1      34.460 -18.633 -23.293  0.00  0.00    +0.009 C 
ATOM     15  C   UNL     1      35.397 -15.210 -20.980  0.00  0.00    +0.002 C 
ATOM     16  C   UNL     1      35.206 -15.160 -22.363  0.00  0.00    +0.007 C 
ATOM     17  C   UNL     1      34.346 -18.206 -24.594  0.00  0.00    +0.035 C 
ENDBRANCH   3  10
ENDBRANCH   1   2
BRANCH   1  18
ATOM     18  C   UNL     1      33.118 -22.094 -17.184  0.00  0.00    -0.019 C 
BRANCH  18  19
ATOM     19  C   UNL     1      32.898 -23.116 -16.070  0.00  0.00    +0.045 C 
BRANCH  19  20
ATOM     20  C   UNL     1      33.507 -22.651 -14.754  0.00  0.00    +0.205 C 
BRANCH  20  21
ATOM     21  O   UNL     1      33.857 -23.778 -13.960  0.00  0.00    -0.475 OA
BRANCH  21  24
ATOM     22  O   UNL     1      40.655 -25.388 -15.310  0.00  0.00    -0.270 OA
ATOM     23  N   UNL     1      38.450 -24.873 -14.889  0.00  0.00    -0.280 N 
ATOM     24  C   UNL     1      35.163 -23.864 -13.550  0.00  0.00    +0.140 C 
ATOM     25  C   UNL     1      36.130 -24.326 -14.434  0.00  0.00    +0.052 C 
ATOM     26  C   UNL     1      37.458 -24.408 -14.007  0.00  0.00    +0.054 C 
ATOM     27  C   UNL     1      35.501 -23.487 -12.255  0.00  0.00    +0.037 C 
ATOM     28  C   UNL     1      37.815 -24.034 -12.707  0.00  0.00    +0.014 C 
ATOM     29  C   UNL     1      36.829 -23.571 -11.830  0.00  0.00    +0.004 C 
ATOM     30  C   UNL     1      39.214 -24.135 -12.301  0.00  0.00    +0.006 C 
ATOM     31  C   UNL     1      39.782 -24.984 -14.544  0.00  0.00    +0.250 C 
ATOM     32  C   UNL     1      40.142 -24.581 -13.157  0.00  0.00    +0.058 C 
ATOM     33  H   UNL     1      38.181 -25.134 -15.801  0.00  0.00    +0.155 HD
ENDBRANCH  21  24
ENDBRANCH  20  21
ENDBRANCH  19  20
ENDBRANCH  18  19
ENDBRANCH   1  18
TORSDOF 7
ENDMDL
MODEL 6
REMARK VINA RESULT:     -11.5      3.520      6.463
REMARK  Name = 11978813
REMARK  7 active torsions:
REMARK  status: ('A' for Active; 'I' for Inactive)
REMARK    1  A    between atoms: C_1  and  N_2
REMARK    2  A    between atoms: C_1  and  C_18
REMARK    3  A    between atoms: N_3  and  C_10
REMARK    4  A    between atoms: C_18  and  C_19
REMARK    5  A    between atoms: C_19  and  C_20
REMARK    6  A    between atoms: C_20  and  O_21
REMARK    7  A    between atoms: O_21  and  C_24
REMARK                            x       y       z     vdW  Elec       q    Type
REMARK                         _______ _______ _______ _____ _____    ______ ____
ROOT
ATOM      1  C   UNL     1      35.461 -16.143 -23.627  0.00  0.00    -0.077 C 
ENDROOT
BRANCH   1   2
ATOM      2  N   UNL     1      35.075 -14.829 -23.114  0.00  0.00    +0.389 N 
ATOM      3  N   UNL     1      33.428 -12.951 -21.727  0.00  0.00    -0.312 N 
ATOM      4  C   UNL     1      33.785 -14.414 -23.679  0.00  0.00    -0.055 C 
ATOM      5  C   UNL     1      34.994 -14.852 -21.649  0.00  0.00    -0.055 C 
ATOM      6  C   UNL     1      33.399 -13.015 -23.194  0.00  0.00    +0.068 C 
ATOM      7  C   UNL     1      34.647 -13.468 -21.095  0.00  0.00    +0.068 C 
ATOM      8  H   UNL     1      35.789 -14.157 -23.394  0.00  0.00    -0.080 HD
BRANCH   3  10
ATOM      9  S   UNL     1      31.940  -8.117 -21.732  0.00  0.00    -0.086 S 
ATOM     10  C   UNL     1      32.695 -11.940 -21.097  0.00  0.00    +0.048 C 
ATOM     11  C   UNL     1      32.630 -10.606 -21.615  0.00  0.00    +0.020 C 
ATOM     12  C   UNL     1      31.990 -12.230 -19.909  0.00  0.00    +0.015 C 
ATOM     13  C   UNL     1      31.878  -9.643 -20.934  0.00  0.00    +0.031 C 
ATOM     14  C   UNL     1      33.243 -10.050 -22.788  0.00  0.00    +0.009 C 
ATOM     15  C   UNL     1      31.250 -11.258 -19.250  0.00  0.00    +0.002 C 
ATOM     16  C   UNL     1      31.182  -9.956 -19.749  0.00  0.00    +0.007 C 
ATOM     17  C   UNL     1      32.950  -8.719 -22.965  0.00  0.00    +0.035 C 
ENDBRANCH   3  10
ENDBRANCH   1   2
BRANCH   1  18
ATOM     18  C   UNL     1      34.282 -16.801 -24.343  0.00  0.00    -0.019 C 
BRANCH  18  19
ATOM     19  C   UNL     1      34.242 -18.304 -24.075  0.00  0.00    +0.045 C 
BRANCH  19  20
ATOM     20  C   UNL     1      34.921 -18.658 -22.759  0.00  0.00    +0.205 C 
BRANCH  20  21
ATOM     21  O   UNL     1      33.952 -18.730 -21.721  0.00  0.00    -0.475 OA
BRANCH  21  24
ATOM     22  O   UNL     1      31.939 -22.740 -16.200  0.00  0.00    -0.270 OA
ATOM     23  N   UNL     1      32.573 -21.438 -17.990  0.00  0.00    -0.280 N 
ATOM     24  C   UNL     1      34.270 -19.497 -20.630  0.00  0.00    +0.140 C 
ATOM     25  C   UNL     1      33.255 -20.070 -19.874  0.00  0.00    +0.052 C 
ATOM     26  C   UNL     1      33.589 -20.851 -18.765  0.00  0.00    +0.054 C 
ATOM     27  C   UNL     1      35.606 -19.692 -20.294  0.00  0.00    +0.037 C 
ATOM     28  C   UNL     1      34.928 -21.056 -18.414  0.00  0.00    +0.014 C 
ATOM     29  C   UNL     1      35.938 -20.473 -19.185  0.00  0.00    +0.004 C 
ATOM     30  C   UNL     1      35.235 -21.880 -17.247  0.00  0.00    +0.006 C 
ATOM     31  C   UNL     1      32.822 -22.223 -16.881  0.00  0.00    +0.250 C 
ATOM     32  C   UNL     1      34.252 -22.430 -16.524  0.00  0.00    +0.058 C 
ATOM     33  H   UNL     1      31.636 -21.282 -18.251  0.00  0.00    +0.155 HD
ENDBRANCH  21  24
ENDBRANCH  20  21
ENDBRANCH  19  20
ENDBRANCH  18  19
ENDBRANCH   1  18
TORSDOF 7
ENDMDL
MODEL 7
REMARK VINA RESULT:     -11.3      2.991      5.297
REMARK  Name = 11978813
REMARK  7 active torsions:
REMARK  status: ('A' for Active; 'I' for Inactive)
REMARK    1  A    between atoms: C_1  and  N_2
REMARK    2  A    between atoms: C_1  and  C_18
REMARK    3  A    between atoms: N_3  and  C_10
REMARK    4  A    between atoms: C_18  and  C_19
REMARK    5  A    between atoms: C_19  and  C_20
REMARK    6  A    between atoms: C_20  and  O_21
REMARK    7  A    between atoms: O_21  and  C_24
REMARK                            x       y       z     vdW  Elec       q    Type
REMARK                         _______ _______ _______ _____ _____    ______ ____
ROOT
ATOM      1  C   UNL     1      34.991 -16.888 -23.704  0.00  0.00    -0.077 C 
ENDROOT
BRANCH   1   2
ATOM      2  N   UNL     1      34.938 -15.433 -23.574  0.00  0.00    +0.389 N 
ATOM      3  N   UNL     1      33.813 -12.922 -22.806  0.00  0.00    -0.312 N 
ATOM      4  C   UNL     1      33.771 -14.894 -24.283  0.00  0.00    -0.055 C 
ATOM      5  C   UNL     1      34.886 -15.043 -22.160  0.00  0.00    -0.055 C 
ATOM      6  C   UNL     1      33.736 -13.366 -24.203  0.00  0.00    +0.068 C 
ATOM      7  C   UNL     1      34.888 -13.520 -22.008  0.00  0.00    +0.068 C 
ATOM      8  H   UNL     1      35.784 -15.046 -23.991  0.00  0.00    -0.080 HD
BRANCH   3  10
ATOM      9  S   UNL     1      31.289  -9.943 -19.590  0.00  0.00    -0.086 S 
ATOM     10  C   UNL     1      33.353 -11.637 -22.499  0.00  0.00    +0.048 C 
ATOM     11  C   UNL     1      32.601 -11.357 -21.312  0.00  0.00    +0.020 C 
ATOM     12  C   UNL     1      33.632 -10.569 -23.380  0.00  0.00    +0.015 C 
ATOM     13  C   UNL     1      32.171 -10.048 -21.067  0.00  0.00    +0.031 C 
ATOM     14  C   UNL     1      32.184 -12.243 -20.264  0.00  0.00    +0.009 C 
ATOM     15  C   UNL     1      33.196  -9.278 -23.116  0.00  0.00    +0.002 C 
ATOM     16  C   UNL     1      32.462  -8.998 -21.960  0.00  0.00    +0.007 C 
ATOM     17  C   UNL     1      31.470 -11.608 -19.277  0.00  0.00    +0.035 C 
ENDBRANCH   3  10
ENDBRANCH   1   2
BRANCH   1  18
ATOM     18  C   UNL     1      35.643 -17.509 -22.468  0.00  0.00    -0.019 C 
BRANCH  18  19
ATOM     19  C   UNL     1      34.947 -18.810 -22.072  0.00  0.00    +0.045 C 
BRANCH  19  20
ATOM     20  C   UNL     1      34.954 -19.012 -20.562  0.00  0.00    +0.205 C 
BRANCH  20  21
ATOM     21  O   UNL     1      35.792 -20.111 -20.228  0.00  0.00    -0.475 OA
BRANCH  21  24
ATOM     22  O   UNL     1      37.922 -22.370 -13.826  0.00  0.00    -0.270 OA
ATOM     23  N   UNL     1      37.250 -21.634 -15.902  0.00  0.00    -0.280 N 
ATOM     24  C   UNL     1      35.529 -20.752 -19.045  0.00  0.00    +0.140 C 
ATOM     25  C   UNL     1      36.528 -20.861 -18.086  0.00  0.00    +0.052 C 
ATOM     26  C   UNL     1      36.249 -21.516 -16.883  0.00  0.00    +0.054 C 
ATOM     27  C   UNL     1      34.264 -21.286 -18.821  0.00  0.00    +0.037 C 
ATOM     28  C   UNL     1      34.982 -22.058 -16.643  0.00  0.00    +0.014 C 
ATOM     29  C   UNL     1      33.987 -21.940 -17.618  0.00  0.00    +0.004 C 
ATOM     30  C   UNL     1      34.732 -22.734 -15.372  0.00  0.00    +0.006 C 
ATOM     31  C   UNL     1      37.053 -22.265 -14.689  0.00  0.00    +0.250 C 
ATOM     32  C   UNL     1      35.699 -22.835 -14.452  0.00  0.00    +0.058 C 
ATOM     33  H   UNL     1      38.137 -21.247 -16.089  0.00  0.00    +0.155 HD
ENDBRANCH  21  24
ENDBRANCH  20  21
ENDBRANCH  19  20
ENDBRANCH  18  19
ENDBRANCH   1  18
TORSDOF 7
ENDMDL
MODEL 8
REMARK VINA RESULT:     -11.2      3.400      6.028
REMARK  Name = 11978813
REMARK  7 active torsions:
REMARK  status: ('A' for Active; 'I' for Inactive)
REMARK    1  A    between atoms: C_1  and  N_2
REMARK    2  A    between atoms: C_1  and  C_18
REMARK    3  A    between atoms: N_3  and  C_10
REMARK    4  A    between atoms: C_18  and  C_19
REMARK    5  A    between atoms: C_19  and  C_20
REMARK    6  A    between atoms: C_20  and  O_21
REMARK    7  A    between atoms: O_21  and  C_24
REMARK                            x       y       z     vdW  Elec       q    Type
REMARK                         _______ _______ _______ _____ _____    ______ ____
ROOT
ATOM      1  C   UNL     1      34.765 -16.363 -24.044  0.00  0.00    -0.077 C 
ENDROOT
BRANCH   1   2
ATOM      2  N   UNL     1      34.726 -14.926 -23.777  0.00  0.00    +0.389 N 
ATOM      3  N   UNL     1      33.639 -12.492 -22.749  0.00  0.00    -0.312 N 
ATOM      4  C   UNL     1      33.546 -14.317 -24.403  0.00  0.00    -0.055 C 
ATOM      5  C   UNL     1      34.713 -14.670 -22.332  0.00  0.00    -0.055 C 
ATOM      6  C   UNL     1      33.525 -12.803 -24.179  0.00  0.00    +0.068 C 
ATOM      7  C   UNL     1      34.729 -13.168 -22.038  0.00  0.00    +0.068 C 
ATOM      8  H   UNL     1      35.565 -14.506 -24.178  0.00  0.00    -0.080 HD
BRANCH   3  10
ATOM      9  S   UNL     1      31.311  -9.801 -19.154  0.00  0.00    -0.086 S 
ATOM     10  C   UNL     1      33.197 -11.239 -22.311  0.00  0.00    +0.048 C 
ATOM     11  C   UNL     1      32.518 -11.062 -21.061  0.00  0.00    +0.020 C 
ATOM     12  C   UNL     1      33.420 -10.102 -23.117  0.00  0.00    +0.015 C 
ATOM     13  C   UNL     1      32.102  -9.780 -20.685  0.00  0.00    +0.031 C 
ATOM     14  C   UNL     1      32.167 -12.033 -20.066  0.00  0.00    +0.009 C 
ATOM     15  C   UNL     1      32.998  -8.840 -22.723  0.00  0.00    +0.002 C 
ATOM     16  C   UNL     1      32.336  -8.659 -21.507  0.00  0.00    +0.007 C 
ATOM     17  C   UNL     1      31.514 -11.485 -18.989  0.00  0.00    +0.035 C 
ENDBRANCH   3  10
ENDBRANCH   1   2
BRANCH   1  18
ATOM     18  C   UNL     1      35.320 -17.113 -22.835  0.00  0.00    -0.019 C 
BRANCH  18  19
ATOM     19  C   UNL     1      34.900 -18.582 -22.855  0.00  0.00    +0.045 C 
BRANCH  19  20
ATOM     20  C   UNL     1      34.488 -19.067 -21.471  0.00  0.00    +0.205 C 
BRANCH  20  21
ATOM     21  O   UNL     1      35.633 -19.508 -20.754  0.00  0.00    -0.475 OA
BRANCH  21  24
ATOM     22  O   UNL     1      31.133 -22.664 -16.238  0.00  0.00    -0.270 OA
ATOM     23  N   UNL     1      32.575 -21.636 -17.709  0.00  0.00    -0.280 N 
ATOM     24  C   UNL     1      35.407 -20.226 -19.608  0.00  0.00    +0.140 C 
ATOM     25  C   UNL     1      34.106 -20.558 -19.252  0.00  0.00    +0.052 C 
ATOM     26  C   UNL     1      33.886 -21.291 -18.083  0.00  0.00    +0.054 C 
ATOM     27  C   UNL     1      36.484 -20.611 -18.817  0.00  0.00    +0.037 C 
ATOM     28  C   UNL     1      34.958 -21.686 -17.276  0.00  0.00    +0.014 C 
ATOM     29  C   UNL     1      36.262 -21.344 -17.648  0.00  0.00    +0.004 C 
ATOM     30  C   UNL     1      34.685 -22.451 -16.062  0.00  0.00    +0.006 C 
ATOM     31  C   UNL     1      32.276 -22.358 -16.570  0.00  0.00    +0.250 C 
ATOM     32  C   UNL     1      33.429 -22.769 -15.725  0.00  0.00    +0.058 C 
ATOM     33  H   UNL     1      31.832 -21.348 -18.289  0.00  0.00    +0.155 HD
ENDBRANCH  21  24
ENDBRANCH  20  21
ENDBRANCH  19  20
ENDBRANCH  18  19
ENDBRANCH   1  18
TORSDOF 7
ENDMDL
MODEL 9
REMARK VINA RESULT:     -11.1      5.179      8.601
REMARK  Name = 11978813
REMARK  7 active torsions:
REMARK  status: ('A' for Active; 'I' for Inactive)
REMARK    1  A    between atoms: C_1  and  N_2
REMARK    2  A    between atoms: C_1  and  C_18
REMARK    3  A    between atoms: N_3  and  C_10
REMARK    4  A    between atoms: C_18  and  C_19
REMARK    5  A    between atoms: C_19  and  C_20
REMARK    6  A    between atoms: C_20  and  O_21
REMARK    7  A    between atoms: O_21  and  C_24
REMARK                            x       y       z     vdW  Elec       q    Type
REMARK                         _______ _______ _______ _____ _____    ______ ____
ROOT
ATOM      1  C   UNL     1      33.527 -13.348 -21.986  0.00  0.00    -0.077 C 
ENDROOT
BRANCH   1   2
ATOM      2  N   UNL     1      32.989 -12.050 -22.390  0.00  0.00    +0.389 N 
ATOM      3  N   UNL     1      32.679  -9.211 -22.299  0.00  0.00    -0.312 N 
ATOM      4  C   UNL     1      32.276 -11.417 -21.274  0.00  0.00    -0.055 C 
ATOM      5  C   UNL     1      34.065 -11.169 -22.860  0.00  0.00    -0.055 C 
ATOM      6  C   UNL     1      31.659 -10.083 -21.702  0.00  0.00    +0.068 C 
ATOM      7  C   UNL     1      33.508  -9.827 -23.339  0.00  0.00    +0.068 C 
ATOM      8  H   UNL     1      32.332 -12.203 -23.156  0.00  0.00    -0.080 HD
BRANCH   3  10
ATOM      9  S   UNL     1      32.123  -4.903 -19.707  0.00  0.00    -0.086 S 
ATOM     10  C   UNL     1      32.429  -7.835 -22.333  0.00  0.00    +0.048 C 
ATOM     11  C   UNL     1      32.385  -7.035 -21.146  0.00  0.00    +0.020 C 
ATOM     12  C   UNL     1      32.211  -7.200 -23.575  0.00  0.00    +0.015 C 
ATOM     13  C   UNL     1      32.130  -5.664 -21.254  0.00  0.00    +0.031 C 
ATOM     14  C   UNL     1      32.569  -7.422 -19.776  0.00  0.00    +0.009 C 
ATOM     15  C   UNL     1      31.959  -5.837 -23.658  0.00  0.00    +0.002 C 
ATOM     16  C   UNL     1      31.915  -5.051 -22.504  0.00  0.00    +0.007 C 
ATOM     17  C   UNL     1      32.453  -6.368 -18.902  0.00  0.00    +0.035 C 
ENDBRANCH   3  10
ENDBRANCH   1   2
BRANCH   1  18
ATOM     18  C   UNL     1      34.757 -13.697 -22.821  0.00  0.00    -0.019 C 
BRANCH  18  19
ATOM     19  C   UNL     1      34.759 -15.174 -23.212  0.00  0.00    +0.045 C 
BRANCH  19  20
ATOM     20  C   UNL     1      35.446 -16.032 -22.158  0.00  0.00    +0.205 C 
BRANCH  20  21
ATOM     21  O   UNL     1      35.267 -17.408 -22.465  0.00  0.00    -0.475 OA
BRANCH  21  24
ATOM     22  O   UNL     1      32.487 -22.015 -17.810  0.00  0.00    -0.270 OA
ATOM     23  N   UNL     1      33.370 -20.519 -19.322  0.00  0.00    -0.280 N 
ATOM     24  C   UNL     1      35.425 -18.298 -21.435  0.00  0.00    +0.140 C 
ATOM     25  C   UNL     1      34.313 -18.947 -20.912  0.00  0.00    +0.052 C 
ATOM     26  C   UNL     1      34.485 -19.853 -19.862  0.00  0.00    +0.054 C 
ATOM     27  C   UNL     1      36.697 -18.539 -20.926  0.00  0.00    +0.037 C 
ATOM     28  C   UNL     1      35.758 -20.107 -19.339  0.00  0.00    +0.014 C 
ATOM     29  C   UNL     1      36.866 -19.446 -19.876  0.00  0.00    +0.004 C 
ATOM     30  C   UNL     1      35.894 -21.062 -18.242  0.00  0.00    +0.006 C 
ATOM     31  C   UNL     1      33.457 -21.428 -18.286  0.00  0.00    +0.250 C 
ATOM     32  C   UNL     1      34.819 -21.684 -17.743  0.00  0.00    +0.058 C 
ATOM     33  H   UNL     1      32.482 -20.328 -19.702  0.00  0.00    +0.155 HD
ENDBRANCH  21  24
ENDBRANCH  20  21
ENDBRANCH  19  20
ENDBRANCH  18  19
ENDBRANCH   1  18
TORSDOF 7
ENDMDL
