MODEL 1
REMARK VINA RESULT:     -12.5      0.000      0.000
REMARK  Name = 204109
REMARK  5 active torsions:
REMARK  status: ('A' for Active; 'I' for Inactive)
REMARK    1  A    between atoms: C_1  and  C_20
REMARK    2  A    between atoms: C_9  and  O_11
REMARK    3  A    between atoms: O_11  and  C_12
REMARK    4  A    between atoms: C_12  and  C_14
REMARK    5  A    between atoms: C_20  and  C_25
REMARK                            x       y       z     vdW  Elec       q    Type
REMARK                         _______ _______ _______ _____ _____    ______ ____
ROOT
ATOM      1  C   UNL     1      36.206 -22.081 -16.207  0.00  0.00    -0.021 C 
ATOM      2  C   UNL     1      36.240 -20.693 -18.205  0.00  0.00    -0.000 C 
ATOM      3  C   UNL     1      36.894 -21.255 -17.096  0.00  0.00    -0.004 C 
ATOM      4  C   UNL     1      34.868 -20.972 -18.413  0.00  0.00    +0.003 C 
ATOM      5  C   UNL     1      34.857 -22.356 -16.413  0.00  0.00    -0.004 C 
ATOM      6  C   UNL     1      34.191 -21.806 -17.509  0.00  0.00    -0.000 C 
ATOM      7  C   UNL     1      34.214 -20.411 -19.522  0.00  0.00    +0.037 C 
ATOM      8  C   UNL     1      36.916 -19.859 -19.110  0.00  0.00    +0.003 C 
ATOM      9  C   UNL     1      34.903 -19.584 -20.411  0.00  0.00    +0.139 C 
ATOM     10  C   UNL     1      36.251 -19.310 -20.206  0.00  0.00    +0.037 C 
ENDROOT
BRANCH   9  11
ATOM     11  O   UNL     1      34.255 -19.047 -21.482  0.00  0.00    -0.471 OA
BRANCH  11  12
ATOM     12  C   UNL     1      35.027 -18.814 -22.658  0.00  0.00    +0.234 C 
BRANCH  12  14
ATOM     13  F   UNL     1      33.795 -18.174 -25.120  0.00  0.00    -0.204 F 
ATOM     14  C   UNL     1      34.883 -17.414 -23.151  0.00  0.00    +0.049 C 
ATOM     15  C   UNL     1      34.265 -17.163 -24.375  0.00  0.00    +0.140 C 
ATOM     16  C   UNL     1      35.369 -16.355 -22.384  0.00  0.00    +0.002 C 
ATOM     17  C   UNL     1      34.131 -15.852 -24.833  0.00  0.00    +0.029 C 
ATOM     18  C   UNL     1      35.236 -15.044 -22.842  0.00  0.00    -0.000 C 
ATOM     19  C   UNL     1      34.616 -14.792 -24.066  0.00  0.00    +0.002 C 
ENDBRANCH  12  14
ENDBRANCH  11  12
ENDBRANCH   9  11
BRANCH   1  20
ATOM     20  C   UNL     1      36.916 -22.670 -15.035  0.00  0.00    +0.047 C 
BRANCH  20  25
ATOM     21  S   UNL     1      36.108 -23.055 -12.423  0.00  0.00    -0.048 S 
ATOM     22  O   UNL     1      36.485 -25.636 -15.269  0.00  0.00    -0.274 OA
ATOM     23  O   UNL     1      36.758 -24.942 -10.712  0.00  0.00    -0.263 OA
ATOM     24  N   UNL     1      36.659 -25.489 -12.968  0.00  0.00    -0.246 N 
ATOM     25  C   UNL     1      35.999 -23.536 -14.175  0.00  0.00    +0.137 C 
ATOM     26  C   UNL     1      36.404 -24.992 -14.229  0.00  0.00    +0.239 C 
ATOM     27  C   UNL     1      36.563 -24.657 -11.884  0.00  0.00    +0.279 C 
ATOM     28  H   UNL     1      36.910 -26.434 -12.848  0.00  0.00    +0.158 HD
ENDBRANCH  20  25
ENDBRANCH   1  20
TORSDOF 5
ENDMDL
MODEL 2
REMARK VINA RESULT:     -12.4      1.724      2.015
REMARK  Name = 204109
REMARK  5 active torsions:
REMARK  status: ('A' for Active; 'I' for Inactive)
REMARK    1  A    between atoms: C_1  and  C_20
REMARK    2  A    between atoms: C_9  and  O_11
REMARK    3  A    between atoms: O_11  and  C_12
REMARK    4  A    between atoms: C_12  and  C_14
REMARK    5  A    between atoms: C_20  and  C_25
REMARK                            x       y       z     vdW  Elec       q    Type
REMARK                         _______ _______ _______ _____ _____    ______ ____
ROOT
ATOM      1  C   UNL     1      34.926 -22.381 -16.212  0.00  0.00    -0.021 C 
ATOM      2  C   UNL     1      35.735 -20.999 -18.044  0.00  0.00    -0.000 C 
ATOM      3  C   UNL     1      35.967 -21.712 -16.857  0.00  0.00    -0.004 C 
ATOM      4  C   UNL     1      34.428 -20.963 -18.584  0.00  0.00    +0.003 C 
ATOM      5  C   UNL     1      33.641 -22.344 -16.743  0.00  0.00    -0.004 C 
ATOM      6  C   UNL     1      33.391 -21.641 -17.923  0.00  0.00    -0.000 C 
ATOM      7  C   UNL     1      34.195 -20.250 -19.771  0.00  0.00    +0.037 C 
ATOM      8  C   UNL     1      36.771 -20.320 -18.706  0.00  0.00    +0.003 C 
ATOM      9  C   UNL     1      35.237 -19.581 -20.416  0.00  0.00    +0.139 C 
ATOM     10  C   UNL     1      36.522 -19.617 -19.885  0.00  0.00    +0.037 C 
ENDROOT
BRANCH   9  11
ATOM     11  O   UNL     1      34.996 -18.894 -21.567  0.00  0.00    -0.471 OA
BRANCH  11  12
ATOM     12  C   UNL     1      35.952 -17.906 -21.946  0.00  0.00    +0.234 C 
BRANCH  12  14
ATOM     13  F   UNL     1      35.422 -15.976 -23.941  0.00  0.00    -0.204 F 
ATOM     14  C   UNL     1      35.481 -16.527 -21.632  0.00  0.00    +0.049 C 
ATOM     15  C   UNL     1      35.237 -15.619 -22.662  0.00  0.00    +0.140 C 
ATOM     16  C   UNL     1      35.285 -16.145 -20.305  0.00  0.00    +0.002 C 
ATOM     17  C   UNL     1      34.795 -14.329 -22.366  0.00  0.00    +0.029 C 
ATOM     18  C   UNL     1      34.845 -14.855 -20.008  0.00  0.00    -0.000 C 
ATOM     19  C   UNL     1      34.599 -13.947 -21.038  0.00  0.00    +0.002 C 
ENDBRANCH  12  14
ENDBRANCH  11  12
ENDBRANCH   9  11
BRANCH   1  20
ATOM     20  C   UNL     1      35.191 -23.133 -14.952  0.00  0.00    +0.047 C 
BRANCH  20  25
ATOM     21  S   UNL     1      36.485 -25.544 -14.578  0.00  0.00    -0.048 S 
ATOM     22  O   UNL     1      37.684 -21.973 -13.736  0.00  0.00    -0.274 OA
ATOM     23  O   UNL     1      37.863 -26.424 -12.520  0.00  0.00    -0.263 OA
ATOM     24  N   UNL     1      37.908 -24.147 -12.982  0.00  0.00    -0.246 N 
ATOM     25  C   UNL     1      36.583 -23.762 -14.932  0.00  0.00    +0.137 C 
ATOM     26  C   UNL     1      37.441 -23.170 -13.836  0.00  0.00    +0.239 C 
ATOM     27  C   UNL     1      37.538 -25.451 -13.183  0.00  0.00    +0.279 C 
ATOM     28  H   UNL     1      38.501 -23.909 -12.233  0.00  0.00    +0.158 HD
ENDBRANCH  20  25
ENDBRANCH   1  20
TORSDOF 5
ENDMDL
MODEL 3
REMARK VINA RESULT:     -12.3      5.357     10.380
REMARK  Name = 204109
REMARK  5 active torsions:
REMARK  status: ('A' for Active; 'I' for Inactive)
REMARK    1  A    between atoms: C_1  and  C_20
REMARK    2  A    between atoms: C_9  and  O_11
REMARK    3  A    between atoms: O_11  and  C_12
REMARK    4  A    between atoms: C_12  and  C_14
REMARK    5  A    between atoms: C_20  and  C_25
REMARK                            x       y       z     vdW  Elec       q    Type
REMARK                         _______ _______ _______ _____ _____    ______ ____
ROOT
ATOM      1  C   UNL     1      36.072 -18.306 -21.025  0.00  0.00    -0.021 C 
ATOM      2  C   UNL     1      34.605 -19.802 -19.788  0.00  0.00    -0.000 C 
ATOM      3  C   UNL     1      34.792 -18.773 -20.725  0.00  0.00    -0.004 C 
ATOM      4  C   UNL     1      35.733 -20.366 -19.147  0.00  0.00    +0.003 C 
ATOM      5  C   UNL     1      37.181 -18.861 -20.393  0.00  0.00    -0.004 C 
ATOM      6  C   UNL     1      37.015 -19.885 -19.460  0.00  0.00    -0.000 C 
ATOM      7  C   UNL     1      35.547 -21.396 -18.210  0.00  0.00    +0.037 C 
ATOM      8  C   UNL     1      33.324 -20.284 -19.474  0.00  0.00    +0.003 C 
ATOM      9  C   UNL     1      34.266 -21.862 -17.910  0.00  0.00    +0.139 C 
ATOM     10  C   UNL     1      33.157 -21.307 -18.542  0.00  0.00    +0.037 C 
ENDROOT
BRANCH   9  11
ATOM     11  O   UNL     1      34.101 -22.862 -17.000  0.00  0.00    -0.471 OA
BRANCH  11  12
ATOM     12  C   UNL     1      34.098 -22.493 -15.623  0.00  0.00    +0.234 C 
BRANCH  12  14
ATOM     13  F   UNL     1      34.225 -24.078 -13.287  0.00  0.00    -0.204 F 
ATOM     14  C   UNL     1      32.883 -22.990 -14.916  0.00  0.00    +0.049 C 
ATOM     15  C   UNL     1      33.012 -23.769 -13.767  0.00  0.00    +0.140 C 
ATOM     16  C   UNL     1      31.616 -22.675 -15.407  0.00  0.00    +0.002 C 
ATOM     17  C   UNL     1      31.873 -24.233 -13.107  0.00  0.00    +0.029 C 
ATOM     18  C   UNL     1      30.477 -23.140 -14.748  0.00  0.00    -0.000 C 
ATOM     19  C   UNL     1      30.606 -23.918 -13.598  0.00  0.00    +0.002 C 
ENDBRANCH  12  14
ENDBRANCH  11  12
ENDBRANCH   9  11
BRANCH   1  20
ATOM     20  C   UNL     1      36.252 -17.212 -22.022  0.00  0.00    +0.047 C 
BRANCH  20  25
ATOM     21  S   UNL     1      34.647 -17.004 -24.259  0.00  0.00    -0.048 S 
ATOM     22  O   UNL     1      35.095 -14.523 -21.337  0.00  0.00    -0.274 OA
ATOM     23  O   UNL     1      34.217 -14.955 -25.850  0.00  0.00    -0.263 OA
ATOM     24  N   UNL     1      34.629 -14.536 -23.601  0.00  0.00    -0.246 N 
ATOM     25  C   UNL     1      34.921 -16.635 -22.499  0.00  0.00    +0.137 C 
ATOM     26  C   UNL     1      34.900 -15.127 -22.385  0.00  0.00    +0.239 C 
ATOM     27  C   UNL     1      34.459 -15.323 -24.710  0.00  0.00    +0.279 C 
ATOM     28  H   UNL     1      34.559 -13.556 -23.673  0.00  0.00    +0.158 HD
ENDBRANCH  20  25
ENDBRANCH   1  20
TORSDOF 5
ENDMDL
MODEL 4
REMARK VINA RESULT:     -12.3      4.627     10.254
REMARK  Name = 204109
REMARK  5 active torsions:
REMARK  status: ('A' for Active; 'I' for Inactive)
REMARK    1  A    between atoms: C_1  and  C_20
REMARK    2  A    between atoms: C_9  and  O_11
REMARK    3  A    between atoms: O_11  and  C_12
REMARK    4  A    between atoms: C_12  and  C_14
REMARK    5  A    between atoms: C_20  and  C_25
REMARK                            x       y       z     vdW  Elec       q    Type
REMARK                         _______ _______ _______ _____ _____    ______ ____
ROOT
ATOM      1  C   UNL     1      34.431 -19.989 -19.831  0.00  0.00    -0.021 C 
ATOM      2  C   UNL     1      33.742 -21.375 -17.954  0.00  0.00    -0.000 C 
ATOM      3  C   UNL     1      33.426 -20.598 -19.080  0.00  0.00    -0.004 C 
ATOM      4  C   UNL     1      35.098 -21.537 -17.585  0.00  0.00    +0.003 C 
ATOM      5  C   UNL     1      35.765 -20.149 -19.467  0.00  0.00    -0.004 C 
ATOM      6  C   UNL     1      36.099 -20.918 -18.352  0.00  0.00    -0.000 C 
ATOM      7  C   UNL     1      35.416 -22.314 -16.459  0.00  0.00    +0.037 C 
ATOM      8  C   UNL     1      32.743 -21.995 -17.186  0.00  0.00    +0.003 C 
ATOM      9  C   UNL     1      34.409 -22.923 -15.707  0.00  0.00    +0.139 C 
ATOM     10  C   UNL     1      33.075 -22.764 -16.071  0.00  0.00    +0.037 C 
ENDROOT
BRANCH   9  11
ATOM     11  O   UNL     1      34.732 -23.674 -14.619  0.00  0.00    -0.471 OA
BRANCH  11  12
ATOM     12  C   UNL     1      35.574 -23.071 -13.639  0.00  0.00    +0.234 C 
BRANCH  12  14
ATOM     13  F   UNL     1      37.569 -22.292 -11.795  0.00  0.00    -0.204 F 
ATOM     14  C   UNL     1      36.840 -23.834 -13.447  0.00  0.00    +0.049 C 
ATOM     15  C   UNL     1      37.787 -23.398 -12.520  0.00  0.00    +0.140 C 
ATOM     16  C   UNL     1      37.077 -24.986 -14.197  0.00  0.00    +0.002 C 
ATOM     17  C   UNL     1      38.971 -24.115 -12.342  0.00  0.00    +0.029 C 
ATOM     18  C   UNL     1      38.261 -25.702 -14.020  0.00  0.00    -0.000 C 
ATOM     19  C   UNL     1      39.208 -25.267 -13.092  0.00  0.00    +0.002 C 
ENDBRANCH  12  14
ENDBRANCH  11  12
ENDBRANCH   9  11
BRANCH   1  20
ATOM     20  C   UNL     1      34.077 -19.168 -21.024  0.00  0.00    +0.047 C 
BRANCH  20  25
ATOM     21  S   UNL     1      35.467 -16.795 -20.772  0.00  0.00    -0.048 S 
ATOM     22  O   UNL     1      34.906 -18.976 -23.907  0.00  0.00    -0.274 OA
ATOM     23  O   UNL     1      35.495 -14.677 -22.328  0.00  0.00    -0.263 OA
ATOM     24  N   UNL     1      35.199 -16.761 -23.313  0.00  0.00    -0.246 N 
ATOM     25  C   UNL     1      35.278 -18.412 -21.587  0.00  0.00    +0.137 C 
ATOM     26  C   UNL     1      35.103 -18.114 -23.059  0.00  0.00    +0.239 C 
ATOM     27  C   UNL     1      35.392 -15.893 -22.270  0.00  0.00    +0.279 C 
ATOM     28  H   UNL     1      35.130 -16.423 -24.234  0.00  0.00    +0.158 HD
ENDBRANCH  20  25
ENDBRANCH   1  20
TORSDOF 5
ENDMDL
MODEL 5
REMARK VINA RESULT:     -12.2      4.897     10.242
REMARK  Name = 204109
REMARK  5 active torsions:
REMARK  status: ('A' for Active; 'I' for Inactive)
REMARK    1  A    between atoms: C_1  and  C_20
REMARK    2  A    between atoms: C_9  and  O_11
REMARK    3  A    between atoms: O_11  and  C_12
REMARK    4  A    between atoms: C_12  and  C_14
REMARK    5  A    between atoms: C_20  and  C_25
REMARK                            x       y       z     vdW  Elec       q    Type
REMARK                         _______ _______ _______ _____ _____    ______ ____
ROOT
ATOM      1  C   UNL     1      36.086 -18.328 -21.073  0.00  0.00    -0.021 C 
ATOM      2  C   UNL     1      34.651 -19.808 -19.782  0.00  0.00    -0.000 C 
ATOM      3  C   UNL     1      34.816 -18.807 -20.752  0.00  0.00    -0.004 C 
ATOM      4  C   UNL     1      35.792 -20.332 -19.128  0.00  0.00    +0.003 C 
ATOM      5  C   UNL     1      37.208 -18.843 -20.430  0.00  0.00    -0.004 C 
ATOM      6  C   UNL     1      37.063 -19.840 -19.464  0.00  0.00    -0.000 C 
ATOM      7  C   UNL     1      35.627 -21.334 -18.158  0.00  0.00    +0.037 C 
ATOM      8  C   UNL     1      33.380 -20.302 -19.446  0.00  0.00    +0.003 C 
ATOM      9  C   UNL     1      34.356 -21.813 -17.837  0.00  0.00    +0.139 C 
ATOM     10  C   UNL     1      33.235 -21.298 -18.480  0.00  0.00    +0.037 C 
ENDROOT
BRANCH   9  11
ATOM     11  O   UNL     1      34.212 -22.785 -16.895  0.00  0.00    -0.471 OA
BRANCH  11  12
ATOM     12  C   UNL     1      34.539 -22.441 -15.550  0.00  0.00    +0.234 C 
BRANCH  12  14
ATOM     13  F   UNL     1      37.098 -21.275 -15.264  0.00  0.00    -0.204 F 
ATOM     14  C   UNL     1      35.723 -23.200 -15.054  0.00  0.00    +0.049 C 
ATOM     15  C   UNL     1      36.960 -22.567 -14.935  0.00  0.00    +0.140 C 
ATOM     16  C   UNL     1      35.591 -24.544 -14.709  0.00  0.00    +0.002 C 
ATOM     17  C   UNL     1      38.066 -23.279 -14.470  0.00  0.00    +0.029 C 
ATOM     18  C   UNL     1      36.697 -25.257 -14.244  0.00  0.00    -0.000 C 
ATOM     19  C   UNL     1      37.934 -24.625 -14.124  0.00  0.00    +0.002 C 
ENDBRANCH  12  14
ENDBRANCH  11  12
ENDBRANCH   9  11
BRANCH   1  20
ATOM     20  C   UNL     1      36.243 -17.263 -22.106  0.00  0.00    +0.047 C 
BRANCH  20  25
ATOM     21  S   UNL     1      34.574 -17.040 -24.294  0.00  0.00    -0.048 S 
ATOM     22  O   UNL     1      35.128 -14.566 -21.384  0.00  0.00    -0.274 OA
ATOM     23  O   UNL     1      34.114 -14.985 -25.869  0.00  0.00    -0.263 OA
ATOM     24  N   UNL     1      34.595 -14.572 -23.633  0.00  0.00    -0.246 N 
ATOM     25  C   UNL     1      34.902 -16.676 -22.542  0.00  0.00    +0.137 C 
ATOM     26  C   UNL     1      34.897 -15.168 -22.426  0.00  0.00    +0.239 C 
ATOM     27  C   UNL     1      34.386 -15.357 -24.737  0.00  0.00    +0.279 C 
ATOM     28  H   UNL     1      34.531 -13.592 -23.701  0.00  0.00    +0.158 HD
ENDBRANCH  20  25
ENDBRANCH   1  20
TORSDOF 5
ENDMDL
MODEL 6
REMARK VINA RESULT:     -12.2      1.656      2.297
REMARK  Name = 204109
REMARK  5 active torsions:
REMARK  status: ('A' for Active; 'I' for Inactive)
REMARK    1  A    between atoms: C_1  and  C_20
REMARK    2  A    between atoms: C_9  and  O_11
REMARK    3  A    between atoms: O_11  and  C_12
REMARK    4  A    between atoms: C_12  and  C_14
REMARK    5  A    between atoms: C_20  and  C_25
REMARK                            x       y       z     vdW  Elec       q    Type
REMARK                         _______ _______ _______ _____ _____    ______ ____
ROOT
ATOM      1  C   UNL     1      34.049 -22.974 -15.564  0.00  0.00    -0.021 C 
ATOM      2  C   UNL     1      34.951 -21.663 -17.404  0.00  0.00    -0.000 C 
ATOM      3  C   UNL     1      35.140 -22.435 -16.247  0.00  0.00    -0.004 C 
ATOM      4  C   UNL     1      33.637 -21.434 -17.875  0.00  0.00    +0.003 C 
ATOM      5  C   UNL     1      32.757 -22.748 -16.028  0.00  0.00    -0.004 C 
ATOM      6  C   UNL     1      32.550 -21.984 -17.177  0.00  0.00    -0.000 C 
ATOM      7  C   UNL     1      33.447 -20.662 -19.033  0.00  0.00    +0.037 C 
ATOM      8  C   UNL     1      36.037 -21.113 -18.104  0.00  0.00    +0.003 C 
ATOM      9  C   UNL     1      34.539 -20.123 -19.716  0.00  0.00    +0.139 C 
ATOM     10  C   UNL     1      35.831 -20.349 -19.252  0.00  0.00    +0.037 C 
ENDROOT
BRANCH   9  11
ATOM     11  O   UNL     1      34.340 -19.377 -20.838  0.00  0.00    -0.471 OA
BRANCH  11  12
ATOM     12  C   UNL     1      35.402 -18.516 -21.242  0.00  0.00    +0.234 C 
BRANCH  12  14
ATOM     13  F   UNL     1      35.886 -15.741 -21.473  0.00  0.00    -0.204 F 
ATOM     14  C   UNL     1      35.049 -17.732 -22.460  0.00  0.00    +0.049 C 
ATOM     15  C   UNL     1      35.314 -16.363 -22.513  0.00  0.00    +0.140 C 
ATOM     16  C   UNL     1      34.453 -18.369 -23.548  0.00  0.00    +0.002 C 
ATOM     17  C   UNL     1      34.983 -15.632 -23.654  0.00  0.00    +0.029 C 
ATOM     18  C   UNL     1      34.121 -17.638 -24.689  0.00  0.00    -0.000 C 
ATOM     19  C   UNL     1      34.386 -16.270 -24.742  0.00  0.00    +0.002 C 
ENDBRANCH  12  14
ENDBRANCH  11  12
ENDBRANCH   9  11
BRANCH   1  20
ATOM     20  C   UNL     1      34.268 -23.792 -14.336  0.00  0.00    +0.047 C 
BRANCH  20  25
ATOM     21  S   UNL     1      36.865 -24.728 -14.393  0.00  0.00    -0.048 S 
ATOM     22  O   UNL     1      34.885 -23.199 -11.454  0.00  0.00    -0.274 OA
ATOM     23  O   UNL     1      38.167 -26.216 -12.660  0.00  0.00    -0.263 OA
ATOM     24  N   UNL     1      36.557 -24.744 -11.857  0.00  0.00    -0.246 N 
ATOM     25  C   UNL     1      35.646 -23.557 -13.720  0.00  0.00    +0.137 C 
ATOM     26  C   UNL     1      35.630 -23.792 -12.226  0.00  0.00    +0.239 C 
ATOM     27  C   UNL     1      37.312 -25.359 -12.822  0.00  0.00    +0.279 C 
ATOM     28  H   UNL     1      36.676 -24.981 -10.909  0.00  0.00    +0.158 HD
ENDBRANCH  20  25
ENDBRANCH   1  20
TORSDOF 5
ENDMDL
MODEL 7
REMARK VINA RESULT:     -12.2      4.567     10.136
REMARK  Name = 204109
REMARK  5 active torsions:
REMARK  status: ('A' for Active; 'I' for Inactive)
REMARK    1  A    between atoms: C_1  and  C_20
REMARK    2  A    between atoms: C_9  and  O_11
REMARK    3  A    between atoms: O_11  and  C_12
REMARK    4  A    between atoms: C_12  and  C_14
REMARK    5  A    between atoms: C_20  and  C_25
REMARK                            x       y       z     vdW  Elec       q    Type
REMARK                         _______ _______ _______ _____ _____    ______ ____
ROOT
ATOM      1  C   UNL     1      35.624 -20.185 -19.763  0.00  0.00    -0.021 C 
ATOM      2  C   UNL     1      36.235 -21.084 -17.586  0.00  0.00    -0.000 C 
ATOM      3  C   UNL     1      36.572 -20.390 -18.760  0.00  0.00    -0.004 C 
ATOM      4  C   UNL     1      34.918 -21.576 -17.428  0.00  0.00    +0.003 C 
ATOM      5  C   UNL     1      34.329 -20.670 -19.607  0.00  0.00    -0.004 C 
ATOM      6  C   UNL     1      33.976 -21.361 -18.447  0.00  0.00    -0.000 C 
ATOM      7  C   UNL     1      34.581 -22.270 -16.254  0.00  0.00    +0.037 C 
ATOM      8  C   UNL     1      37.176 -21.300 -16.567  0.00  0.00    +0.003 C 
ATOM      9  C   UNL     1      35.529 -22.475 -15.251  0.00  0.00    +0.139 C 
ATOM     10  C   UNL     1      36.824 -21.990 -15.407  0.00  0.00    +0.037 C 
ENDROOT
BRANCH   9  11
ATOM     11  O   UNL     1      35.188 -23.148 -14.118  0.00  0.00    -0.471 OA
BRANCH  11  12
ATOM     12  C   UNL     1      35.534 -24.530 -14.054  0.00  0.00    +0.234 C 
BRANCH  12  14
ATOM     13  F   UNL     1      37.214 -26.308 -15.471  0.00  0.00    -0.204 F 
ATOM     14  C   UNL     1      36.972 -24.728 -13.714  0.00  0.00    +0.049 C 
ATOM     15  C   UNL     1      37.749 -25.621 -14.452  0.00  0.00    +0.140 C 
ATOM     16  C   UNL     1      37.539 -24.020 -12.656  0.00  0.00    +0.002 C 
ATOM     17  C   UNL     1      39.095 -25.804 -14.131  0.00  0.00    +0.029 C 
ATOM     18  C   UNL     1      38.885 -24.203 -12.334  0.00  0.00    -0.000 C 
ATOM     19  C   UNL     1      39.662 -25.094 -13.072  0.00  0.00    +0.002 C 
ENDBRANCH  12  14
ENDBRANCH  11  12
ENDBRANCH   9  11
BRANCH   1  20
ATOM     20  C   UNL     1      35.999 -19.447 -21.003  0.00  0.00    +0.047 C 
BRANCH  20  25
ATOM     21  S   UNL     1      34.759 -18.296 -23.186  0.00  0.00    -0.048 S 
ATOM     22  O   UNL     1      35.697 -16.711 -19.794  0.00  0.00    -0.274 OA
ATOM     23  O   UNL     1      35.151 -15.956 -24.316  0.00  0.00    -0.263 OA
ATOM     24  N   UNL     1      35.463 -16.135 -22.020  0.00  0.00    -0.246 N 
ATOM     25  C   UNL     1      34.970 -18.383 -21.380  0.00  0.00    +0.137 C 
ATOM     26  C   UNL     1      35.418 -17.004 -20.951  0.00  0.00    +0.239 C 
ATOM     27  C   UNL     1      35.156 -16.594 -23.274  0.00  0.00    +0.279 C 
ATOM     28  H   UNL     1      35.714 -15.193 -21.884  0.00  0.00    +0.158 HD
ENDBRANCH  20  25
ENDBRANCH   1  20
TORSDOF 5
ENDMDL
MODEL 8
REMARK VINA RESULT:     -12.2      2.796      3.363
REMARK  Name = 204109
REMARK  5 active torsions:
REMARK  status: ('A' for Active; 'I' for Inactive)
REMARK    1  A    between atoms: C_1  and  C_20
REMARK    2  A    between atoms: C_9  and  O_11
REMARK    3  A    between atoms: O_11  and  C_12
REMARK    4  A    between atoms: C_12  and  C_14
REMARK    5  A    between atoms: C_20  and  C_25
REMARK                            x       y       z     vdW  Elec       q    Type
REMARK                         _______ _______ _______ _____ _____    ______ ____
ROOT
ATOM      1  C   UNL     1      33.830 -21.722 -18.108  0.00  0.00    -0.021 C 
ATOM      2  C   UNL     1      35.499 -20.351 -19.229  0.00  0.00    -0.000 C 
ATOM      3  C   UNL     1      35.164 -21.388 -18.343  0.00  0.00    -0.004 C 
ATOM      4  C   UNL     1      34.464 -19.644 -19.887  0.00  0.00    +0.003 C 
ATOM      5  C   UNL     1      32.814 -21.027 -18.755  0.00  0.00    -0.004 C 
ATOM      6  C   UNL     1      33.127 -19.994 -19.641  0.00  0.00    -0.000 C 
ATOM      7  C   UNL     1      34.798 -18.608 -20.775  0.00  0.00    +0.037 C 
ATOM      8  C   UNL     1      36.836 -20.001 -19.477  0.00  0.00    +0.003 C 
ATOM      9  C   UNL     1      36.133 -18.273 -21.009  0.00  0.00    +0.139 C 
ATOM     10  C   UNL     1      37.149 -18.969 -20.361  0.00  0.00    +0.037 C 
ENDROOT
BRANCH   9  11
ATOM     11  O   UNL     1      36.441 -17.267 -21.872  0.00  0.00    -0.471 OA
BRANCH  11  12
ATOM     12  C   UNL     1      35.431 -16.873 -22.799  0.00  0.00    +0.234 C 
BRANCH  12  14
ATOM     13  F   UNL     1      34.522 -15.210 -24.895  0.00  0.00    -0.204 F 
ATOM     14  C   UNL     1      34.996 -15.464 -22.582  0.00  0.00    +0.049 C 
ATOM     15  C   UNL     1      34.557 -14.694 -23.659  0.00  0.00    +0.140 C 
ATOM     16  C   UNL     1      35.030 -14.916 -21.301  0.00  0.00    +0.002 C 
ATOM     17  C   UNL     1      34.150 -13.375 -23.454  0.00  0.00    +0.029 C 
ATOM     18  C   UNL     1      34.624 -13.596 -21.095  0.00  0.00    -0.000 C 
ATOM     19  C   UNL     1      34.183 -12.826 -22.171  0.00  0.00    +0.002 C 
ENDBRANCH  12  14
ENDBRANCH  11  12
ENDBRANCH   9  11
BRANCH   1  20
ATOM     20  C   UNL     1      33.494 -22.826 -17.163  0.00  0.00    +0.047 C 
BRANCH  20  25
ATOM     21  S   UNL     1      33.848 -23.149 -14.444  0.00  0.00    -0.048 S 
ATOM     22  O   UNL     1      30.655 -22.201 -16.395  0.00  0.00    -0.274 OA
ATOM     23  O   UNL     1      32.329 -24.359 -12.671  0.00  0.00    -0.263 OA
ATOM     24  N   UNL     1      31.299 -23.315 -14.474  0.00  0.00    -0.246 N 
ATOM     25  C   UNL     1      32.999 -22.306 -15.815  0.00  0.00    +0.137 C 
ATOM     26  C   UNL     1      31.526 -22.586 -15.622  0.00  0.00    +0.239 C 
ATOM     27  C   UNL     1      32.363 -23.712 -13.707  0.00  0.00    +0.279 C 
ATOM     28  H   UNL     1      30.381 -23.549 -14.207  0.00  0.00    +0.158 HD
ENDBRANCH  20  25
ENDBRANCH   1  20
TORSDOF 5
ENDMDL
MODEL 9
REMARK VINA RESULT:     -12.1      2.905      3.460
REMARK  Name = 204109
REMARK  5 active torsions:
REMARK  status: ('A' for Active; 'I' for Inactive)
REMARK    1  A    between atoms: C_1  and  C_20
REMARK    2  A    between atoms: C_9  and  O_11
REMARK    3  A    between atoms: O_11  and  C_12
REMARK    4  A    between atoms: C_12  and  C_14
REMARK    5  A    between atoms: C_20  and  C_25
REMARK                            x       y       z     vdW  Elec       q    Type
REMARK                         _______ _______ _______ _____ _____    ______ ____
ROOT
ATOM      1  C   UNL     1      33.937 -21.772 -18.052  0.00  0.00    -0.021 C 
ATOM      2  C   UNL     1      35.541 -20.351 -19.205  0.00  0.00    -0.000 C 
ATOM      3  C   UNL     1      35.253 -21.374 -18.286  0.00  0.00    -0.004 C 
ATOM      4  C   UNL     1      34.477 -19.724 -19.896  0.00  0.00    +0.003 C 
ATOM      5  C   UNL     1      32.892 -21.154 -18.731  0.00  0.00    -0.004 C 
ATOM      6  C   UNL     1      33.158 -20.137 -19.649  0.00  0.00    -0.000 C 
ATOM      7  C   UNL     1      34.764 -18.702 -20.815  0.00  0.00    +0.037 C 
ATOM      8  C   UNL     1      36.860 -19.938 -19.453  0.00  0.00    +0.003 C 
ATOM      9  C   UNL     1      36.081 -18.304 -21.049  0.00  0.00    +0.139 C 
ATOM     10  C   UNL     1      37.127 -18.921 -20.370  0.00  0.00    +0.037 C 
ENDROOT
BRANCH   9  11
ATOM     11  O   UNL     1      36.344 -17.312 -21.944  0.00  0.00    -0.471 OA
BRANCH  11  12
ATOM     12  C   UNL     1      35.843 -16.012 -21.639  0.00  0.00    +0.234 C 
BRANCH  12  14
ATOM     13  F   UNL     1      34.848 -13.366 -21.628  0.00  0.00    -0.204 F 
ATOM     14  C   UNL     1      35.061 -15.437 -22.771  0.00  0.00    +0.049 C 
ATOM     15  C   UNL     1      34.597 -14.124 -22.705  0.00  0.00    +0.140 C 
ATOM     16  C   UNL     1      34.793 -16.216 -23.896  0.00  0.00    +0.002 C 
ATOM     17  C   UNL     1      33.865 -13.588 -23.766  0.00  0.00    +0.029 C 
ATOM     18  C   UNL     1      34.060 -15.682 -24.957  0.00  0.00    -0.000 C 
ATOM     19  C   UNL     1      33.597 -14.368 -24.892  0.00  0.00    +0.002 C 
ENDBRANCH  12  14
ENDBRANCH  11  12
ENDBRANCH   9  11
BRANCH   1  20
ATOM     20  C   UNL     1      33.650 -22.859 -17.072  0.00  0.00    +0.047 C 
BRANCH  20  25
ATOM     21  S   UNL     1      33.936 -23.131 -14.339  0.00  0.00    -0.048 S 
ATOM     22  O   UNL     1      30.786 -22.254 -16.390  0.00  0.00    -0.274 OA
ATOM     23  O   UNL     1      32.384 -24.326 -12.586  0.00  0.00    -0.263 OA
ATOM     24  N   UNL     1      31.390 -23.326 -14.433  0.00  0.00    -0.246 N 
ATOM     25  C   UNL     1      33.115 -22.321 -15.747  0.00  0.00    +0.137 C 
ATOM     26  C   UNL     1      31.640 -22.614 -15.588  0.00  0.00    +0.239 C 
ATOM     27  C   UNL     1      32.438 -23.697 -13.632  0.00  0.00    +0.279 C 
ATOM     28  H   UNL     1      30.468 -23.566 -14.187  0.00  0.00    +0.158 HD
ENDBRANCH  20  25
ENDBRANCH   1  20
TORSDOF 5
ENDMDL
