MODEL 1
REMARK VINA RESULT:     -11.6      0.000      0.000
REMARK  Name = 10275777
REMARK  5 active torsions:
REMARK  status: ('A' for Active; 'I' for Inactive)
REMARK    1  A    between atoms: C_1  and  N_19
REMARK    2  A    between atoms: C_2  and  C_11
REMARK    3  A    between atoms: C_5  and  O_34
REMARK    4  A    between atoms: C_20  and  C_22
REMARK    5  A    between atoms: C_23  and  C_30
REMARK                            x       y       z     vdW  Elec       q    Type
REMARK                         _______ _______ _______ _____ _____    ______ ____
ROOT
ATOM      1  C   UNL     1      32.012 -22.355 -16.153  0.00  0.00    +0.055 C 
ATOM      2  C   UNL     1      32.785 -22.946 -15.168  0.00  0.00    +0.070 C 
ATOM      3  C   UNL     1      30.633 -22.489 -16.166  0.00  0.00    +0.018 C 
ATOM      4  C   UNL     1      32.162 -23.692 -14.167  0.00  0.00    +0.043 C 
ATOM      5  C   UNL     1      30.775 -23.837 -14.166  0.00  0.00    +0.139 C 
ATOM      6  C   UNL     1      30.011 -23.236 -15.165  0.00  0.00    +0.038 C 
ENDROOT
BRANCH   2  11
ATOM      7 CL   UNL     1      40.726 -24.633 -14.249  0.00  0.00    -0.081 Cl
ATOM      8  O   UNL     1      34.742 -21.706 -15.386  0.00  0.00    -0.270 OA
ATOM      9  N   UNL     1      34.947 -23.968 -14.796  0.00  0.00    -0.266 N 
ATOM     10  N   UNL     1      36.809 -25.349 -14.324  0.00  0.00    -0.228 NA
ATOM     11  C   UNL     1      34.236 -22.810 -15.137  0.00  0.00    +0.252 C 
ATOM     12  C   UNL     1      36.348 -24.133 -14.664  0.00  0.00    +0.134 C 
ATOM     13  C   UNL     1      37.130 -23.022 -14.895  0.00  0.00    +0.035 C 
ATOM     14  C   UNL     1      38.506 -23.172 -14.767  0.00  0.00    +0.016 C 
ATOM     15  C   UNL     1      38.151 -25.458 -14.208  0.00  0.00    +0.112 C 
ATOM     16  C   UNL     1      39.035 -24.410 -14.417  0.00  0.00    +0.077 C 
ATOM     17  H   UNL     1      34.403 -24.772 -14.626  0.00  0.00    +0.157 HD
ENDBRANCH   2  11
BRANCH   1  19
ATOM     18  O   UNL     1      33.899 -23.189 -18.328  0.00  0.00    -0.270 OA
ATOM     19  N   UNL     1      32.622 -21.592 -17.179  0.00  0.00    -0.280 N 
ATOM     20  C   UNL     1      33.502 -22.023 -18.181  0.00  0.00    +0.249 C 
ATOM     21  H   UNL     1      32.399 -20.633 -17.189  0.00  0.00    +0.155 HD
BRANCH  20  22
ATOM     22  C   UNL     1      33.989 -20.992 -19.084  0.00  0.00    +0.054 C 
ATOM     23  C   UNL     1      34.913 -19.041 -20.796  0.00  0.00    +0.031 C 
ATOM     24  C   UNL     1      35.359 -20.763 -19.207  0.00  0.00    +0.005 C 
ATOM     25  C   UNL     1      33.086 -20.232 -19.828  0.00  0.00    +0.005 C 
ATOM     26  C   UNL     1      35.827 -19.776 -20.075  0.00  0.00    +0.003 C 
ATOM     27  C   UNL     1      33.554 -19.244 -20.695  0.00  0.00    +0.003 C 
BRANCH  23  30
ATOM     28  N   UNL     1      35.457 -16.652 -21.307  0.00  0.00    -0.290 N 
ATOM     29  N   UNL     1      35.789 -18.420 -22.891  0.00  0.00    -0.285 NA
ATOM     30  C   UNL     1      35.412 -17.987 -21.722  0.00  0.00    +0.123 C 
ATOM     31  C   UNL     1      35.864 -15.586 -22.219  0.00  0.00    +0.114 C 
ATOM     32  C   UNL     1      35.034 -16.207 -19.982  0.00  0.00    +0.114 C 
ATOM     33  H   UNL     1      36.132 -17.788 -23.563  0.00  0.00    +0.188 HD
ENDBRANCH  23  30
ENDBRANCH  20  22
ENDBRANCH   1  19
BRANCH   5  34
ATOM     34  O   UNL     1      30.168 -24.565 -13.189  0.00  0.00    -0.471 OA
ATOM     35  C   UNL     1      28.961 -25.242 -13.540  0.00  0.00    +0.252 C 
ENDBRANCH   5  34
TORSDOF 5
ENDMDL
MODEL 2
REMARK VINA RESULT:     -11.1      3.119      5.507
REMARK  Name = 10275777
REMARK  5 active torsions:
REMARK  status: ('A' for Active; 'I' for Inactive)
REMARK    1  A    between atoms: C_1  and  N_19
REMARK    2  A    between atoms: C_2  and  C_11
REMARK    3  A    between atoms: C_5  and  O_34
REMARK    4  A    between atoms: C_20  and  C_22
REMARK    5  A    between atoms: C_23  and  C_30
REMARK                            x       y       z     vdW  Elec       q    Type
REMARK                         _______ _______ _______ _____ _____    ______ ____
ROOT
ATOM      1  C   UNL     1      36.542 -21.860 -16.165  0.00  0.00    +0.055 C 
ATOM      2  C   UNL     1      35.508 -22.562 -15.568  0.00  0.00    +0.070 C 
ATOM      3  C   UNL     1      37.857 -22.035 -15.764  0.00  0.00    +0.018 C 
ATOM      4  C   UNL     1      35.795 -23.464 -14.543  0.00  0.00    +0.043 C 
ATOM      5  C   UNL     1      37.114 -23.651 -14.129  0.00  0.00    +0.139 C 
ATOM      6  C   UNL     1      38.144 -22.937 -14.739  0.00  0.00    +0.038 C 
ENDROOT
BRANCH   2  11
ATOM      7 CL   UNL     1      27.358 -22.021 -15.372  0.00  0.00    -0.081 Cl
ATOM      8  O   UNL     1      33.865 -22.233 -17.183  0.00  0.00    -0.270 OA
ATOM      9  N   UNL     1      33.169 -22.452 -14.953  0.00  0.00    -0.266 N 
ATOM     10  N   UNL     1      31.042 -22.434 -13.918  0.00  0.00    -0.228 NA
ATOM     11  C   UNL     1      34.120 -22.393 -15.980  0.00  0.00    +0.252 C 
ATOM     12  C   UNL     1      31.760 -22.346 -15.051  0.00  0.00    +0.134 C 
ATOM     13  C   UNL     1      31.236 -22.163 -16.313  0.00  0.00    +0.035 C 
ATOM     14  C   UNL     1      29.853 -22.059 -16.420  0.00  0.00    +0.016 C 
ATOM     15  C   UNL     1      29.702 -22.329 -14.061  0.00  0.00    +0.112 C 
ATOM     16  C   UNL     1      29.065 -22.143 -15.278  0.00  0.00    +0.077 C 
ATOM     17  H   UNL     1      33.527 -22.584 -14.044  0.00  0.00    +0.157 HD
ENDBRANCH   2  11
BRANCH   1  19
ATOM     18  O   UNL     1      35.837 -22.341 -19.038  0.00  0.00    -0.270 OA
ATOM     19  N   UNL     1      36.274 -20.940 -17.207  0.00  0.00    -0.280 N 
ATOM     20  C   UNL     1      35.946 -21.208 -18.544  0.00  0.00    +0.249 C 
ATOM     21  H   UNL     1      36.325 -19.988 -16.962  0.00  0.00    +0.155 HD
BRANCH  20  22
ATOM     22  C   UNL     1      35.753 -20.044 -19.395  0.00  0.00    +0.054 C 
ATOM     23  C   UNL     1      35.388 -17.841 -21.009  0.00  0.00    +0.031 C 
ATOM     24  C   UNL     1      36.844 -19.253 -19.753  0.00  0.00    +0.005 C 
ATOM     25  C   UNL     1      34.476 -19.720 -19.854  0.00  0.00    +0.005 C 
ATOM     26  C   UNL     1      36.659 -18.138 -20.570  0.00  0.00    +0.003 C 
ATOM     27  C   UNL     1      34.291 -18.604 -20.672  0.00  0.00    +0.003 C 
BRANCH  23  30
ATOM     28  N   UNL     1      34.990 -15.389 -21.313  0.00  0.00    -0.290 N 
ATOM     29  N   UNL     1      35.231 -16.898 -23.160  0.00  0.00    -0.285 NA
ATOM     30  C   UNL     1      35.191 -16.652 -21.881  0.00  0.00    +0.123 C 
ATOM     31  C   UNL     1      34.713 -14.218 -22.140  0.00  0.00    +0.114 C 
ATOM     32  C   UNL     1      34.962 -15.152 -19.872  0.00  0.00    +0.114 C 
ATOM     33  H   UNL     1      35.109 -16.166 -23.806  0.00  0.00    +0.188 HD
ENDBRANCH  23  30
ENDBRANCH  20  22
ENDBRANCH   1  19
BRANCH   5  34
ATOM     34  O   UNL     1      37.394 -24.531 -13.129  0.00  0.00    -0.471 OA
ATOM     35  C   UNL     1      38.770 -24.728 -12.805  0.00  0.00    +0.252 C 
ENDBRANCH   5  34
TORSDOF 5
ENDMDL
MODEL 3
REMARK VINA RESULT:      -9.8      3.088      8.397
REMARK  Name = 10275777
REMARK  5 active torsions:
REMARK  status: ('A' for Active; 'I' for Inactive)
REMARK    1  A    between atoms: C_1  and  N_19
REMARK    2  A    between atoms: C_2  and  C_11
REMARK    3  A    between atoms: C_5  and  O_34
REMARK    4  A    between atoms: C_20  and  C_22
REMARK    5  A    between atoms: C_23  and  C_30
REMARK                            x       y       z     vdW  Elec       q    Type
REMARK                         _______ _______ _______ _____ _____    ______ ____
ROOT
ATOM      1  C   UNL     1      35.778 -20.343 -19.116  0.00  0.00    +0.055 C 
ATOM      2  C   UNL     1      34.441 -20.194 -19.444  0.00  0.00    +0.070 C 
ATOM      3  C   UNL     1      36.781 -19.856 -19.940  0.00  0.00    +0.018 C 
ATOM      4  C   UNL     1      34.095 -19.542 -20.628  0.00  0.00    +0.043 C 
ATOM      5  C   UNL     1      35.093 -19.047 -21.468  0.00  0.00    +0.139 C 
ATOM      6  C   UNL     1      36.436 -19.205 -21.124  0.00  0.00    +0.038 C 
ENDROOT
BRANCH   2  11
ATOM      7 CL   UNL     1      30.409 -24.385 -13.706  0.00  0.00    -0.081 Cl
ATOM      8  O   UNL     1      32.214 -20.300 -18.777  0.00  0.00    -0.270 OA
ATOM      9  N   UNL     1      33.763 -21.624 -17.613  0.00  0.00    -0.266 N 
ATOM     10  N   UNL     1      33.551 -23.151 -15.819  0.00  0.00    -0.228 NA
ATOM     11  C   UNL     1      33.374 -20.695 -18.587  0.00  0.00    +0.252 C 
ATOM     12  C   UNL     1      32.952 -22.294 -16.663  0.00  0.00    +0.134 C 
ATOM     13  C   UNL     1      31.604 -22.010 -16.686  0.00  0.00    +0.035 C 
ATOM     14  C   UNL     1      30.799 -22.663 -15.758  0.00  0.00    +0.016 C 
ATOM     15  C   UNL     1      32.738 -23.768 -14.932  0.00  0.00    +0.112 C 
ATOM     16  C   UNL     1      31.369 -23.560 -14.861  0.00  0.00    +0.077 C 
ATOM     17  H   UNL     1      34.723 -21.840 -17.584  0.00  0.00    +0.157 HD
ENDBRANCH   2  11
BRANCH   1  19
ATOM     18  O   UNL     1      37.711 -19.521 -16.977  0.00  0.00    -0.270 OA
ATOM     19  N   UNL     1      36.152 -21.000 -17.920  0.00  0.00    -0.280 N 
ATOM     20  C   UNL     1      37.064 -20.579 -16.941  0.00  0.00    +0.249 C 
ATOM     21  H   UNL     1      35.715 -21.866 -17.752  0.00  0.00    +0.155 HD
BRANCH  20  22
ATOM     22  C   UNL     1      37.263 -21.490 -15.825  0.00  0.00    +0.054 C 
ATOM     23  C   UNL     1      37.637 -23.218 -13.712  0.00  0.00    +0.031 C 
ATOM     24  C   UNL     1      36.297 -21.588 -14.825  0.00  0.00    +0.005 C 
ATOM     25  C   UNL     1      38.420 -22.267 -15.756  0.00  0.00    +0.005 C 
ATOM     26  C   UNL     1      36.486 -22.464 -13.755  0.00  0.00    +0.003 C 
ATOM     27  C   UNL     1      38.609 -23.142 -14.686  0.00  0.00    +0.003 C 
BRANCH  23  30
ATOM     28  N   UNL     1      37.480 -25.498 -12.693  0.00  0.00    -0.290 N 
ATOM     29  N   UNL     1      38.366 -23.612 -11.508  0.00  0.00    -0.285 NA
ATOM     30  C   UNL     1      37.839 -24.152 -12.571  0.00  0.00    +0.123 C 
ATOM     31  C   UNL     1      37.591 -26.420 -11.565  0.00  0.00    +0.114 C 
ATOM     32  C   UNL     1      36.901 -26.069 -13.906  0.00  0.00    +0.114 C 
ATOM     33  H   UNL     1      38.533 -24.161 -10.708  0.00  0.00    +0.188 HD
ENDBRANCH  23  30
ENDBRANCH  20  22
ENDBRANCH   1  19
BRANCH   5  34
ATOM     34  O   UNL     1      34.756 -18.411 -22.623  0.00  0.00    -0.471 OA
ATOM     35  C   UNL     1      35.170 -17.051 -22.759  0.00  0.00    +0.252 C 
ENDBRANCH   5  34
TORSDOF 5
ENDMDL
MODEL 4
REMARK VINA RESULT:      -9.6      2.840      7.715
REMARK  Name = 10275777
REMARK  5 active torsions:
REMARK  status: ('A' for Active; 'I' for Inactive)
REMARK    1  A    between atoms: C_1  and  N_19
REMARK    2  A    between atoms: C_2  and  C_11
REMARK    3  A    between atoms: C_5  and  O_34
REMARK    4  A    between atoms: C_20  and  C_22
REMARK    5  A    between atoms: C_23  and  C_30
REMARK                            x       y       z     vdW  Elec       q    Type
REMARK                         _______ _______ _______ _____ _____    ______ ____
ROOT
ATOM      1  C   UNL     1      31.290 -23.238 -15.090  0.00  0.00    +0.055 C 
ATOM      2  C   UNL     1      31.137 -22.427 -16.202  0.00  0.00    +0.070 C 
ATOM      3  C   UNL     1      30.195 -23.696 -14.375  0.00  0.00    +0.018 C 
ATOM      4  C   UNL     1      29.854 -22.063 -16.611  0.00  0.00    +0.043 C 
ATOM      5  C   UNL     1      28.741 -22.515 -15.902  0.00  0.00    +0.139 C 
ATOM      6  C   UNL     1      28.912 -23.331 -14.784  0.00  0.00    +0.038 C 
ENDROOT
BRANCH   2  11
ATOM      7 CL   UNL     1      35.646 -18.614 -21.849  0.00  0.00    -0.081 Cl
ATOM      8  O   UNL     1      33.417 -22.313 -16.651  0.00  0.00    -0.270 OA
ATOM      9  N   UNL     1      31.974 -21.089 -18.038  0.00  0.00    -0.266 N 
ATOM     10  N   UNL     1      32.337 -19.698 -19.917  0.00  0.00    -0.228 NA
ATOM     11  C   UNL     1      32.278 -21.940 -16.968  0.00  0.00    +0.252 C 
ATOM     12  C   UNL     1      32.862 -20.486 -18.962  0.00  0.00    +0.134 C 
ATOM     13  C   UNL     1      34.203 -20.762 -18.808  0.00  0.00    +0.035 C 
ATOM     14  C   UNL     1      35.084 -20.176 -19.711  0.00  0.00    +0.016 C 
ATOM     15  C   UNL     1      33.222 -19.147 -20.776  0.00  0.00    +0.112 C 
ATOM     16  C   UNL     1      34.592 -19.352 -20.717  0.00  0.00    +0.077 C 
ATOM     17  H   UNL     1      31.019 -20.883 -18.164  0.00  0.00    +0.157 HD
ENDBRANCH   2  11
BRANCH   1  19
ATOM     18  O   UNL     1      32.689 -22.735 -12.486  0.00  0.00    -0.270 OA
ATOM     19  N   UNL     1      32.583 -23.621 -14.657  0.00  0.00    -0.280 N 
ATOM     20  C   UNL     1      33.202 -23.365 -13.425  0.00  0.00    +0.249 C 
ATOM     21  H   UNL     1      33.117 -24.134 -15.305  0.00  0.00    +0.155 HD
BRANCH  20  22
ATOM     22  C   UNL     1      34.559 -23.867 -13.280  0.00  0.00    +0.054 C 
ATOM     23  C   UNL     1      37.131 -24.817 -13.008  0.00  0.00    +0.031 C 
ATOM     24  C   UNL     1      35.188 -24.496 -14.355  0.00  0.00    +0.005 C 
ATOM     25  C   UNL     1      35.232 -23.719 -12.068  0.00  0.00    +0.005 C 
ATOM     26  C   UNL     1      36.490 -24.976 -14.217  0.00  0.00    +0.003 C 
ATOM     27  C   UNL     1      36.535 -24.200 -11.930  0.00  0.00    +0.003 C 
BRANCH  23  30
ATOM     28  N   UNL     1      39.537 -24.851 -13.694  0.00  0.00    -0.290 N 
ATOM     29  N   UNL     1      38.681 -26.215 -11.920  0.00  0.00    -0.285 NA
ATOM     30  C   UNL     1      38.520 -25.329 -12.861  0.00  0.00    +0.123 C 
ATOM     31  C   UNL     1      40.892 -25.392 -13.628  0.00  0.00    +0.114 C 
ATOM     32  C   UNL     1      39.320 -23.848 -14.733  0.00  0.00    +0.114 C 
ATOM     33  H   UNL     1      39.569 -26.604 -11.756  0.00  0.00    +0.188 HD
ENDBRANCH  23  30
ENDBRANCH  20  22
ENDBRANCH   1  19
BRANCH   5  34
ATOM     34  O   UNL     1      27.490 -22.161 -16.302  0.00  0.00    -0.471 OA
ATOM     35  C   UNL     1      26.654 -21.528 -15.333  0.00  0.00    +0.252 C 
ENDBRANCH   5  34
TORSDOF 5
ENDMDL
MODEL 5
REMARK VINA RESULT:      -9.4     10.858     15.573
REMARK  Name = 10275777
REMARK  5 active torsions:
REMARK  status: ('A' for Active; 'I' for Inactive)
REMARK    1  A    between atoms: C_1  and  N_19
REMARK    2  A    between atoms: C_2  and  C_11
REMARK    3  A    between atoms: C_5  and  O_34
REMARK    4  A    between atoms: C_20  and  C_22
REMARK    5  A    between atoms: C_23  and  C_30
REMARK                            x       y       z     vdW  Elec       q    Type
REMARK                         _______ _______ _______ _____ _____    ______ ____
ROOT
ATOM      1  C   UNL     1      32.562  -6.475 -23.718  0.00  0.00    +0.055 C 
ATOM      2  C   UNL     1      32.429  -5.885 -22.472  0.00  0.00    +0.070 C 
ATOM      3  C   UNL     1      32.475  -5.727 -24.882  0.00  0.00    +0.018 C 
ATOM      4  C   UNL     1      32.204  -4.511 -22.386  0.00  0.00    +0.043 C 
ATOM      5  C   UNL     1      32.114  -3.745 -23.549  0.00  0.00    +0.139 C 
ATOM      6  C   UNL     1      32.250  -4.353 -24.797  0.00  0.00    +0.038 C 
ENDROOT
BRANCH   2  11
ATOM      7 CL   UNL     1      31.520 -11.824 -16.936  0.00  0.00    -0.081 Cl
ATOM      8  O   UNL     1      33.105  -6.160 -20.263  0.00  0.00    -0.270 OA
ATOM      9  N   UNL     1      31.904  -7.912 -21.259  0.00  0.00    -0.266 N 
ATOM     10  N   UNL     1      31.163 -10.014 -20.466  0.00  0.00    -0.228 NA
ATOM     11  C   UNL     1      32.522  -6.655 -21.238  0.00  0.00    +0.252 C 
ATOM     12  C   UNL     1      31.811  -8.864 -20.213  0.00  0.00    +0.134 C 
ATOM     13  C   UNL     1      32.395  -8.527 -19.011  0.00  0.00    +0.035 C 
ATOM     14  C   UNL     1      32.308  -9.453 -17.977  0.00  0.00    +0.016 C 
ATOM     15  C   UNL     1      31.098 -10.890 -19.438  0.00  0.00    +0.112 C 
ATOM     16  C   UNL     1      31.649 -10.660 -18.187  0.00  0.00    +0.077 C 
ATOM     17  H   UNL     1      31.480  -8.168 -22.110  0.00  0.00    +0.157 HD
ENDBRANCH   2  11
BRANCH   1  19
ATOM     18  O   UNL     1      35.129  -8.022 -23.696  0.00  0.00    -0.270 OA
ATOM     19  N   UNL     1      32.792  -7.867 -23.830  0.00  0.00    -0.280 N 
ATOM     20  C   UNL     1      34.014  -8.554 -23.814  0.00  0.00    +0.249 C 
ATOM     21  H   UNL     1      31.988  -8.427 -23.932  0.00  0.00    +0.155 HD
BRANCH  20  22
ATOM     22  C   UNL     1      33.934  -9.996 -23.979  0.00  0.00    +0.054 C 
ATOM     23  C   UNL     1      33.784 -12.730 -24.291  0.00  0.00    +0.031 C 
ATOM     24  C   UNL     1      34.032 -10.560 -25.251  0.00  0.00    +0.005 C 
ATOM     25  C   UNL     1      33.759 -10.817 -22.864  0.00  0.00    +0.005 C 
ATOM     26  C   UNL     1      33.956 -11.944 -25.409  0.00  0.00    +0.003 C 
ATOM     27  C   UNL     1      33.684 -12.201 -23.022  0.00  0.00    +0.003 C 
BRANCH  23  30
ATOM     28  N   UNL     1      34.439 -15.050 -23.620  0.00  0.00    -0.290 N 
ATOM     29  N   UNL     1      32.913 -14.606 -25.414  0.00  0.00    -0.285 NA
ATOM     30  C   UNL     1      33.704 -14.206 -24.460  0.00  0.00    +0.123 C 
ATOM     31  C   UNL     1      34.444 -16.498 -23.812  0.00  0.00    +0.114 C 
ATOM     32  C   UNL     1      35.308 -14.562 -22.552  0.00  0.00    +0.114 C 
ATOM     33  H   UNL     1      32.803 -15.568 -25.592  0.00  0.00    +0.188 HD
ENDBRANCH  23  30
ENDBRANCH  20  22
ENDBRANCH   1  19
BRANCH   5  34
ATOM     34  O   UNL     1      31.895  -2.404 -23.465  0.00  0.00    -0.471 OA
ATOM     35  C   UNL     1      32.126  -1.787 -22.200  0.00  0.00    +0.252 C 
ENDBRANCH   5  34
TORSDOF 5
ENDMDL
MODEL 6
REMARK VINA RESULT:      -8.7      3.187      6.774
REMARK  Name = 10275777
REMARK  5 active torsions:
REMARK  status: ('A' for Active; 'I' for Inactive)
REMARK    1  A    between atoms: C_1  and  N_19
REMARK    2  A    between atoms: C_2  and  C_11
REMARK    3  A    between atoms: C_5  and  O_34
REMARK    4  A    between atoms: C_20  and  C_22
REMARK    5  A    between atoms: C_23  and  C_30
REMARK                            x       y       z     vdW  Elec       q    Type
REMARK                         _______ _______ _______ _____ _____    ______ ____
ROOT
ATOM      1  C   UNL     1      30.972 -23.309 -14.716  0.00  0.00    +0.055 C 
ATOM      2  C   UNL     1      30.599 -22.537 -15.803  0.00  0.00    +0.070 C 
ATOM      3  C   UNL     1      30.033 -23.795 -13.820  0.00  0.00    +0.018 C 
ATOM      4  C   UNL     1      29.250 -22.241 -16.002  0.00  0.00    +0.043 C 
ATOM      5  C   UNL     1      28.292 -22.723 -15.109  0.00  0.00    +0.139 C 
ATOM      6  C   UNL     1      28.684 -23.499 -14.018  0.00  0.00    +0.038 C 
ENDROOT
BRANCH   2  11
ATOM      7 CL   UNL     1      37.675 -20.502 -19.345  0.00  0.00    -0.081 Cl
ATOM      8  O   UNL     1      31.170 -21.449 -17.779  0.00  0.00    -0.270 OA
ATOM      9  N   UNL     1      32.919 -22.206 -16.411  0.00  0.00    -0.266 N 
ATOM     10  N   UNL     1      35.275 -22.085 -16.589  0.00  0.00    -0.228 NA
ATOM     11  C   UNL     1      31.574 -22.022 -16.757  0.00  0.00    +0.252 C 
ATOM     12  C   UNL     1      34.074 -21.795 -17.121  0.00  0.00    +0.134 C 
ATOM     13  C   UNL     1      33.870 -21.125 -18.307  0.00  0.00    +0.035 C 
ATOM     14  C   UNL     1      34.997 -20.717 -19.012  0.00  0.00    +0.016 C 
ATOM     15  C   UNL     1      36.347 -21.672 -17.301  0.00  0.00    +0.112 C 
ATOM     16  C   UNL     1      36.263 -20.991 -18.506  0.00  0.00    +0.077 C 
ATOM     17  H   UNL     1      33.083 -22.682 -15.564  0.00  0.00    +0.157 HD
ENDBRANCH   2  11
BRANCH   1  19
ATOM     18  O   UNL     1      32.704 -22.837 -12.315  0.00  0.00    -0.270 OA
ATOM     19  N   UNL     1      32.335 -23.622 -14.495  0.00  0.00    -0.280 N 
ATOM     20  C   UNL     1      33.111 -23.384 -13.352  0.00  0.00    +0.249 C 
ATOM     21  H   UNL     1      32.799 -24.066 -15.241  0.00  0.00    +0.155 HD
BRANCH  20  22
ATOM     22  C   UNL     1      34.503 -23.797 -13.432  0.00  0.00    +0.054 C 
ATOM     23  C   UNL     1      37.140 -24.581 -13.587  0.00  0.00    +0.031 C 
ATOM     24  C   UNL     1      34.934 -24.590 -14.495  0.00  0.00    +0.005 C 
ATOM     25  C   UNL     1      35.407 -23.402 -12.446  0.00  0.00    +0.005 C 
ATOM     26  C   UNL     1      36.270 -24.986 -14.574  0.00  0.00    +0.003 C 
ATOM     27  C   UNL     1      36.743 -23.797 -12.525  0.00  0.00    +0.003 C 
BRANCH  23  30
ATOM     28  N   UNL     1      39.468 -24.277 -14.454  0.00  0.00    -0.290 N 
ATOM     29  N   UNL     1      38.866 -26.056 -12.966  0.00  0.00    -0.285 NA
ATOM     30  C   UNL     1      38.565 -25.002 -13.670  0.00  0.00    +0.123 C 
ATOM     31  C   UNL     1      40.852 -24.712 -14.621  0.00  0.00    +0.114 C 
ATOM     32  C   UNL     1      39.093 -23.092 -15.222  0.00  0.00    +0.114 C 
ATOM     33  H   UNL     1      39.788 -26.402 -12.966  0.00  0.00    +0.188 HD
ENDBRANCH  23  30
ENDBRANCH  20  22
ENDBRANCH   1  19
BRANCH   5  34
ATOM     34  O   UNL     1      26.976 -22.435 -15.303  0.00  0.00    -0.471 OA
ATOM     35  C   UNL     1      26.672 -21.337 -16.163  0.00  0.00    +0.252 C 
ENDBRANCH   5  34
TORSDOF 5
ENDMDL
