MODEL 1
REMARK VINA RESULT:     -12.3      0.000      0.000
REMARK  Name = 46937156
REMARK  6 active torsions:
REMARK  status: ('A' for Active; 'I' for Inactive)
REMARK    1  A    between atoms: C_5  and  O_22
REMARK    2  A    between atoms: C_7  and  O_24
REMARK    3  A    between atoms: C_8  and  O_26
REMARK    4  A    between atoms: C_9  and  C_12
REMARK    5  A    between atoms: C_10  and  C_28
REMARK    6  A    between atoms: C_28  and  O_29
REMARK                            x       y       z     vdW  Elec       q    Type
REMARK                         _______ _______ _______ _____ _____    ______ ____
ROOT
ATOM      1  O   UNL     1      36.353 -23.273 -13.041  0.00  0.00    -0.328 OA
ATOM      2  O   UNL     1      35.748 -24.716 -14.832  0.00  0.00    -0.260 OA
ATOM      3  N   UNL     1      34.840 -24.008 -15.740  0.00  0.00    -0.184 NA
ATOM      4  C   UNL     1      36.721 -23.785 -14.330  0.00  0.00    +0.234 C 
ATOM      5  C   UNL     1      38.103 -24.443 -14.243  0.00  0.00    +0.193 C 
ATOM      6  C   UNL     1      36.685 -22.632 -15.319  0.00  0.00    +0.083 C 
ATOM      7  C   UNL     1      38.128 -25.532 -13.171  0.00  0.00    +0.171 C 
ATOM      8  C   UNL     1      37.601 -24.991 -11.840  0.00  0.00    +0.169 C 
ATOM      9  C   UNL     1      35.212 -22.590 -15.671  0.00  0.00    +0.107 C 
ATOM     10  C   UNL     1      36.257 -24.282 -12.029  0.00  0.00    +0.176 C 
ATOM     11  H   UNL     1      33.873 -24.134 -15.440  0.00  0.00    +0.155 HD
ENDROOT
BRANCH   9  12
ATOM     12  C   UNL     1      34.908 -21.833 -16.942  0.00  0.00    -0.006 C 
ATOM     13  C   UNL     1      35.932 -21.173 -17.622  0.00  0.00    -0.003 C 
ATOM     14  C   UNL     1      33.606 -21.793 -17.433  0.00  0.00    -0.003 C 
ATOM     15  C   UNL     1      35.665 -20.464 -18.805  0.00  0.00    -0.000 C 
ATOM     16  C   UNL     1      33.323 -21.093 -18.605  0.00  0.00    -0.000 C 
ATOM     17  C   UNL     1      34.341 -20.424 -19.304  0.00  0.00    -0.000 C 
ATOM     18  C   UNL     1      36.682 -19.794 -19.502  0.00  0.00    -0.000 C 
ATOM     19  C   UNL     1      34.074 -19.714 -20.486  0.00  0.00    -0.000 C 
ATOM     20  C   UNL     1      36.399 -19.094 -20.675  0.00  0.00    -0.000 C 
ATOM     21  C   UNL     1      35.098 -19.054 -21.167  0.00  0.00    -0.000 C 
ENDBRANCH   9  12
BRANCH   5  22
ATOM     22  O   UNL     1      38.454 -25.012 -15.501  0.00  0.00    -0.378 OA
ATOM     23  H   UNL     1      38.315 -24.357 -16.203  0.00  0.00    +0.211 HD
ENDBRANCH   5  22
BRANCH   7  24
ATOM     24  O   UNL     1      39.479 -25.961 -12.998  0.00  0.00    -0.379 OA
ATOM     25  H   UNL     1      39.913 -26.018 -13.864  0.00  0.00    +0.211 HD
ENDBRANCH   7  24
BRANCH   8  26
ATOM     26  O   UNL     1      37.461 -26.089 -10.943  0.00  0.00    -0.379 OA
ATOM     27  H   UNL     1      36.553 -26.116 -10.603  0.00  0.00    +0.211 HD
ENDBRANCH   8  26
BRANCH  10  28
ATOM     28  C   UNL     1      35.789 -23.588 -10.753  0.00  0.00    +0.169 C 
BRANCH  28  29
ATOM     29  O   UNL     1      35.458 -24.579  -9.797  0.00  0.00    -0.379 OA
ATOM     30  H   UNL     1      36.069 -24.519  -9.045  0.00  0.00    +0.211 HD
ENDBRANCH  28  29
ENDBRANCH  10  28
TORSDOF 6
ENDMDL
MODEL 2
REMARK VINA RESULT:     -11.6      1.422      2.752
REMARK  Name = 46937156
REMARK  6 active torsions:
REMARK  status: ('A' for Active; 'I' for Inactive)
REMARK    1  A    between atoms: C_5  and  O_22
REMARK    2  A    between atoms: C_7  and  O_24
REMARK    3  A    between atoms: C_8  and  O_26
REMARK    4  A    between atoms: C_9  and  C_12
REMARK    5  A    between atoms: C_10  and  C_28
REMARK    6  A    between atoms: C_28  and  O_29
REMARK                            x       y       z     vdW  Elec       q    Type
REMARK                         _______ _______ _______ _____ _____    ______ ____
ROOT
ATOM      1  O   UNL     1      37.239 -24.049 -14.895  0.00  0.00    -0.328 OA
ATOM      2  O   UNL     1      36.804 -21.766 -14.390  0.00  0.00    -0.260 OA
ATOM      3  N   UNL     1      36.941 -20.965 -15.609  0.00  0.00    -0.184 NA
ATOM      4  C   UNL     1      36.232 -23.039 -14.733  0.00  0.00    +0.234 C 
ATOM      5  C   UNL     1      35.228 -23.486 -13.664  0.00  0.00    +0.193 C 
ATOM      6  C   UNL     1      35.580 -22.807 -16.085  0.00  0.00    +0.083 C 
ATOM      7  C   UNL     1      35.932 -23.804 -12.346  0.00  0.00    +0.171 C 
ATOM      8  C   UNL     1      37.088 -24.779 -12.572  0.00  0.00    +0.169 C 
ATOM      9  C   UNL     1      36.557 -21.840 -16.723  0.00  0.00    +0.107 C 
ATOM     10  C   UNL     1      37.998 -24.298 -13.707  0.00  0.00    +0.176 C 
ATOM     11  H   UNL     1      37.907 -20.655 -15.721  0.00  0.00    +0.155 HD
ENDROOT
BRANCH   9  12
ATOM     12  C   UNL     1      35.990 -21.087 -17.903  0.00  0.00    -0.006 C 
ATOM     13  C   UNL     1      36.807 -20.230 -18.641  0.00  0.00    -0.003 C 
ATOM     14  C   UNL     1      34.652 -21.247 -18.252  0.00  0.00    -0.003 C 
ATOM     15  C   UNL     1      36.295 -19.522 -19.741  0.00  0.00    -0.000 C 
ATOM     16  C   UNL     1      34.127 -20.551 -19.341  0.00  0.00    -0.000 C 
ATOM     17  C   UNL     1      34.935 -19.685 -20.096  0.00  0.00    -0.000 C 
ATOM     18  C   UNL     1      37.102 -18.656 -20.494  0.00  0.00    -0.000 C 
ATOM     19  C   UNL     1      34.422 -18.976 -21.195  0.00  0.00    -0.000 C 
ATOM     20  C   UNL     1      36.577 -17.959 -21.583  0.00  0.00    -0.000 C 
ATOM     21  C   UNL     1      35.240 -18.120 -21.933  0.00  0.00    -0.000 C 
ENDBRANCH   9  12
BRANCH   5  22
ATOM     22  O   UNL     1      34.258 -22.465 -13.447  0.00  0.00    -0.378 OA
ATOM     23  H   UNL     1      34.598 -21.620 -13.781  0.00  0.00    +0.211 HD
ENDBRANCH   5  22
BRANCH   7  24
ATOM     24  O   UNL     1      34.982 -24.403 -11.462  0.00  0.00    -0.379 OA
ATOM     25  H   UNL     1      34.638 -23.729 -10.853  0.00  0.00    +0.211 HD
ENDBRANCH   7  24
BRANCH   8  26
ATOM     26  O   UNL     1      37.823 -24.881 -11.356  0.00  0.00    -0.379 OA
ATOM     27  H   UNL     1      38.513 -25.557 -11.450  0.00  0.00    +0.211 HD
ENDBRANCH   8  26
BRANCH  10  28
ATOM     28  C   UNL     1      39.061 -25.331 -14.067  0.00  0.00    +0.169 C 
BRANCH  28  29
ATOM     29  O   UNL     1      38.513 -26.624 -13.889  0.00  0.00    -0.379 OA
ATOM     30  H   UNL     1      38.900 -27.033 -13.099  0.00  0.00    +0.211 HD
ENDBRANCH  28  29
ENDBRANCH  10  28
TORSDOF 6
ENDMDL
MODEL 3
REMARK VINA RESULT:     -11.5      0.625      1.557
REMARK  Name = 46937156
REMARK  6 active torsions:
REMARK  status: ('A' for Active; 'I' for Inactive)
REMARK    1  A    between atoms: C_5  and  O_22
REMARK    2  A    between atoms: C_7  and  O_24
REMARK    3  A    between atoms: C_8  and  O_26
REMARK    4  A    between atoms: C_9  and  C_12
REMARK    5  A    between atoms: C_10  and  C_28
REMARK    6  A    between atoms: C_28  and  O_29
REMARK                            x       y       z     vdW  Elec       q    Type
REMARK                         _______ _______ _______ _____ _____    ______ ____
ROOT
ATOM      1  O   UNL     1      36.638 -23.133 -13.069  0.00  0.00    -0.328 OA
ATOM      2  O   UNL     1      36.129 -24.495 -14.952  0.00  0.00    -0.260 OA
ATOM      3  N   UNL     1      35.359 -23.712 -15.923  0.00  0.00    -0.184 NA
ATOM      4  C   UNL     1      37.101 -23.637 -14.331  0.00  0.00    +0.234 C 
ATOM      5  C   UNL     1      38.427 -24.381 -14.129  0.00  0.00    +0.193 C 
ATOM      6  C   UNL     1      37.232 -22.462 -15.286  0.00  0.00    +0.083 C 
ATOM      7  C   UNL     1      38.281 -25.493 -13.091  0.00  0.00    +0.171 C 
ATOM      8  C   UNL     1      37.658 -24.952 -11.803  0.00  0.00    +0.169 C 
ATOM      9  C   UNL     1      35.805 -22.321 -15.778  0.00  0.00    +0.107 C 
ATOM     10  C   UNL     1      36.383 -24.156 -12.102  0.00  0.00    +0.176 C 
ATOM     11  H   UNL     1      34.361 -23.785 -15.723  0.00  0.00    +0.155 HD
ENDROOT
BRANCH   9  12
ATOM     12  C   UNL     1      35.674 -21.519 -17.050  0.00  0.00    -0.006 C 
ATOM     13  C   UNL     1      34.422 -21.347 -17.641  0.00  0.00    -0.003 C 
ATOM     14  C   UNL     1      36.804 -20.952 -17.634  0.00  0.00    -0.003 C 
ATOM     15  C   UNL     1      34.283 -20.604 -18.824  0.00  0.00    -0.000 C 
ATOM     16  C   UNL     1      36.685 -20.212 -18.810  0.00  0.00    -0.000 C 
ATOM     17  C   UNL     1      35.432 -20.028 -19.418  0.00  0.00    -0.000 C 
ATOM     18  C   UNL     1      33.031 -20.422 -19.432  0.00  0.00    -0.000 C 
ATOM     19  C   UNL     1      35.293 -19.286 -20.602  0.00  0.00    -0.000 C 
ATOM     20  C   UNL     1      32.912 -19.681 -20.608  0.00  0.00    -0.000 C 
ATOM     21  C   UNL     1      34.040 -19.114 -21.192  0.00  0.00    -0.000 C 
ENDBRANCH   9  12
BRANCH   5  22
ATOM     22  O   UNL     1      38.866 -24.942 -15.362  0.00  0.00    -0.378 OA
ATOM     23  H   UNL     1      38.249 -25.638 -15.640  0.00  0.00    +0.211 HD
ENDBRANCH   5  22
BRANCH   7  24
ATOM     24  O   UNL     1      39.581 -26.009 -12.800  0.00  0.00    -0.379 OA
ATOM     25  H   UNL     1      39.497 -26.806 -12.251  0.00  0.00    +0.211 HD
ENDBRANCH   7  24
BRANCH   8  26
ATOM     26  O   UNL     1      37.365 -26.059 -10.955  0.00  0.00    -0.379 OA
ATOM     27  H   UNL     1      37.161 -26.837 -11.498  0.00  0.00    +0.211 HD
ENDBRANCH   8  26
BRANCH  10  28
ATOM     28  C   UNL     1      35.833 -23.465 -10.858  0.00  0.00    +0.169 C 
BRANCH  28  29
ATOM     29  O   UNL     1      35.559 -24.450  -9.879  0.00  0.00    -0.379 OA
ATOM     30  H   UNL     1      36.234 -24.412  -9.184  0.00  0.00    +0.211 HD
ENDBRANCH  28  29
ENDBRANCH  10  28
TORSDOF 6
ENDMDL
MODEL 4
REMARK VINA RESULT:     -10.1      3.250      4.933
REMARK  Name = 46937156
REMARK  6 active torsions:
REMARK  status: ('A' for Active; 'I' for Inactive)
REMARK    1  A    between atoms: C_5  and  O_22
REMARK    2  A    between atoms: C_7  and  O_24
REMARK    3  A    between atoms: C_8  and  O_26
REMARK    4  A    between atoms: C_9  and  C_12
REMARK    5  A    between atoms: C_10  and  C_28
REMARK    6  A    between atoms: C_28  and  O_29
REMARK                            x       y       z     vdW  Elec       q    Type
REMARK                         _______ _______ _______ _____ _____    ______ ____
ROOT
ATOM      1  O   UNL     1      31.460 -22.531 -15.967  0.00  0.00    -0.328 OA
ATOM      2  O   UNL     1      33.259 -23.848 -16.795  0.00  0.00    -0.260 OA
ATOM      3  N   UNL     1      33.782 -23.239 -18.021  0.00  0.00    -0.184 NA
ATOM      4  C   UNL     1      32.867 -22.804 -15.889  0.00  0.00    +0.234 C 
ATOM      5  C   UNL     1      33.236 -23.173 -14.447  0.00  0.00    +0.193 C 
ATOM      6  C   UNL     1      33.611 -21.575 -16.384  0.00  0.00    +0.083 C 
ATOM      7  C   UNL     1      32.400 -24.352 -13.949  0.00  0.00    +0.171 C 
ATOM      8  C   UNL     1      30.909 -24.088 -14.171  0.00  0.00    +0.169 C 
ATOM      9  C   UNL     1      33.574 -21.792 -17.884  0.00  0.00    +0.107 C 
ATOM     10  C   UNL     1      30.638 -23.649 -15.614  0.00  0.00    +0.176 C 
ATOM     11  H   UNL     1      33.278 -23.592 -18.834  0.00  0.00    +0.155 HD
ENDROOT
BRANCH   9  12
ATOM     12  C   UNL     1      34.585 -20.970 -18.646  0.00  0.00    -0.006 C 
ATOM     13  C   UNL     1      34.166 -20.130 -19.678  0.00  0.00    -0.003 C 
ATOM     14  C   UNL     1      35.936 -21.053 -18.319  0.00  0.00    -0.003 C 
ATOM     15  C   UNL     1      35.096 -19.360 -20.397  0.00  0.00    -0.000 C 
ATOM     16  C   UNL     1      36.872 -20.296 -19.023  0.00  0.00    -0.000 C 
ATOM     17  C   UNL     1      36.469 -19.445 -20.064  0.00  0.00    -0.000 C 
ATOM     18  C   UNL     1      34.692 -18.510 -21.438  0.00  0.00    -0.000 C 
ATOM     19  C   UNL     1      37.398 -18.675 -20.784  0.00  0.00    -0.000 C 
ATOM     20  C   UNL     1      35.628 -17.752 -22.142  0.00  0.00    -0.000 C 
ATOM     21  C   UNL     1      36.978 -17.834 -21.816  0.00  0.00    -0.000 C 
ENDBRANCH   9  12
BRANCH   5  22
ATOM     22  O   UNL     1      34.618 -23.509 -14.367  0.00  0.00    -0.378 OA
ATOM     23  H   UNL     1      34.727 -24.465 -14.488  0.00  0.00    +0.211 HD
ENDBRANCH   5  22
BRANCH   7  24
ATOM     24  O   UNL     1      32.642 -24.515 -12.551  0.00  0.00    -0.379 OA
ATOM     25  H   UNL     1      33.437 -24.017 -12.300  0.00  0.00    +0.211 HD
ENDBRANCH   7  24
BRANCH   8  26
ATOM     26  O   UNL     1      30.201 -25.288 -13.876  0.00  0.00    -0.379 OA
ATOM     27  H   UNL     1      30.797 -26.048 -13.968  0.00  0.00    +0.211 HD
ENDBRANCH   8  26
BRANCH  10  28
ATOM     28  C   UNL     1      29.189 -23.219 -15.820  0.00  0.00    +0.169 C 
BRANCH  28  29
ATOM     29  O   UNL     1      29.181 -21.954 -16.456  0.00  0.00    -0.379 OA
ATOM     30  H   UNL     1      28.573 -21.976 -17.212  0.00  0.00    +0.211 HD
ENDBRANCH  28  29
ENDBRANCH  10  28
TORSDOF 6
ENDMDL
MODEL 5
REMARK VINA RESULT:      -9.9      3.101      5.228
REMARK  Name = 46937156
REMARK  6 active torsions:
REMARK  status: ('A' for Active; 'I' for Inactive)
REMARK    1  A    between atoms: C_5  and  O_22
REMARK    2  A    between atoms: C_7  and  O_24
REMARK    3  A    between atoms: C_8  and  O_26
REMARK    4  A    between atoms: C_9  and  C_12
REMARK    5  A    between atoms: C_10  and  C_28
REMARK    6  A    between atoms: C_28  and  O_29
REMARK                            x       y       z     vdW  Elec       q    Type
REMARK                         _______ _______ _______ _____ _____    ______ ____
ROOT
ATOM      1  O   UNL     1      37.374 -24.650 -14.147  0.00  0.00    -0.328 OA
ATOM      2  O   UNL     1      36.885 -22.337 -14.408  0.00  0.00    -0.260 OA
ATOM      3  N   UNL     1      35.736 -22.182 -15.305  0.00  0.00    -0.184 NA
ATOM      4  C   UNL     1      36.690 -23.511 -13.603  0.00  0.00    +0.234 C 
ATOM      5  C   UNL     1      37.168 -23.267 -12.166  0.00  0.00    +0.193 C 
ATOM      6  C   UNL     1      35.196 -23.779 -13.683  0.00  0.00    +0.083 C 
ATOM      7  C   UNL     1      38.686 -23.098 -12.113  0.00  0.00    +0.171 C 
ATOM      8  C   UNL     1      39.384 -24.261 -12.821  0.00  0.00    +0.169 C 
ATOM      9  C   UNL     1      34.899 -23.372 -15.112  0.00  0.00    +0.107 C 
ATOM     10  C   UNL     1      38.794 -24.487 -14.216  0.00  0.00    +0.176 C 
ATOM     11  H   UNL     1      36.050 -22.125 -16.274  0.00  0.00    +0.155 HD
ENDROOT
BRANCH   9  12
ATOM     12  C   UNL     1      33.435 -23.120 -15.384  0.00  0.00    -0.006 C 
ATOM     13  C   UNL     1      32.463 -23.735 -14.594  0.00  0.00    -0.003 C 
ATOM     14  C   UNL     1      33.057 -22.276 -16.424  0.00  0.00    -0.003 C 
ATOM     15  C   UNL     1      31.097 -23.511 -14.836  0.00  0.00    -0.000 C 
ATOM     16  C   UNL     1      31.705 -22.043 -16.678  0.00  0.00    -0.000 C 
ATOM     17  C   UNL     1      30.713 -22.653 -15.893  0.00  0.00    -0.000 C 
ATOM     18  C   UNL     1      30.106 -24.121 -14.051  0.00  0.00    -0.000 C 
ATOM     19  C   UNL     1      29.348 -22.430 -16.135  0.00  0.00    -0.000 C 
ATOM     20  C   UNL     1      28.754 -23.889 -14.305  0.00  0.00    -0.000 C 
ATOM     21  C   UNL     1      28.375 -23.045 -15.345  0.00  0.00    -0.000 C 
ENDBRANCH   9  12
BRANCH   5  22
ATOM     22  O   UNL     1      36.545 -22.101 -11.635  0.00  0.00    -0.378 OA
ATOM     23  H   UNL     1      35.722 -22.350 -11.185  0.00  0.00    +0.211 HD
ENDBRANCH   5  22
BRANCH   7  24
ATOM     24  O   UNL     1      39.087 -23.078 -10.741  0.00  0.00    -0.379 OA
ATOM     25  H   UNL     1      38.465 -22.535 -10.231  0.00  0.00    +0.211 HD
ENDBRANCH   7  24
BRANCH   8  26
ATOM     26  O   UNL     1      40.771 -23.951 -12.912  0.00  0.00    -0.379 OA
ATOM     27  H   UNL     1      41.207 -24.167 -12.073  0.00  0.00    +0.211 HD
ENDBRANCH   8  26
BRANCH  10  28
ATOM     28  C   UNL     1      39.354 -25.742 -14.880  0.00  0.00    +0.169 C 
BRANCH  28  29
ATOM     29  O   UNL     1      40.564 -25.405 -15.532  0.00  0.00    -0.379 OA
ATOM     30  H   UNL     1      41.281 -25.358 -14.879  0.00  0.00    +0.211 HD
ENDBRANCH  28  29
ENDBRANCH  10  28
TORSDOF 6
ENDMDL
