MODEL 1
REMARK VINA RESULT:     -11.8      0.000      0.000
REMARK  Name = 24905142
REMARK  2 active torsions:
REMARK  status: ('A' for Active; 'I' for Inactive)
REMARK    1  A    between atoms: N_1  and  C_20
REMARK    2  A    between atoms: C_7  and  C_12
REMARK                            x       y       z     vdW  Elec       q    Type
REMARK                         _______ _______ _______ _____ _____    ______ ____
ROOT
ATOM      1  N   UNL     1      33.803 -22.206 -17.373  0.00  0.00    -0.200 N 
ATOM      2  N   UNL     1      34.949 -22.555 -16.758  0.00  0.00    -0.181 NA
ATOM      3  N   UNL     1      31.427 -22.075 -16.923  0.00  0.00    -0.232 NA
ATOM      4  N   UNL     1      30.897 -22.795 -14.654  0.00  0.00    -0.234 NA
ATOM      5  C   UNL     1      32.698 -22.344 -16.586  0.00  0.00    +0.137 C 
ATOM      6  C   UNL     1      33.154 -22.819 -15.369  0.00  0.00    +0.150 C 
ATOM      7  C   UNL     1      34.547 -22.928 -15.538  0.00  0.00    +0.091 C 
ATOM      8  C   UNL     1      32.201 -23.045 -14.382  0.00  0.00    +0.112 C 
ATOM      9  C   UNL     1      30.596 -22.332 -15.891  0.00  0.00    +0.252 C 
ATOM     10  N   UNL     1      32.565 -23.527 -13.111  0.00  0.00    -0.346 N 
ATOM     11  H   UNL     1      31.874 -23.681 -12.426  0.00  0.00    +0.143 HD
ATOM     12  H   UNL     1      33.510 -23.710 -12.906  0.00  0.00    +0.143 HD
ENDROOT
BRANCH   7  15
ATOM     13  N   UNL     1      36.844 -25.230 -13.710  0.00  0.00    -0.229 NA
ATOM     14  N   UNL     1      38.238 -24.613 -11.845  0.00  0.00    -0.297 N 
ATOM     15  C   UNL     1      35.511 -23.377 -14.576  0.00  0.00    +0.035 C 
ATOM     16  C   UNL     1      36.033 -22.493 -13.633  0.00  0.00    +0.006 C 
ATOM     17  C   UNL     1      35.942 -24.695 -14.566  0.00  0.00    +0.102 C 
ATOM     18  C   UNL     1      36.974 -22.992 -12.718  0.00  0.00    +0.033 C 
ATOM     19  C   UNL     1      37.317 -24.337 -12.821  0.00  0.00    +0.132 C 
ATOM     20  C   UNL     1      37.726 -22.457 -11.638  0.00  0.00    +0.019 C 
ATOM     21  C   UNL     1      38.495 -23.478 -11.121  0.00  0.00    +0.063 C 
ATOM     22  H   UNL     1      38.653 -25.492 -11.689  0.00  0.00    +0.154 HD
ENDBRANCH   7  15
BRANCH   1  23
ATOM     23  C   UNL     1      33.843 -21.717 -18.803  0.00  0.00    +0.098 C 
ATOM     24  C   UNL     1      35.262 -21.462 -19.353  0.00  0.00    +0.022 C 
ATOM     25  C   UNL     1      33.079 -20.395 -18.997  0.00  0.00    +0.022 C 
ATOM     26  C   UNL     1      35.314 -19.977 -19.694  0.00  0.00    +0.002 C 
ATOM     27  C   UNL     1      33.877 -19.637 -20.046  0.00  0.00    +0.002 C 
ENDBRANCH   1  23
TORSDOF 2
ENDMDL
MODEL 2
REMARK VINA RESULT:     -10.9      1.990      6.586
REMARK  Name = 24905142
REMARK  2 active torsions:
REMARK  status: ('A' for Active; 'I' for Inactive)
REMARK    1  A    between atoms: N_1  and  C_20
REMARK    2  A    between atoms: C_7  and  C_12
REMARK                            x       y       z     vdW  Elec       q    Type
REMARK                         _______ _______ _______ _____ _____    ______ ____
ROOT
ATOM      1  N   UNL     1      36.234 -22.617 -14.195  0.00  0.00    -0.200 N 
ATOM      2  N   UNL     1      35.032 -23.052 -13.772  0.00  0.00    -0.181 NA
ATOM      3  N   UNL     1      37.267 -21.664 -16.167  0.00  0.00    -0.232 NA
ATOM      4  N   UNL     1      35.661 -21.385 -17.981  0.00  0.00    -0.234 NA
ATOM      5  C   UNL     1      36.225 -22.156 -15.479  0.00  0.00    +0.137 C 
ATOM      6  C   UNL     1      34.924 -22.299 -15.927  0.00  0.00    +0.150 C 
ATOM      7  C   UNL     1      34.239 -22.856 -14.830  0.00  0.00    +0.091 C 
ATOM      8  C   UNL     1      34.655 -21.892 -17.229  0.00  0.00    +0.112 C 
ATOM      9  C   UNL     1      36.887 -21.304 -17.412  0.00  0.00    +0.252 C 
ATOM     10  N   UNL     1      33.364 -21.997 -17.775  0.00  0.00    -0.346 N 
ATOM     11  H   UNL     1      33.194 -21.702 -18.700  0.00  0.00    +0.143 HD
ATOM     12  H   UNL     1      32.627 -22.363 -17.234  0.00  0.00    +0.143 HD
ENDROOT
BRANCH   7  15
ATOM     13  N   UNL     1      31.168 -24.776 -13.933  0.00  0.00    -0.229 NA
ATOM     14  N   UNL     1      28.920 -24.178 -14.560  0.00  0.00    -0.297 N 
ATOM     15  C   UNL     1      32.850 -23.208 -14.755  0.00  0.00    +0.035 C 
ATOM     16  C   UNL     1      31.884 -22.414 -15.369  0.00  0.00    +0.006 C 
ATOM     17  C   UNL     1      32.444 -24.345 -14.072  0.00  0.00    +0.102 C 
ATOM     18  C   UNL     1      30.542 -22.811 -15.260  0.00  0.00    +0.033 C 
ATOM     19  C   UNL     1      30.275 -23.974 -14.544  0.00  0.00    +0.132 C 
ATOM     20  C   UNL     1      29.293 -22.312 -15.715  0.00  0.00    +0.019 C 
ATOM     21  C   UNL     1      28.313 -23.173 -15.268  0.00  0.00    +0.063 C 
ATOM     22  H   UNL     1      28.455 -24.930 -14.129  0.00  0.00    +0.154 HD
ENDBRANCH   7  15
BRANCH   1  23
ATOM     23  C   UNL     1      37.421 -22.677 -13.261  0.00  0.00    +0.098 C 
ATOM     24  C   UNL     1      38.349 -23.889 -13.482  0.00  0.00    +0.022 C 
ATOM     25  C   UNL     1      37.004 -22.737 -11.780  0.00  0.00    +0.022 C 
ATOM     26  C   UNL     1      38.310 -24.684 -12.181  0.00  0.00    +0.002 C 
ATOM     27  C   UNL     1      38.044 -23.630 -11.122  0.00  0.00    +0.002 C 
ENDBRANCH   1  23
TORSDOF 2
ENDMDL
MODEL 3
REMARK VINA RESULT:     -10.7      9.023     12.397
REMARK  Name = 24905142
REMARK  2 active torsions:
REMARK  status: ('A' for Active; 'I' for Inactive)
REMARK    1  A    between atoms: N_1  and  C_20
REMARK    2  A    between atoms: C_7  and  C_12
REMARK                            x       y       z     vdW  Elec       q    Type
REMARK                         _______ _______ _______ _____ _____    ______ ____
ROOT
ATOM      1  N   UNL     1      33.768 -10.823 -23.145  0.00  0.00    -0.200 N 
ATOM      2  N   UNL     1      34.401 -11.977 -23.426  0.00  0.00    -0.181 NA
ATOM      3  N   UNL     1      32.197  -9.916 -21.542  0.00  0.00    -0.232 NA
ATOM      4  N   UNL     1      31.519 -11.586 -19.899  0.00  0.00    -0.234 NA
ATOM      5  C   UNL     1      32.950 -10.900 -22.057  0.00  0.00    +0.137 C 
ATOM      6  C   UNL     1      33.055 -12.199 -21.592  0.00  0.00    +0.150 C 
ATOM      7  C   UNL     1      33.962 -12.812 -22.477  0.00  0.00    +0.091 C 
ATOM      8  C   UNL     1      32.303 -12.531 -20.470  0.00  0.00    +0.112 C 
ATOM      9  C   UNL     1      31.515 -10.354 -20.462  0.00  0.00    +0.252 C 
ATOM     10  N   UNL     1      32.343 -13.826 -19.922  0.00  0.00    -0.346 N 
ATOM     11  H   UNL     1      31.802 -14.041 -19.127  0.00  0.00    +0.143 HD
ATOM     12  H   UNL     1      32.911 -14.518 -20.332  0.00  0.00    +0.143 HD
ENDROOT
BRANCH   7  15
ATOM     13  N   UNL     1      34.875 -16.214 -23.705  0.00  0.00    -0.229 NA
ATOM     14  N   UNL     1      35.748 -17.998 -22.342  0.00  0.00    -0.297 N 
ATOM     15  C   UNL     1      34.428 -14.168 -22.450  0.00  0.00    +0.035 C 
ATOM     16  C   UNL     1      34.858 -14.745 -21.256  0.00  0.00    +0.006 C 
ATOM     17  C   UNL     1      34.458 -14.930 -23.609  0.00  0.00    +0.102 C 
ATOM     18  C   UNL     1      35.302 -16.076 -21.295  0.00  0.00    +0.033 C 
ATOM     19  C   UNL     1      35.280 -16.724 -22.526  0.00  0.00    +0.132 C 
ATOM     20  C   UNL     1      35.805 -17.009 -20.349  0.00  0.00    +0.019 C 
ATOM     21  C   UNL     1      36.072 -18.182 -21.022  0.00  0.00    +0.063 C 
ATOM     22  H   UNL     1      35.840 -18.676 -23.048  0.00  0.00    +0.154 HD
ENDBRANCH   7  15
BRANCH   1  23
ATOM     23  C   UNL     1      34.009  -9.610 -24.015  0.00  0.00    +0.098 C 
ATOM     24  C   UNL     1      34.741  -9.908 -25.341  0.00  0.00    +0.022 C 
ATOM     25  C   UNL     1      34.852  -8.534 -23.308  0.00  0.00    +0.022 C 
ATOM     26  C   UNL     1      36.045  -9.121 -25.280  0.00  0.00    +0.002 C 
ATOM     27  C   UNL     1      35.705  -7.925 -24.410  0.00  0.00    +0.002 C 
ENDBRANCH   1  23
TORSDOF 2
ENDMDL
MODEL 4
REMARK VINA RESULT:     -10.7      1.655      6.250
REMARK  Name = 24905142
REMARK  2 active torsions:
REMARK  status: ('A' for Active; 'I' for Inactive)
REMARK    1  A    between atoms: N_1  and  C_20
REMARK    2  A    between atoms: C_7  and  C_12
REMARK                            x       y       z     vdW  Elec       q    Type
REMARK                         _______ _______ _______ _____ _____    ______ ____
ROOT
ATOM      1  N   UNL     1      35.203 -23.655 -14.698  0.00  0.00    -0.200 N 
ATOM      2  N   UNL     1      35.555 -22.949 -15.788  0.00  0.00    -0.181 NA
ATOM      3  N   UNL     1      33.217 -24.290 -13.465  0.00  0.00    -0.232 NA
ATOM      4  N   UNL     1      31.195 -23.385 -14.485  0.00  0.00    -0.234 NA
ATOM      5  C   UNL     1      33.858 -23.672 -14.470  0.00  0.00    +0.137 C 
ATOM      6  C   UNL     1      33.290 -22.922 -15.484  0.00  0.00    +0.150 C 
ATOM      7  C   UNL     1      34.386 -22.504 -16.262  0.00  0.00    +0.091 C 
ATOM      8  C   UNL     1      31.906 -22.787 -15.471  0.00  0.00    +0.112 C 
ATOM      9  C   UNL     1      31.885 -24.089 -13.556  0.00  0.00    +0.252 C 
ATOM     10  N   UNL     1      31.235 -22.045 -16.460  0.00  0.00    -0.346 N 
ATOM     11  H   UNL     1      30.254 -21.961 -16.432  0.00  0.00    +0.143 HD
ATOM     12  H   UNL     1      31.745 -21.608 -17.179  0.00  0.00    +0.143 HD
ENDROOT
BRANCH   7  15
ATOM     13  N   UNL     1      33.013 -20.678 -19.211  0.00  0.00    -0.229 NA
ATOM     14  N   UNL     1      34.314 -19.403 -20.788  0.00  0.00    -0.297 N 
ATOM     15  C   UNL     1      34.359 -21.695 -17.446  0.00  0.00    +0.035 C 
ATOM     16  C   UNL     1      35.537 -21.164 -17.967  0.00  0.00    +0.006 C 
ATOM     17  C   UNL     1      33.161 -21.425 -18.093  0.00  0.00    +0.102 C 
ATOM     18  C   UNL     1      35.445 -20.379 -19.128  0.00  0.00    +0.033 C 
ATOM     19  C   UNL     1      34.179 -20.189 -19.674  0.00  0.00    +0.132 C 
ATOM     20  C   UNL     1      36.360 -19.675 -19.956  0.00  0.00    +0.019 C 
ATOM     21  C   UNL     1      35.635 -19.084 -20.968  0.00  0.00    +0.063 C 
ATOM     22  H   UNL     1      33.575 -19.112 -21.369  0.00  0.00    +0.154 HD
ENDBRANCH   7  15
BRANCH   1  23
ATOM     23  C   UNL     1      36.272 -24.331 -13.869  0.00  0.00    +0.098 C 
ATOM     24  C   UNL     1      37.523 -23.465 -13.610  0.00  0.00    +0.022 C 
ATOM     25  C   UNL     1      36.790 -25.627 -14.517  0.00  0.00    +0.022 C 
ATOM     26  C   UNL     1      38.685 -24.214 -14.253  0.00  0.00    +0.002 C 
ATOM     27  C   UNL     1      38.269 -25.671 -14.164  0.00  0.00    +0.002 C 
ENDBRANCH   1  23
TORSDOF 2
ENDMDL
MODEL 5
REMARK VINA RESULT:     -10.6      1.285      3.882
REMARK  Name = 24905142
REMARK  2 active torsions:
REMARK  status: ('A' for Active; 'I' for Inactive)
REMARK    1  A    between atoms: N_1  and  C_20
REMARK    2  A    between atoms: C_7  and  C_12
REMARK                            x       y       z     vdW  Elec       q    Type
REMARK                         _______ _______ _______ _____ _____    ______ ____
ROOT
ATOM      1  N   UNL     1      32.392 -22.920 -16.102  0.00  0.00    -0.200 N 
ATOM      2  N   UNL     1      33.138 -23.430 -15.104  0.00  0.00    -0.181 NA
ATOM      3  N   UNL     1      32.646 -21.582 -18.104  0.00  0.00    -0.232 NA
ATOM      4  N   UNL     1      34.968 -20.930 -18.464  0.00  0.00    -0.234 NA
ATOM      5  C   UNL     1      33.114 -22.204 -17.010  0.00  0.00    +0.137 C 
ATOM      6  C   UNL     1      34.427 -22.248 -16.575  0.00  0.00    +0.150 C 
ATOM      7  C   UNL     1      34.376 -23.018 -15.397  0.00  0.00    +0.091 C 
ATOM      8  C   UNL     1      35.371 -21.581 -17.346  0.00  0.00    +0.112 C 
ATOM      9  C   UNL     1      33.649 -20.971 -18.769  0.00  0.00    +0.252 C 
ATOM     10  N   UNL     1      36.731 -21.568 -16.987  0.00  0.00    -0.346 N 
ATOM     11  H   UNL     1      37.384 -21.088 -17.547  0.00  0.00    +0.143 HD
ATOM     12  H   UNL     1      37.031 -22.039 -16.176  0.00  0.00    +0.143 HD
ENDROOT
BRANCH   7  15
ATOM     13  N   UNL     1      37.183 -25.017 -13.968  0.00  0.00    -0.229 NA
ATOM     14  N   UNL     1      38.551 -24.356 -12.098  0.00  0.00    -0.297 N 
ATOM     15  C   UNL     1      35.468 -23.375 -14.539  0.00  0.00    +0.035 C 
ATOM     16  C   UNL     1      35.871 -22.520 -13.515  0.00  0.00    +0.006 C 
ATOM     17  C   UNL     1      36.142 -24.575 -14.712  0.00  0.00    +0.102 C 
ATOM     18  C   UNL     1      36.947 -22.926 -12.709  0.00  0.00    +0.033 C 
ATOM     19  C   UNL     1      37.533 -24.156 -12.993  0.00  0.00    +0.132 C 
ATOM     20  C   UNL     1      37.651 -22.382 -11.601  0.00  0.00    +0.019 C 
ATOM     21  C   UNL     1      38.632 -23.283 -11.248  0.00  0.00    +0.063 C 
ATOM     22  H   UNL     1      39.135 -25.148 -12.071  0.00  0.00    +0.154 HD
ENDBRANCH   7  15
BRANCH   1  23
ATOM     23  C   UNL     1      30.902 -23.174 -16.124  0.00  0.00    +0.098 C 
ATOM     24  C   UNL     1      30.035 -21.926 -15.853  0.00  0.00    +0.022 C 
ATOM     25  C   UNL     1      30.465 -24.218 -15.080  0.00  0.00    +0.022 C 
ATOM     26  C   UNL     1      29.253 -22.233 -14.582  0.00  0.00    +0.002 C 
ATOM     27  C   UNL     1      29.100 -23.743 -14.607  0.00  0.00    +0.002 C 
ENDBRANCH   1  23
TORSDOF 2
ENDMDL
MODEL 6
REMARK VINA RESULT:     -10.5      1.728      6.362
REMARK  Name = 24905142
REMARK  2 active torsions:
REMARK  status: ('A' for Active; 'I' for Inactive)
REMARK    1  A    between atoms: N_1  and  C_20
REMARK    2  A    between atoms: C_7  and  C_12
REMARK                            x       y       z     vdW  Elec       q    Type
REMARK                         _______ _______ _______ _____ _____    ______ ____
ROOT
ATOM      1  N   UNL     1      35.477 -23.630 -14.404  0.00  0.00    -0.200 N 
ATOM      2  N   UNL     1      36.025 -22.916 -15.405  0.00  0.00    -0.181 NA
ATOM      3  N   UNL     1      33.296 -24.248 -13.551  0.00  0.00    -0.232 NA
ATOM      4  N   UNL     1      31.498 -23.301 -14.899  0.00  0.00    -0.234 NA
ATOM      5  C   UNL     1      34.113 -23.628 -14.417  0.00  0.00    +0.137 C 
ATOM      6  C   UNL     1      33.743 -22.858 -15.505  0.00  0.00    +0.150 C 
ATOM      7  C   UNL     1      34.964 -22.448 -16.072  0.00  0.00    +0.091 C 
ATOM      8  C   UNL     1      32.380 -22.703 -15.735  0.00  0.00    +0.112 C 
ATOM      9  C   UNL     1      32.004 -24.026 -13.873  0.00  0.00    +0.252 C 
ATOM     10  N   UNL     1      31.904 -21.939 -16.816  0.00  0.00    -0.346 N 
ATOM     11  H   UNL     1      30.935 -21.841 -16.961  0.00  0.00    +0.143 HD
ATOM     12  H   UNL     1      32.539 -21.502 -17.429  0.00  0.00    +0.143 HD
ENDROOT
BRANCH   7  15
ATOM     13  N   UNL     1      36.717 -20.352 -18.612  0.00  0.00    -0.229 NA
ATOM     14  N   UNL     1      35.671 -19.300 -20.510  0.00  0.00    -0.297 N 
ATOM     15  C   UNL     1      35.157 -21.625 -17.230  0.00  0.00    +0.035 C 
ATOM     16  C   UNL     1      34.082 -21.303 -18.056  0.00  0.00    +0.006 C 
ATOM     17  C   UNL     1      36.415 -21.134 -17.549  0.00  0.00    +0.102 C 
ATOM     18  C   UNL     1      34.335 -20.493 -19.175  0.00  0.00    +0.033 C 
ATOM     19  C   UNL     1      35.646 -20.070 -19.377  0.00  0.00    +0.132 C 
ATOM     20  C   UNL     1      33.560 -19.949 -20.234  0.00  0.00    +0.019 C 
ATOM     21  C   UNL     1      34.409 -19.221 -21.040  0.00  0.00    +0.063 C 
ATOM     22  H   UNL     1      36.473 -18.871 -20.886  0.00  0.00    +0.154 HD
ENDBRANCH   7  15
BRANCH   1  23
ATOM     23  C   UNL     1      36.374 -24.331 -13.410  0.00  0.00    +0.098 C 
ATOM     24  C   UNL     1      37.604 -23.510 -12.967  0.00  0.00    +0.022 C 
ATOM     25  C   UNL     1      36.933 -25.658 -13.952  0.00  0.00    +0.022 C 
ATOM     26  C   UNL     1      38.820 -24.316 -13.410  0.00  0.00    +0.002 C 
ATOM     27  C   UNL     1      38.335 -25.754 -13.370  0.00  0.00    +0.002 C 
ENDBRANCH   1  23
TORSDOF 2
ENDMDL
MODEL 7
REMARK VINA RESULT:     -10.3     11.259     13.771
REMARK  Name = 24905142
REMARK  2 active torsions:
REMARK  status: ('A' for Active; 'I' for Inactive)
REMARK    1  A    between atoms: N_1  and  C_20
REMARK    2  A    between atoms: C_7  and  C_12
REMARK                            x       y       z     vdW  Elec       q    Type
REMARK                         _______ _______ _______ _____ _____    ______ ____
ROOT
ATOM      1  N   UNL     1      32.818  -9.477 -22.155  0.00  0.00    -0.200 N 
ATOM      2  N   UNL     1      33.437 -10.439 -22.864  0.00  0.00    -0.181 NA
ATOM      3  N   UNL     1      31.562  -9.209 -20.102  0.00  0.00    -0.232 NA
ATOM      4  N   UNL     1      31.316 -11.323 -18.912  0.00  0.00    -0.234 NA
ATOM      5  C   UNL     1      32.243  -9.931 -21.005  0.00  0.00    +0.137 C 
ATOM      6  C   UNL     1      32.505 -11.289 -20.958  0.00  0.00    +0.150 C 
ATOM      7  C   UNL     1      33.243 -11.541 -22.130  0.00  0.00    +0.091 C 
ATOM      8  C   UNL     1      32.015 -11.991 -19.863  0.00  0.00    +0.112 C 
ATOM      9  C   UNL     1      31.136  -9.993 -19.088  0.00  0.00    +0.252 C 
ATOM     10  N   UNL     1      32.229 -13.374 -19.725  0.00  0.00    -0.346 N 
ATOM     11  H   UNL     1      31.872 -13.852 -18.940  0.00  0.00    +0.143 HD
ATOM     12  H   UNL     1      32.736 -13.865 -20.411  0.00  0.00    +0.143 HD
ENDROOT
BRANCH   7  15
ATOM     13  N   UNL     1      35.380 -14.597 -22.214  0.00  0.00    -0.229 NA
ATOM     14  N   UNL     1      35.244 -16.346 -23.865  0.00  0.00    -0.297 N 
ATOM     15  C   UNL     1      33.771 -12.797 -22.578  0.00  0.00    +0.035 C 
ATOM     16  C   UNL     1      33.256 -13.416 -23.714  0.00  0.00    +0.006 C 
ATOM     17  C   UNL     1      34.804 -13.417 -21.888  0.00  0.00    +0.102 C 
ATOM     18  C   UNL     1      33.816 -14.645 -24.101  0.00  0.00    +0.033 C 
ATOM     19  C   UNL     1      34.847 -15.154 -23.318  0.00  0.00    +0.132 C 
ATOM     20  C   UNL     1      33.598 -15.577 -25.151  0.00  0.00    +0.019 C 
ATOM     21  C   UNL     1      34.491 -16.613 -24.979  0.00  0.00    +0.063 C 
ATOM     22  H   UNL     1      35.959 -16.922 -23.512  0.00  0.00    +0.154 HD
ENDBRANCH   7  15
BRANCH   1  23
ATOM     23  C   UNL     1      32.816  -8.055 -22.669  0.00  0.00    +0.098 C 
ATOM     24  C   UNL     1      33.646  -7.067 -21.823  0.00  0.00    +0.022 C 
ATOM     25  C   UNL     1      31.401  -7.455 -22.740  0.00  0.00    +0.022 C 
ATOM     26  C   UNL     1      32.656  -6.027 -21.311  0.00  0.00    +0.002 C 
ATOM     27  C   UNL     1      31.585  -5.987 -22.386  0.00  0.00    +0.002 C 
ENDBRANCH   1  23
TORSDOF 2
ENDMDL
MODEL 8
REMARK VINA RESULT:     -10.2      2.759      6.091
REMARK  Name = 24905142
REMARK  2 active torsions:
REMARK  status: ('A' for Active; 'I' for Inactive)
REMARK    1  A    between atoms: N_1  and  C_20
REMARK    2  A    between atoms: C_7  and  C_12
REMARK                            x       y       z     vdW  Elec       q    Type
REMARK                         _______ _______ _______ _____ _____    ______ ____
ROOT
ATOM      1  N   UNL     1      29.930 -22.868 -15.591  0.00  0.00    -0.200 N 
ATOM      2  N   UNL     1      30.609 -22.305 -16.608  0.00  0.00    -0.181 NA
ATOM      3  N   UNL     1      30.342 -23.948 -13.463  0.00  0.00    -0.232 NA
ATOM      4  N   UNL     1      32.725 -24.081 -12.966  0.00  0.00    -0.234 NA
ATOM      5  C   UNL     1      30.732 -23.341 -14.595  0.00  0.00    +0.137 C 
ATOM      6  C   UNL     1      32.030 -23.069 -14.989  0.00  0.00    +0.150 C 
ATOM      7  C   UNL     1      31.888 -22.431 -16.236  0.00  0.00    +0.091 C 
ATOM      8  C   UNL     1      33.048 -23.461 -14.127  0.00  0.00    +0.112 C 
ATOM      9  C   UNL     1      31.411 -24.283 -12.710  0.00  0.00    +0.252 C 
ATOM     10  N   UNL     1      34.400 -23.228 -14.438  0.00  0.00    -0.346 N 
ATOM     11  H   UNL     1      35.106 -23.515 -13.813  0.00  0.00    +0.143 HD
ATOM     12  H   UNL     1      34.641 -22.778 -15.280  0.00  0.00    +0.143 HD
ENDROOT
BRANCH   7  15
ATOM     13  N   UNL     1      35.313 -21.911 -17.621  0.00  0.00    -0.229 NA
ATOM     14  N   UNL     1      35.853 -20.517 -19.510  0.00  0.00    -0.297 N 
ATOM     15  C   UNL     1      32.930 -21.935 -17.087  0.00  0.00    +0.035 C 
ATOM     16  C   UNL     1      32.634 -21.064 -18.134  0.00  0.00    +0.006 C 
ATOM     17  C   UNL     1      34.250 -22.312 -16.885  0.00  0.00    +0.102 C 
ATOM     18  C   UNL     1      33.697 -20.614 -18.932  0.00  0.00    +0.033 C 
ATOM     19  C   UNL     1      34.973 -21.072 -18.618  0.00  0.00    +0.132 C 
ATOM     20  C   UNL     1      33.834 -19.755 -20.056  0.00  0.00    +0.019 C 
ATOM     21  C   UNL     1      35.171 -19.716 -20.389  0.00  0.00    +0.063 C 
ATOM     22  H   UNL     1      36.825 -20.671 -19.519  0.00  0.00    +0.154 HD
ENDBRANCH   7  15
BRANCH   1  23
ATOM     23  C   UNL     1      28.420 -22.921 -15.642  0.00  0.00    +0.098 C 
ATOM     24  C   UNL     1      27.822 -22.777 -17.058  0.00  0.00    +0.022 C 
ATOM     25  C   UNL     1      27.761 -21.815 -14.798  0.00  0.00    +0.022 C 
ATOM     26  C   UNL     1      26.971 -21.512 -17.021  0.00  0.00    +0.002 C 
ATOM     27  C   UNL     1      26.513 -21.426 -15.576  0.00  0.00    +0.002 C 
ENDBRANCH   1  23
TORSDOF 2
ENDMDL
MODEL 9
REMARK VINA RESULT:      -9.8      1.980      6.535
REMARK  Name = 24905142
REMARK  2 active torsions:
REMARK  status: ('A' for Active; 'I' for Inactive)
REMARK    1  A    between atoms: N_1  and  C_20
REMARK    2  A    between atoms: C_7  and  C_12
REMARK                            x       y       z     vdW  Elec       q    Type
REMARK                         _______ _______ _______ _____ _____    ______ ____
ROOT
ATOM      1  N   UNL     1      37.449 -23.353 -14.054  0.00  0.00    -0.200 N 
ATOM      2  N   UNL     1      37.105 -22.917 -15.280  0.00  0.00    -0.181 NA
ATOM      3  N   UNL     1      36.431 -23.859 -11.916  0.00  0.00    -0.232 NA
ATOM      4  N   UNL     1      34.024 -23.470 -11.949  0.00  0.00    -0.234 NA
ATOM      5  C   UNL     1      36.395 -23.455 -13.196  0.00  0.00    +0.137 C 
ATOM      6  C   UNL     1      35.280 -23.057 -13.912  0.00  0.00    +0.150 C 
ATOM      7  C   UNL     1      35.782 -22.738 -15.187  0.00  0.00    +0.091 C 
ATOM      8  C   UNL     1      34.061 -23.073 -13.244  0.00  0.00    +0.112 C 
ATOM      9  C   UNL     1      35.195 -23.833 -11.374  0.00  0.00    +0.252 C 
ATOM     10  N   UNL     1      32.871 -22.687 -13.886  0.00  0.00    -0.346 N 
ATOM     11  H   UNL     1      32.017 -22.706 -13.394  0.00  0.00    +0.143 HD
ATOM     12  H   UNL     1      32.889 -22.398 -14.827  0.00  0.00    +0.143 HD
ENDROOT
BRANCH   7  15
ATOM     13  N   UNL     1      32.936 -22.277 -17.555  0.00  0.00    -0.229 NA
ATOM     14  N   UNL     1      32.988 -20.923 -19.546  0.00  0.00    -0.297 N 
ATOM     15  C   UNL     1      35.045 -22.268 -16.324  0.00  0.00    +0.035 C 
ATOM     16  C   UNL     1      35.641 -21.413 -17.250  0.00  0.00    +0.006 C 
ATOM     17  C   UNL     1      33.728 -22.655 -16.524  0.00  0.00    +0.102 C 
ATOM     18  C   UNL     1      34.867 -20.988 -18.341  0.00  0.00    +0.033 C 
ATOM     19  C   UNL     1      33.558 -21.453 -18.419  0.00  0.00    +0.132 C 
ATOM     20  C   UNL     1      35.074 -20.150 -19.470  0.00  0.00    +0.019 C 
ATOM     21  C   UNL     1      33.900 -20.129 -20.192  0.00  0.00    +0.063 C 
ATOM     22  H   UNL     1      32.065 -21.087 -19.846  0.00  0.00    +0.154 HD
ENDBRANCH   7  15
BRANCH   1  23
ATOM     23  C   UNL     1      38.897 -23.673 -13.756  0.00  0.00    +0.098 C 
ATOM     24  C   UNL     1      39.819 -23.681 -14.993  0.00  0.00    +0.022 C 
ATOM     25  C   UNL     1      39.072 -25.054 -13.098  0.00  0.00    +0.022 C 
ATOM     26  C   UNL     1      40.365 -25.100 -15.094  0.00  0.00    +0.002 C 
ATOM     27  C   UNL     1      40.385 -25.583 -13.655  0.00  0.00    +0.002 C 
ENDBRANCH   1  23
TORSDOF 2
ENDMDL
