MODEL 1
REMARK VINA RESULT:     -12.0      0.000      0.000
REMARK  Name = 5326929
REMARK  3 active torsions:
REMARK  status: ('A' for Active; 'I' for Inactive)
REMARK    1  A    between atoms: C_7  and  C_21
REMARK    2  A    between atoms: C_21  and  C_22
REMARK    3  A    between atoms: C_22  and  C_23
REMARK                            x       y       z     vdW  Elec       q    Type
REMARK                         _______ _______ _______ _____ _____    ______ ____
ROOT
ATOM      1  O   UNL     1      34.757 -23.511 -11.605  0.00  0.00    -0.209 OA
ATOM      2  N   UNL     1      35.695 -23.147 -15.482  0.00  0.00    -0.275 N 
ATOM      3  N   UNL     1      30.355 -22.547 -14.306  0.00  0.00    -0.315 N 
ATOM      4  N   UNL     1      30.907 -22.349 -16.449  0.00  0.00    -0.316 N 
ATOM      5  N   UNL     1      36.369 -23.530 -13.232  0.00  0.00    -0.302 NA
ATOM      6  N   UNL     1      37.906 -23.519 -15.000  0.00  0.00    -0.320 N 
ATOM      7  C   UNL     1      33.373 -22.741 -16.105  0.00  0.00    +0.007 C 
ATOM      8  C   UNL     1      34.349 -23.003 -15.131  0.00  0.00    +0.060 C 
ATOM      9  C   UNL     1      32.033 -22.604 -15.700  0.00  0.00    +0.056 C 
ATOM     10  C   UNL     1      31.713 -22.732 -14.353  0.00  0.00    +0.060 C 
ATOM     11  C   UNL     1      33.987 -23.125 -13.780  0.00  0.00    +0.109 C 
ATOM     12  C   UNL     1      32.656 -22.992 -13.357  0.00  0.00    +0.029 C 
ATOM     13  C   UNL     1      35.065 -23.404 -12.788  0.00  0.00    +0.208 C 
ATOM     14  C   UNL     1      29.920 -22.322 -15.583  0.00  0.00    +0.182 C 
ATOM     15  C   UNL     1      36.631 -23.403 -14.506  0.00  0.00    +0.248 C 
ATOM     16  H   UNL     1      35.972 -23.066 -16.423  0.00  0.00    +0.156 HD
ATOM     17  H   UNL     1      29.793 -22.572 -13.499  0.00  0.00    +0.148 HD
ATOM     18  H   UNL     1      30.853 -22.216 -17.423  0.00  0.00    +0.148 HD
ATOM     19  H   UNL     1      38.071 -23.419 -15.966  0.00  0.00    +0.146 HD
ATOM     20  H   UNL     1      38.656 -23.703 -14.389  0.00  0.00    +0.146 HD
ENDROOT
BRANCH   7  21
ATOM     21  C   UNL     1      33.752 -22.609 -17.547  0.00  0.00    +0.034 C 
BRANCH  21  22
ATOM     22  C   UNL     1      33.160 -21.365 -18.235  0.00  0.00    +0.031 C 
BRANCH  22  23
ATOM     23  C   UNL     1      34.186 -20.556 -18.989  0.00  0.00    -0.022 C 
ATOM     24  C   UNL     1      33.764 -19.627 -19.928  0.00  0.00    -0.005 C 
ATOM     25  C   UNL     1      35.533 -20.755 -18.730  0.00  0.00    -0.005 C 
ATOM     26  C   UNL     1      36.073 -19.070 -20.375  0.00  0.00    -0.022 C 
ATOM     27  C   UNL     1      34.714 -18.880 -20.625  0.00  0.00    -0.005 C 
ATOM     28  C   UNL     1      36.482 -20.008 -19.426  0.00  0.00    -0.005 C 
ATOM     29  C   UNL     1      37.087 -18.271 -21.119  0.00  0.00    +0.031 C 
ENDBRANCH  22  23
ENDBRANCH  21  22
ENDBRANCH   7  21
TORSDOF 3
ENDMDL
MODEL 2
REMARK VINA RESULT:     -11.8      1.947      4.414
REMARK  Name = 5326929
REMARK  3 active torsions:
REMARK  status: ('A' for Active; 'I' for Inactive)
REMARK    1  A    between atoms: C_7  and  C_21
REMARK    2  A    between atoms: C_21  and  C_22
REMARK    3  A    between atoms: C_22  and  C_23
REMARK                            x       y       z     vdW  Elec       q    Type
REMARK                         _______ _______ _______ _____ _____    ______ ____
ROOT
ATOM      1  O   UNL     1      28.828 -24.990 -13.554  0.00  0.00    -0.209 OA
ATOM      2  N   UNL     1      29.932 -22.481 -16.474  0.00  0.00    -0.275 N 
ATOM      3  N   UNL     1      34.029 -24.298 -13.285  0.00  0.00    -0.315 N 
ATOM      4  N   UNL     1      34.610 -22.905 -14.916  0.00  0.00    -0.316 N 
ATOM      5  N   UNL     1      28.223 -23.682 -15.334  0.00  0.00    -0.302 NA
ATOM      6  N   UNL     1      27.754 -22.307 -17.172  0.00  0.00    -0.320 N 
ATOM      7  C   UNL     1      32.277 -22.594 -15.817  0.00  0.00    +0.007 C 
ATOM      8  C   UNL     1      30.937 -22.971 -15.635  0.00  0.00    +0.060 C 
ATOM      9  C   UNL     1      33.251 -23.116 -14.946  0.00  0.00    +0.056 C 
ATOM     10  C   UNL     1      32.862 -23.986 -13.934  0.00  0.00    +0.060 C 
ATOM     11  C   UNL     1      30.584 -23.853 -14.602  0.00  0.00    +0.109 C 
ATOM     12  C   UNL     1      31.540 -24.383 -13.723  0.00  0.00    +0.029 C 
ATOM     13  C   UNL     1      29.146 -24.219 -14.454  0.00  0.00    +0.208 C 
ATOM     14  C   UNL     1      35.045 -23.627 -13.909  0.00  0.00    +0.182 C 
ATOM     15  C   UNL     1      28.627 -22.868 -16.273  0.00  0.00    +0.248 C 
ATOM     16  H   UNL     1      30.157 -21.861 -17.205  0.00  0.00    +0.156 HD
ATOM     17  H   UNL     1      34.120 -24.897 -12.509  0.00  0.00    +0.148 HD
ATOM     18  H   UNL     1      35.142 -22.336 -15.518  0.00  0.00    +0.148 HD
ATOM     19  H   UNL     1      28.089 -21.696 -17.868  0.00  0.00    +0.146 HD
ATOM     20  H   UNL     1      26.794 -22.515 -17.120  0.00  0.00    +0.146 HD
ENDROOT
BRANCH   7  21
ATOM     21  C   UNL     1      32.661 -21.656 -16.917  0.00  0.00    +0.034 C 
BRANCH  21  22
ATOM     22  C   UNL     1      33.683 -22.244 -17.909  0.00  0.00    +0.031 C 
BRANCH  22  23
ATOM     23  C   UNL     1      34.391 -21.193 -18.728  0.00  0.00    -0.022 C 
ATOM     24  C   UNL     1      33.645 -20.296 -19.477  0.00  0.00    -0.005 C 
ATOM     25  C   UNL     1      35.776 -21.141 -18.716  0.00  0.00    -0.005 C 
ATOM     26  C   UNL     1      35.694 -19.263 -20.232  0.00  0.00    -0.022 C 
ATOM     27  C   UNL     1      34.300 -19.325 -20.234  0.00  0.00    -0.005 C 
ATOM     28  C   UNL     1      36.432 -20.171 -19.473  0.00  0.00    -0.005 C 
ATOM     29  C   UNL     1      36.394 -18.224 -21.040  0.00  0.00    +0.031 C 
ENDBRANCH  22  23
ENDBRANCH  21  22
ENDBRANCH   7  21
TORSDOF 3
ENDMDL
MODEL 3
REMARK VINA RESULT:     -11.6      1.676      2.527
REMARK  Name = 5326929
REMARK  3 active torsions:
REMARK  status: ('A' for Active; 'I' for Inactive)
REMARK    1  A    between atoms: C_7  and  C_21
REMARK    2  A    between atoms: C_21  and  C_22
REMARK    3  A    between atoms: C_22  and  C_23
REMARK                            x       y       z     vdW  Elec       q    Type
REMARK                         _______ _______ _______ _____ _____    ______ ____
ROOT
ATOM      1  O   UNL     1      37.214 -25.684 -11.445  0.00  0.00    -0.209 OA
ATOM      2  N   UNL     1      37.772 -23.612 -14.826  0.00  0.00    -0.275 N 
ATOM      3  N   UNL     1      32.753 -23.170 -12.619  0.00  0.00    -0.315 N 
ATOM      4  N   UNL     1      33.094 -22.030 -14.496  0.00  0.00    -0.316 N 
ATOM      5  N   UNL     1      38.617 -25.073 -13.148  0.00  0.00    -0.302 NA
ATOM      6  N   UNL     1      39.936 -24.362 -14.949  0.00  0.00    -0.320 N 
ATOM      7  C   UNL     1      35.489 -22.755 -14.793  0.00  0.00    +0.007 C 
ATOM      8  C   UNL     1      36.512 -23.533 -14.226  0.00  0.00    +0.060 C 
ATOM      9  C   UNL     1      34.240 -22.708 -14.149  0.00  0.00    +0.056 C 
ATOM     10  C   UNL     1      34.052 -23.430 -12.975  0.00  0.00    +0.060 C 
ATOM     11  C   UNL     1      36.284 -24.247 -13.040  0.00  0.00    +0.109 C 
ATOM     12  C   UNL     1      35.044 -24.214 -12.383  0.00  0.00    +0.029 C 
ATOM     13  C   UNL     1      37.405 -25.057 -12.482  0.00  0.00    +0.208 C 
ATOM     14  C   UNL     1      32.224 -22.329 -13.560  0.00  0.00    +0.182 C 
ATOM     15  C   UNL     1      38.756 -24.382 -14.249  0.00  0.00    +0.248 C 
ATOM     16  H   UNL     1      37.955 -23.120 -15.659  0.00  0.00    +0.156 HD
ATOM     17  H   UNL     1      32.285 -23.525 -11.830  0.00  0.00    +0.148 HD
ATOM     18  H   UNL     1      32.956 -21.448 -15.278  0.00  0.00    +0.148 HD
ATOM     19  H   UNL     1      40.009 -23.831 -15.776  0.00  0.00    +0.146 HD
ATOM     20  H   UNL     1      40.709 -24.878 -14.627  0.00  0.00    +0.146 HD
ENDROOT
BRANCH   7  21
ATOM     21  C   UNL     1      35.726 -21.991 -16.057  0.00  0.00    +0.034 C 
BRANCH  21  22
ATOM     22  C   UNL     1      34.674 -22.253 -17.150  0.00  0.00    +0.031 C 
BRANCH  22  23
ATOM     23  C   UNL     1      34.757 -21.283 -18.302  0.00  0.00    -0.022 C 
ATOM     24  C   UNL     1      36.001 -20.898 -18.780  0.00  0.00    -0.005 C 
ATOM     25  C   UNL     1      33.589 -20.793 -18.865  0.00  0.00    -0.005 C 
ATOM     26  C   UNL     1      34.909 -19.500 -20.420  0.00  0.00    -0.022 C 
ATOM     27  C   UNL     1      36.077 -20.001 -19.845  0.00  0.00    -0.005 C 
ATOM     28  C   UNL     1      33.665 -19.897 -19.930  0.00  0.00    -0.005 C 
ATOM     29  C   UNL     1      34.991 -18.542 -21.560  0.00  0.00    +0.031 C 
ENDBRANCH  22  23
ENDBRANCH  21  22
ENDBRANCH   7  21
TORSDOF 3
ENDMDL
MODEL 4
REMARK VINA RESULT:     -11.5      1.165      4.058
REMARK  Name = 5326929
REMARK  3 active torsions:
REMARK  status: ('A' for Active; 'I' for Inactive)
REMARK    1  A    between atoms: C_7  and  C_21
REMARK    2  A    between atoms: C_21  and  C_22
REMARK    3  A    between atoms: C_22  and  C_23
REMARK                            x       y       z     vdW  Elec       q    Type
REMARK                         _______ _______ _______ _____ _____    ______ ____
ROOT
ATOM      1  O   UNL     1      30.823 -23.396 -12.125  0.00  0.00    -0.209 OA
ATOM      2  N   UNL     1      31.557 -22.502 -15.960  0.00  0.00    -0.275 N 
ATOM      3  N   UNL     1      35.985 -23.860 -12.991  0.00  0.00    -0.315 N 
ATOM      4  N   UNL     1      36.359 -23.360 -15.123  0.00  0.00    -0.316 N 
ATOM      5  N   UNL     1      30.011 -22.759 -14.169  0.00  0.00    -0.302 NA
ATOM      6  N   UNL     1      29.325 -22.114 -16.315  0.00  0.00    -0.320 N 
ATOM      7  C   UNL     1      33.950 -22.890 -15.693  0.00  0.00    +0.007 C 
ATOM      8  C   UNL     1      32.650 -22.854 -15.163  0.00  0.00    +0.060 C 
ATOM      9  C   UNL     1      35.015 -23.250 -14.849  0.00  0.00    +0.056 C 
ATOM     10  C   UNL     1      34.755 -23.560 -13.519  0.00  0.00    +0.060 C 
ATOM     11  C   UNL     1      32.427 -23.173 -13.814  0.00  0.00    +0.109 C 
ATOM     12  C   UNL     1      33.477 -23.534 -12.956  0.00  0.00    +0.029 C 
ATOM     13  C   UNL     1      31.027 -23.118 -13.303  0.00  0.00    +0.208 C 
ATOM     14  C   UNL     1      36.910 -23.726 -13.989  0.00  0.00    +0.182 C 
ATOM     15  C   UNL     1      30.295 -22.475 -15.414  0.00  0.00    +0.248 C 
ATOM     16  H   UNL     1      31.690 -22.274 -16.908  0.00  0.00    +0.156 HD
ATOM     17  H   UNL     1      36.168 -24.124 -12.061  0.00  0.00    +0.148 HD
ATOM     18  H   UNL     1      36.810 -23.198 -15.983  0.00  0.00    +0.148 HD
ATOM     19  H   UNL     1      29.571 -21.906 -17.246  0.00  0.00    +0.146 HD
ATOM     20  H   UNL     1      28.384 -22.061 -16.031  0.00  0.00    +0.146 HD
ENDROOT
BRANCH   7  21
ATOM     21  C   UNL     1      34.195 -22.552 -17.130  0.00  0.00    +0.034 C 
BRANCH  21  22
ATOM     22  C   UNL     1      35.423 -21.652 -17.357  0.00  0.00    +0.031 C 
BRANCH  22  23
ATOM     23  C   UNL     1      35.298 -20.770 -18.575  0.00  0.00    -0.022 C 
ATOM     24  C   UNL     1      36.438 -20.203 -19.125  0.00  0.00    -0.005 C 
ATOM     25  C   UNL     1      34.047 -20.542 -19.125  0.00  0.00    -0.005 C 
ATOM     26  C   UNL     1      35.068 -19.149 -20.813  0.00  0.00    -0.022 C 
ATOM     27  C   UNL     1      36.322 -19.388 -20.251  0.00  0.00    -0.005 C 
ATOM     28  C   UNL     1      33.930 -19.727 -20.250  0.00  0.00    -0.005 C 
ATOM     29  C   UNL     1      34.945 -18.279 -22.017  0.00  0.00    +0.031 C 
ENDBRANCH  22  23
ENDBRANCH  21  22
ENDBRANCH   7  21
TORSDOF 3
ENDMDL
MODEL 5
REMARK VINA RESULT:     -11.1      2.095      4.969
REMARK  Name = 5326929
REMARK  3 active torsions:
REMARK  status: ('A' for Active; 'I' for Inactive)
REMARK    1  A    between atoms: C_7  and  C_21
REMARK    2  A    between atoms: C_21  and  C_22
REMARK    3  A    between atoms: C_22  and  C_23
REMARK                            x       y       z     vdW  Elec       q    Type
REMARK                         _______ _______ _______ _____ _____    ______ ____
ROOT
ATOM      1  O   UNL     1      35.667 -24.709 -10.271  0.00  0.00    -0.209 OA
ATOM      2  N   UNL     1      35.002 -22.739 -13.694  0.00  0.00    -0.275 N 
ATOM      3  N   UNL     1      40.041 -24.885 -13.177  0.00  0.00    -0.315 N 
ATOM      4  N   UNL     1      39.640 -23.787 -15.067  0.00  0.00    -0.316 N 
ATOM      5  N   UNL     1      34.223 -23.509 -11.581  0.00  0.00    -0.302 NA
ATOM      6  N   UNL     1      32.857 -22.272 -13.028  0.00  0.00    -0.320 N 
ATOM      7  C   UNL     1      37.261 -23.179 -14.499  0.00  0.00    +0.007 C 
ATOM      8  C   UNL     1      36.268 -23.303 -13.514  0.00  0.00    +0.060 C 
ATOM      9  C   UNL     1      38.518 -23.766 -14.270  0.00  0.00    +0.056 C 
ATOM     10  C   UNL     1      38.744 -24.449 -13.080  0.00  0.00    +0.060 C 
ATOM     11  C   UNL     1      36.534 -24.001 -12.325  0.00  0.00    +0.109 C 
ATOM     12  C   UNL     1      37.782 -24.591 -12.078  0.00  0.00    +0.029 C 
ATOM     13  C   UNL     1      35.444 -24.101 -11.313  0.00  0.00    +0.208 C 
ATOM     14  C   UNL     1      40.532 -24.464 -14.382  0.00  0.00    +0.182 C 
ATOM     15  C   UNL     1      34.048 -22.876 -12.711  0.00  0.00    +0.248 C 
ATOM     16  H   UNL     1      34.793 -22.246 -14.519  0.00  0.00    +0.156 HD
ATOM     17  H   UNL     1      40.530 -25.406 -12.501  0.00  0.00    +0.148 HD
ATOM     18  H   UNL     1      39.750 -23.381 -15.957  0.00  0.00    +0.148 HD
ATOM     19  H   UNL     1      32.757 -21.802 -13.888  0.00  0.00    +0.146 HD
ATOM     20  H   UNL     1      32.104 -22.307 -12.396  0.00  0.00    +0.146 HD
ENDROOT
BRANCH   7  21
ATOM     21  C   UNL     1      36.984 -22.439 -15.769  0.00  0.00    +0.034 C 
BRANCH  21  22
ATOM     22  C   UNL     1      35.501 -22.445 -16.183  0.00  0.00    +0.031 C 
BRANCH  22  23
ATOM     23  C   UNL     1      35.223 -21.625 -17.419  0.00  0.00    -0.022 C 
ATOM     24  C   UNL     1      36.273 -20.989 -18.064  0.00  0.00    -0.005 C 
ATOM     25  C   UNL     1      33.924 -21.522 -17.889  0.00  0.00    -0.005 C 
ATOM     26  C   UNL     1      34.713 -20.118 -19.689  0.00  0.00    -0.022 C 
ATOM     27  C   UNL     1      36.016 -20.231 -19.206  0.00  0.00    -0.005 C 
ATOM     28  C   UNL     1      33.666 -20.764 -19.031  0.00  0.00    -0.005 C 
ATOM     29  C   UNL     1      34.438 -19.309 -20.911  0.00  0.00    +0.031 C 
ENDBRANCH  22  23
ENDBRANCH  21  22
ENDBRANCH   7  21
TORSDOF 3
ENDMDL
MODEL 6
REMARK VINA RESULT:     -11.0      2.799      5.874
REMARK  Name = 5326929
REMARK  3 active torsions:
REMARK  status: ('A' for Active; 'I' for Inactive)
REMARK    1  A    between atoms: C_7  and  C_21
REMARK    2  A    between atoms: C_21  and  C_22
REMARK    3  A    between atoms: C_22  and  C_23
REMARK                            x       y       z     vdW  Elec       q    Type
REMARK                         _______ _______ _______ _____ _____    ______ ____
ROOT
ATOM      1  O   UNL     1      33.097 -21.958 -18.775  0.00  0.00    -0.209 OA
ATOM      2  N   UNL     1      35.597 -22.047 -15.647  0.00  0.00    -0.275 N 
ATOM      3  N   UNL     1      30.466 -23.721 -14.583  0.00  0.00    -0.315 N 
ATOM      4  N   UNL     1      31.878 -23.761 -12.868  0.00  0.00    -0.316 N 
ATOM      5  N   UNL     1      35.199 -21.584 -17.948  0.00  0.00    -0.302 NA
ATOM      6  N   UNL     1      37.299 -21.253 -16.963  0.00  0.00    -0.320 N 
ATOM      7  C   UNL     1      33.860 -22.893 -14.160  0.00  0.00    +0.007 C 
ATOM      8  C   UNL     1      34.280 -22.463 -15.428  0.00  0.00    +0.060 C 
ATOM      9  C   UNL     1      32.525 -23.302 -13.992  0.00  0.00    +0.056 C 
ATOM     10  C   UNL     1      31.661 -23.269 -15.081  0.00  0.00    +0.060 C 
ATOM     11  C   UNL     1      33.378 -22.444 -16.504  0.00  0.00    +0.109 C 
ATOM     12  C   UNL     1      32.043 -22.847 -16.356  0.00  0.00    +0.029 C 
ATOM     13  C   UNL     1      33.878 -21.977 -17.829  0.00  0.00    +0.208 C 
ATOM     14  C   UNL     1      30.647 -24.001 -13.257  0.00  0.00    +0.182 C 
ATOM     15  C   UNL     1      35.981 -21.630 -16.901  0.00  0.00    +0.248 C 
ATOM     16  H   UNL     1      36.246 -22.051 -14.908  0.00  0.00    +0.156 HD
ATOM     17  H   UNL     1      29.629 -23.825 -15.089  0.00  0.00    +0.148 HD
ATOM     18  H   UNL     1      32.256 -23.881 -11.966  0.00  0.00    +0.148 HD
ATOM     19  H   UNL     1      37.863 -21.298 -16.156  0.00  0.00    +0.146 HD
ATOM     20  H   UNL     1      37.681 -20.936 -17.813  0.00  0.00    +0.146 HD
ENDROOT
BRANCH   7  21
ATOM     21  C   UNL     1      34.816 -22.917 -13.009  0.00  0.00    +0.034 C 
BRANCH  21  22
ATOM     22  C   UNL     1      35.265 -24.333 -12.602  0.00  0.00    +0.031 C 
BRANCH  22  23
ATOM     23  C   UNL     1      36.698 -24.632 -12.967  0.00  0.00    -0.022 C 
ATOM     24  C   UNL     1      36.970 -25.352 -14.120  0.00  0.00    -0.005 C 
ATOM     25  C   UNL     1      37.718 -24.181 -12.144  0.00  0.00    -0.005 C 
ATOM     26  C   UNL     1      39.331 -25.181 -13.638  0.00  0.00    -0.022 C 
ATOM     27  C   UNL     1      38.295 -25.628 -14.457  0.00  0.00    -0.005 C 
ATOM     28  C   UNL     1      39.042 -24.457 -12.481  0.00  0.00    -0.005 C 
ATOM     29  C   UNL     1      40.747 -25.475 -13.999  0.00  0.00    +0.031 C 
ENDBRANCH  22  23
ENDBRANCH  21  22
ENDBRANCH   7  21
TORSDOF 3
ENDMDL
MODEL 7
REMARK VINA RESULT:     -10.7      2.969      6.280
REMARK  Name = 5326929
REMARK  3 active torsions:
REMARK  status: ('A' for Active; 'I' for Inactive)
REMARK    1  A    between atoms: C_7  and  C_21
REMARK    2  A    between atoms: C_21  and  C_22
REMARK    3  A    between atoms: C_22  and  C_23
REMARK                            x       y       z     vdW  Elec       q    Type
REMARK                         _______ _______ _______ _____ _____    ______ ____
ROOT
ATOM      1  O   UNL     1      37.560 -21.005 -16.518  0.00  0.00    -0.209 OA
ATOM      2  N   UNL     1      34.046 -22.875 -16.070  0.00  0.00    -0.275 N 
ATOM      3  N   UNL     1      37.383 -23.100 -11.702  0.00  0.00    -0.315 N 
ATOM      4  N   UNL     1      35.425 -24.127 -11.484  0.00  0.00    -0.316 N 
ATOM      5  N   UNL     1      35.539 -21.600 -17.415  0.00  0.00    -0.302 NA
ATOM      6  N   UNL     1      33.438 -22.278 -18.199  0.00  0.00    -0.320 N 
ATOM      7  C   UNL     1      34.592 -23.564 -13.795  0.00  0.00    +0.007 C 
ATOM      8  C   UNL     1      34.931 -22.904 -14.988  0.00  0.00    +0.060 C 
ATOM      9  C   UNL     1      35.517 -23.562 -12.736  0.00  0.00    +0.056 C 
ATOM     10  C   UNL     1      36.735 -22.911 -12.897  0.00  0.00    +0.060 C 
ATOM     11  C   UNL     1      36.171 -22.258 -15.112  0.00  0.00    +0.109 C 
ATOM     12  C   UNL     1      37.107 -22.246 -14.067  0.00  0.00    +0.029 C 
ATOM     13  C   UNL     1      36.478 -21.573 -16.401  0.00  0.00    +0.208 C 
ATOM     14  C   UNL     1      36.559 -23.832 -10.892  0.00  0.00    +0.182 C 
ATOM     15  C   UNL     1      34.404 -22.222 -17.227  0.00  0.00    +0.248 C 
ATOM     16  H   UNL     1      33.172 -23.322 -16.006  0.00  0.00    +0.156 HD
ATOM     17  H   UNL     1      38.280 -22.768 -11.470  0.00  0.00    +0.148 HD
ATOM     18  H   UNL     1      34.672 -24.642 -11.114  0.00  0.00    +0.148 HD
ATOM     19  H   UNL     1      32.593 -22.755 -18.027  0.00  0.00    +0.146 HD
ATOM     20  H   UNL     1      33.588 -21.843 -19.069  0.00  0.00    +0.146 HD
ENDROOT
BRANCH   7  21
ATOM     21  C   UNL     1      33.272 -24.253 -13.656  0.00  0.00    +0.034 C 
BRANCH  21  22
ATOM     22  C   UNL     1      32.148 -23.344 -13.124  0.00  0.00    +0.031 C 
BRANCH  22  23
ATOM     23  C   UNL     1      30.996 -23.196 -14.087  0.00  0.00    -0.022 C 
ATOM     24  C   UNL     1      29.967 -24.126 -14.066  0.00  0.00    -0.005 C 
ATOM     25  C   UNL     1      30.985 -22.133 -14.976  0.00  0.00    -0.005 C 
ATOM     26  C   UNL     1      28.880 -22.923 -15.857  0.00  0.00    -0.022 C 
ATOM     27  C   UNL     1      28.903 -23.988 -14.957  0.00  0.00    -0.005 C 
ATOM     28  C   UNL     1      29.921 -21.995 -15.866  0.00  0.00    -0.005 C 
ATOM     29  C   UNL     1      27.741 -22.776 -16.808  0.00  0.00    +0.031 C 
ENDBRANCH  22  23
ENDBRANCH  21  22
ENDBRANCH   7  21
TORSDOF 3
ENDMDL
MODEL 8
REMARK VINA RESULT:     -10.7      3.129      6.801
REMARK  Name = 5326929
REMARK  3 active torsions:
REMARK  status: ('A' for Active; 'I' for Inactive)
REMARK    1  A    between atoms: C_7  and  C_21
REMARK    2  A    between atoms: C_21  and  C_22
REMARK    3  A    between atoms: C_22  and  C_23
REMARK                            x       y       z     vdW  Elec       q    Type
REMARK                         _______ _______ _______ _____ _____    ______ ____
ROOT
ATOM      1  O   UNL     1      31.412 -22.937 -16.791  0.00  0.00    -0.209 OA
ATOM      2  N   UNL     1      32.737 -23.497 -13.053  0.00  0.00    -0.275 N 
ATOM      3  N   UNL     1      36.497 -21.626 -16.606  0.00  0.00    -0.315 N 
ATOM      4  N   UNL     1      37.201 -21.945 -14.523  0.00  0.00    -0.316 N 
ATOM      5  N   UNL     1      30.965 -23.582 -14.640  0.00  0.00    -0.302 NA
ATOM      6  N   UNL     1      30.656 -24.210 -12.404  0.00  0.00    -0.320 N 
ATOM      7  C   UNL     1      34.985 -22.755 -13.636  0.00  0.00    +0.007 C 
ATOM      8  C   UNL     1      33.655 -23.022 -13.995  0.00  0.00    +0.060 C 
ATOM      9  C   UNL     1      35.869 -22.278 -14.620  0.00  0.00    +0.056 C 
ATOM     10  C   UNL     1      35.404 -22.086 -15.917  0.00  0.00    +0.060 C 
ATOM     11  C   UNL     1      33.223 -22.815 -15.314  0.00  0.00    +0.109 C 
ATOM     12  C   UNL     1      34.089 -22.341 -16.311  0.00  0.00    +0.029 C 
ATOM     13  C   UNL     1      31.799 -23.116 -15.640  0.00  0.00    +0.208 C 
ATOM     14  C   UNL     1      37.545 -21.560 -15.730  0.00  0.00    +0.182 C 
ATOM     15  C   UNL     1      31.439 -23.750 -13.433  0.00  0.00    +0.248 C 
ATOM     16  H   UNL     1      33.018 -23.649 -12.123  0.00  0.00    +0.156 HD
ATOM     17  H   UNL     1      36.522 -21.387 -17.561  0.00  0.00    +0.148 HD
ATOM     18  H   UNL     1      37.772 -21.988 -13.723  0.00  0.00    +0.148 HD
ATOM     19  H   UNL     1      31.042 -24.326 -11.505  0.00  0.00    +0.146 HD
ATOM     20  H   UNL     1      29.709 -24.424 -12.564  0.00  0.00    +0.146 HD
ENDROOT
BRANCH   7  21
ATOM     21  C   UNL     1      35.453 -22.972 -12.231  0.00  0.00    +0.034 C 
BRANCH  21  22
ATOM     22  C   UNL     1      35.896 -24.418 -11.938  0.00  0.00    +0.031 C 
BRANCH  22  23
ATOM     23  C   UNL     1      37.228 -24.769 -12.554  0.00  0.00    -0.022 C 
ATOM     24  C   UNL     1      38.364 -24.078 -12.160  0.00  0.00    -0.005 C 
ATOM     25  C   UNL     1      37.293 -25.777 -13.503  0.00  0.00    -0.005 C 
ATOM     26  C   UNL     1      39.674 -25.415 -13.687  0.00  0.00    -0.022 C 
ATOM     27  C   UNL     1      39.594 -24.403 -12.730  0.00  0.00    -0.005 C 
ATOM     28  C   UNL     1      38.524 -26.102 -14.073  0.00  0.00    -0.005 C 
ATOM     29  C   UNL     1      40.990 -25.763 -14.295  0.00  0.00    +0.031 C 
ENDBRANCH  22  23
ENDBRANCH  21  22
ENDBRANCH   7  21
TORSDOF 3
ENDMDL
MODEL 9
REMARK VINA RESULT:     -10.5      2.649      6.370
REMARK  Name = 5326929
REMARK  3 active torsions:
REMARK  status: ('A' for Active; 'I' for Inactive)
REMARK    1  A    between atoms: C_7  and  C_21
REMARK    2  A    between atoms: C_21  and  C_22
REMARK    3  A    between atoms: C_22  and  C_23
REMARK                            x       y       z     vdW  Elec       q    Type
REMARK                         _______ _______ _______ _____ _____    ______ ____
ROOT
ATOM      1  O   UNL     1      29.264 -22.297 -16.517  0.00  0.00    -0.209 OA
ATOM      2  N   UNL     1      32.070 -23.390 -13.877  0.00  0.00    -0.275 N 
ATOM      3  N   UNL     1      33.985 -21.217 -18.554  0.00  0.00    -0.315 N 
ATOM      4  N   UNL     1      35.518 -21.832 -17.068  0.00  0.00    -0.316 N 
ATOM      5  N   UNL     1      29.775 -23.200 -14.476  0.00  0.00    -0.302 NA
ATOM      6  N   UNL     1      30.447 -24.101 -12.421  0.00  0.00    -0.320 N 
ATOM      7  C   UNL     1      33.874 -22.665 -15.349  0.00  0.00    +0.007 C 
ATOM      8  C   UNL     1      32.506 -22.832 -15.083  0.00  0.00    +0.060 C 
ATOM      9  C   UNL     1      34.261 -22.098 -16.576  0.00  0.00    +0.056 C 
ATOM     10  C   UNL     1      33.282 -21.721 -17.489  0.00  0.00    +0.060 C 
ATOM     11  C   UNL     1      31.548 -22.439 -16.030  0.00  0.00    +0.109 C 
ATOM     12  C   UNL     1      31.913 -21.872 -17.260  0.00  0.00    +0.029 C 
ATOM     13  C   UNL     1      30.108 -22.639 -15.695  0.00  0.00    +0.208 C 
ATOM     14  C   UNL     1      35.316 -21.306 -18.254  0.00  0.00    +0.182 C 
ATOM     15  C   UNL     1      30.723 -23.542 -13.643  0.00  0.00    +0.248 C 
ATOM     16  H   UNL     1      32.724 -23.674 -13.199  0.00  0.00    +0.156 HD
ATOM     17  H   UNL     1      33.601 -20.857 -19.385  0.00  0.00    +0.148 HD
ATOM     18  H   UNL     1      36.382 -22.001 -16.626  0.00  0.00    +0.148 HD
ATOM     19  H   UNL     1      31.184 -24.349 -11.815  0.00  0.00    +0.146 HD
ATOM     20  H   UNL     1      29.515 -24.256 -12.149  0.00  0.00    +0.146 HD
ENDROOT
BRANCH   7  21
ATOM     21  C   UNL     1      34.901 -23.082 -14.343  0.00  0.00    +0.034 C 
BRANCH  21  22
ATOM     22  C   UNL     1      35.301 -24.566 -14.439  0.00  0.00    +0.031 C 
BRANCH  22  23
ATOM     23  C   UNL     1      36.786 -24.793 -14.293  0.00  0.00    -0.022 C 
ATOM     24  C   UNL     1      37.246 -26.027 -13.858  0.00  0.00    -0.005 C 
ATOM     25  C   UNL     1      37.664 -23.766 -14.598  0.00  0.00    -0.005 C 
ATOM     26  C   UNL     1      39.513 -25.211 -14.025  0.00  0.00    -0.022 C 
ATOM     27  C   UNL     1      38.618 -26.237 -13.724  0.00  0.00    -0.005 C 
ATOM     28  C   UNL     1      39.036 -23.975 -14.463  0.00  0.00    -0.005 C 
ATOM     29  C   UNL     1      40.980 -25.436 -13.883  0.00  0.00    +0.031 C 
ENDBRANCH  22  23
ENDBRANCH  21  22
ENDBRANCH   7  21
TORSDOF 3
ENDMDL
