MODEL 1
REMARK VINA RESULT:     -11.3      0.000      0.000
REMARK  Name = 5288679
REMARK  6 active torsions:
REMARK  status: ('A' for Active; 'I' for Inactive)
REMARK    1  A    between atoms: N_3  and  C_24
REMARK    2  A    between atoms: C_4  and  C_8
REMARK    3  A    between atoms: C_5  and  N_14
REMARK    4  A    between atoms: N_14  and  C_16
REMARK    5  A    between atoms: C_21  and  O_22
REMARK    6  A    between atoms: C_24  and  C_25
REMARK                            x       y       z     vdW  Elec       q    Type
REMARK                         _______ _______ _______ _____ _____    ______ ____
ROOT
ATOM      1  O   UNL     1      31.919 -23.139 -16.819  0.00  0.00    -0.269 OA
ATOM      2  O   UNL     1      33.045 -23.918 -12.433  0.00  0.00    -0.268 OA
ATOM      3  N   UNL     1      32.117 -23.735 -14.570  0.00  0.00    -0.217 N 
ATOM      4  C   UNL     1      33.891 -22.670 -15.537  0.00  0.00    +0.072 C 
ATOM      5  C   UNL     1      34.218 -22.900 -14.256  0.00  0.00    +0.107 C 
ATOM      6  C   UNL     1      32.524 -23.203 -15.762  0.00  0.00    +0.257 C 
ATOM      7  C   UNL     1      33.074 -23.582 -13.606  0.00  0.00    +0.269 C 
ENDROOT
BRANCH   4   8
ATOM      8  C   UNL     1      34.717 -22.032 -16.563  0.00  0.00    +0.006 C 
ATOM      9  C   UNL     1      34.192 -21.782 -17.837  0.00  0.00    +0.000 C 
ATOM     10  C   UNL     1      36.039 -21.668 -16.284  0.00  0.00    +0.000 C 
ATOM     11  C   UNL     1      34.978 -21.175 -18.817  0.00  0.00    +0.000 C 
ATOM     12  C   UNL     1      36.825 -21.062 -17.264  0.00  0.00    +0.000 C 
ATOM     13  C   UNL     1      36.295 -20.814 -18.530  0.00  0.00    +0.000 C 
ENDBRANCH   4   8
BRANCH   5  14
ATOM     14  N   UNL     1      35.339 -22.642 -13.541  0.00  0.00    -0.309 N 
ATOM     15  H   UNL     1      35.335 -21.800 -13.031  0.00  0.00    +0.152 HD
BRANCH  14  16
ATOM     16  C   UNL     1      36.509 -23.415 -13.431  0.00  0.00    +0.049 C 
ATOM     17  C   UNL     1      37.475 -23.093 -12.476  0.00  0.00    +0.018 C 
ATOM     18  C   UNL     1      36.709 -24.508 -14.277  0.00  0.00    +0.018 C 
ATOM     19  C   UNL     1      38.635 -23.859 -12.367  0.00  0.00    +0.038 C 
ATOM     20  C   UNL     1      37.870 -25.275 -14.168  0.00  0.00    +0.038 C 
ATOM     21  C   UNL     1      38.833 -24.949 -13.213  0.00  0.00    +0.139 C 
BRANCH  21  22
ATOM     22  O   UNL     1      39.965 -25.697 -13.107  0.00  0.00    -0.471 OA
ATOM     23  C   UNL     1      40.865 -25.673 -14.213  0.00  0.00    +0.252 C 
ENDBRANCH  21  22
ENDBRANCH  14  16
ENDBRANCH   5  14
BRANCH   3  24
ATOM     24  C   UNL     1      30.824 -24.356 -14.352  0.00  0.00    +0.128 C 
BRANCH  24  25
ATOM     25  C   UNL     1      29.750 -23.482 -14.903  0.00  0.00    -0.002 C 
ATOM     26  C   UNL     1      28.983 -23.915 -15.984  0.00  0.00    -0.003 C 
ATOM     27  C   UNL     1      29.511 -22.228 -14.338  0.00  0.00    -0.003 C 
ATOM     28  C   UNL     1      27.978 -23.098 -16.501  0.00  0.00    -0.000 C 
ATOM     29  C   UNL     1      28.507 -21.410 -14.854  0.00  0.00    -0.000 C 
ATOM     30  C   UNL     1      27.739 -21.844 -15.935  0.00  0.00    -0.000 C 
ENDBRANCH  24  25
ENDBRANCH   3  24
TORSDOF 6
ENDMDL
MODEL 2
REMARK VINA RESULT:     -11.2      2.018      5.391
REMARK  Name = 5288679
REMARK  6 active torsions:
REMARK  status: ('A' for Active; 'I' for Inactive)
REMARK    1  A    between atoms: N_3  and  C_24
REMARK    2  A    between atoms: C_4  and  C_8
REMARK    3  A    between atoms: C_5  and  N_14
REMARK    4  A    between atoms: N_14  and  C_16
REMARK    5  A    between atoms: C_21  and  O_22
REMARK    6  A    between atoms: C_24  and  C_25
REMARK                            x       y       z     vdW  Elec       q    Type
REMARK                         _______ _______ _______ _____ _____    ______ ____
ROOT
ATOM      1  O   UNL     1      33.554 -23.153 -12.854  0.00  0.00    -0.269 OA
ATOM      2  O   UNL     1      31.671 -21.982 -16.879  0.00  0.00    -0.268 OA
ATOM      3  N   UNL     1      32.261 -22.447 -14.666  0.00  0.00    -0.217 N 
ATOM      4  C   UNL     1      34.401 -23.117 -15.099  0.00  0.00    +0.072 C 
ATOM      5  C   UNL     1      33.848 -22.773 -16.272  0.00  0.00    +0.107 C 
ATOM      6  C   UNL     1      33.382 -22.916 -14.039  0.00  0.00    +0.257 C 
ATOM      7  C   UNL     1      32.453 -22.344 -16.015  0.00  0.00    +0.269 C 
ENDROOT
BRANCH   4   8
ATOM      8  C   UNL     1      35.766 -23.587 -14.864  0.00  0.00    +0.006 C 
ATOM      9  C   UNL     1      36.014 -24.941 -14.612  0.00  0.00    +0.000 C 
ATOM     10  C   UNL     1      36.839 -22.688 -14.886  0.00  0.00    +0.000 C 
ATOM     11  C   UNL     1      37.315 -25.391 -14.387  0.00  0.00    +0.000 C 
ATOM     12  C   UNL     1      38.140 -23.137 -14.661  0.00  0.00    +0.000 C 
ATOM     13  C   UNL     1      38.379 -24.488 -14.412  0.00  0.00    +0.000 C 
ENDBRANCH   4   8
BRANCH   5  14
ATOM     14  N   UNL     1      34.336 -22.744 -17.535  0.00  0.00    -0.309 N 
ATOM     15  H   UNL     1      34.447 -23.621 -17.969  0.00  0.00    +0.152 HD
BRANCH  14  16
ATOM     16  C   UNL     1      34.707 -21.630 -18.309  0.00  0.00    +0.049 C 
ATOM     17  C   UNL     1      33.754 -20.969 -19.088  0.00  0.00    +0.018 C 
ATOM     18  C   UNL     1      36.029 -21.180 -18.303  0.00  0.00    +0.018 C 
ATOM     19  C   UNL     1      34.121 -19.864 -19.856  0.00  0.00    +0.038 C 
ATOM     20  C   UNL     1      36.396 -20.074 -19.071  0.00  0.00    +0.038 C 
ATOM     21  C   UNL     1      35.442 -19.417 -19.848  0.00  0.00    +0.139 C 
BRANCH  21  22
ATOM     22  O   UNL     1      35.801 -18.339 -20.597  0.00  0.00    -0.471 OA
ATOM     23  C   UNL     1      35.291 -18.274 -21.928  0.00  0.00    +0.252 C 
ENDBRANCH  21  22
ENDBRANCH  14  16
ENDBRANCH   5  14
BRANCH   3  24
ATOM     24  C   UNL     1      31.018 -22.128 -13.988  0.00  0.00    +0.128 C 
BRANCH  24  25
ATOM     25  C   UNL     1      29.865 -22.535 -14.839  0.00  0.00    -0.002 C 
ATOM     26  C   UNL     1      29.743 -23.858 -15.263  0.00  0.00    -0.003 C 
ATOM     27  C   UNL     1      28.907 -21.592 -15.214  0.00  0.00    -0.003 C 
ATOM     28  C   UNL     1      28.664 -24.240 -16.060  0.00  0.00    -0.000 C 
ATOM     29  C   UNL     1      27.828 -21.973 -16.012  0.00  0.00    -0.000 C 
ATOM     30  C   UNL     1      27.705 -23.297 -16.434  0.00  0.00    -0.000 C 
ENDBRANCH  24  25
ENDBRANCH   3  24
TORSDOF 6
ENDMDL
MODEL 3
REMARK VINA RESULT:     -10.5      2.186      5.553
REMARK  Name = 5288679
REMARK  6 active torsions:
REMARK  status: ('A' for Active; 'I' for Inactive)
REMARK    1  A    between atoms: N_3  and  C_24
REMARK    2  A    between atoms: C_4  and  C_8
REMARK    3  A    between atoms: C_5  and  N_14
REMARK    4  A    between atoms: N_14  and  C_16
REMARK    5  A    between atoms: C_21  and  O_22
REMARK    6  A    between atoms: C_24  and  C_25
REMARK                            x       y       z     vdW  Elec       q    Type
REMARK                         _______ _______ _______ _____ _____    ______ ____
ROOT
ATOM      1  O   UNL     1      32.717 -21.996 -18.843  0.00  0.00    -0.269 OA
ATOM      2  O   UNL     1      37.037 -21.658 -17.313  0.00  0.00    -0.268 OA
ATOM      3  N   UNL     1      35.005 -21.718 -18.466  0.00  0.00    -0.217 N 
ATOM      4  C   UNL     1      33.693 -22.202 -16.661  0.00  0.00    +0.072 C 
ATOM      5  C   UNL     1      34.955 -22.101 -16.217  0.00  0.00    +0.107 C 
ATOM      6  C   UNL     1      33.703 -21.959 -18.125  0.00  0.00    +0.257 C 
ATOM      7  C   UNL     1      35.827 -21.797 -17.376  0.00  0.00    +0.269 C 
ENDROOT
BRANCH   4   8
ATOM      8  C   UNL     1      32.492 -22.476 -15.870  0.00  0.00    +0.006 C 
ATOM      9  C   UNL     1      31.233 -22.087 -16.341  0.00  0.00    +0.000 C 
ATOM     10  C   UNL     1      32.591 -23.128 -14.636  0.00  0.00    +0.000 C 
ATOM     11  C   UNL     1      30.087 -22.348 -15.588  0.00  0.00    +0.000 C 
ATOM     12  C   UNL     1      31.446 -23.388 -13.883  0.00  0.00    +0.000 C 
ATOM     13  C   UNL     1      30.194 -22.999 -14.359  0.00  0.00    +0.000 C 
ENDBRANCH   4   8
BRANCH   5  14
ATOM     14  N   UNL     1      35.497 -22.207 -14.981  0.00  0.00    -0.309 N 
ATOM     15  H   UNL     1      35.164 -21.565 -14.313  0.00  0.00    +0.152 HD
BRANCH  14  16
ATOM     16  C   UNL     1      36.473 -23.111 -14.523  0.00  0.00    +0.049 C 
ATOM     17  C   UNL     1      37.656 -22.636 -13.953  0.00  0.00    +0.018 C 
ATOM     18  C   UNL     1      36.264 -24.486 -14.639  0.00  0.00    +0.018 C 
ATOM     19  C   UNL     1      38.624 -23.531 -13.499  0.00  0.00    +0.038 C 
ATOM     20  C   UNL     1      37.233 -25.383 -14.185  0.00  0.00    +0.038 C 
ATOM     21  C   UNL     1      38.413 -24.905 -13.616  0.00  0.00    +0.139 C 
BRANCH  21  22
ATOM     22  O   UNL     1      39.357 -25.779 -13.174  0.00  0.00    -0.471 OA
ATOM     23  C   UNL     1      40.631 -25.739 -13.815  0.00  0.00    +0.252 C 
ENDBRANCH  21  22
ENDBRANCH  14  16
ENDBRANCH   5  14
BRANCH   3  24
ATOM     24  C   UNL     1      35.458 -21.440 -19.816  0.00  0.00    +0.128 C 
BRANCH  24  25
ATOM     25  C   UNL     1      35.525 -19.967 -20.028  0.00  0.00    -0.002 C 
ATOM     26  C   UNL     1      34.358 -19.241 -20.268  0.00  0.00    -0.003 C 
ATOM     27  C   UNL     1      36.756 -19.310 -19.987  0.00  0.00    -0.003 C 
ATOM     28  C   UNL     1      34.419 -17.862 -20.467  0.00  0.00    -0.000 C 
ATOM     29  C   UNL     1      36.819 -17.931 -20.186  0.00  0.00    -0.000 C 
ATOM     30  C   UNL     1      35.651 -17.206 -20.425  0.00  0.00    -0.000 C 
ENDBRANCH  24  25
ENDBRANCH   3  24
TORSDOF 6
ENDMDL
MODEL 4
REMARK VINA RESULT:     -10.4     10.285     13.720
REMARK  Name = 5288679
REMARK  6 active torsions:
REMARK  status: ('A' for Active; 'I' for Inactive)
REMARK    1  A    between atoms: N_3  and  C_24
REMARK    2  A    between atoms: C_4  and  C_8
REMARK    3  A    between atoms: C_5  and  N_14
REMARK    4  A    between atoms: N_14  and  C_16
REMARK    5  A    between atoms: C_21  and  O_22
REMARK    6  A    between atoms: C_24  and  C_25
REMARK                            x       y       z     vdW  Elec       q    Type
REMARK                         _______ _______ _______ _____ _____    ______ ____
ROOT
ATOM      1  O   UNL     1      35.835 -14.478 -22.759  0.00  0.00    -0.269 OA
ATOM      2  O   UNL     1      32.891 -14.190 -19.243  0.00  0.00    -0.268 OA
ATOM      3  N   UNL     1      34.582 -14.631 -20.795  0.00  0.00    -0.217 N 
ATOM      4  C   UNL     1      33.960 -13.048 -22.319  0.00  0.00    +0.072 C 
ATOM      5  C   UNL     1      33.102 -12.966 -21.290  0.00  0.00    +0.107 C 
ATOM      6  C   UNL     1      34.931 -14.130 -22.018  0.00  0.00    +0.257 C 
ATOM      7  C   UNL     1      33.482 -13.993 -20.292  0.00  0.00    +0.269 C 
ENDROOT
BRANCH   4   8
ATOM      8  C   UNL     1      33.981 -12.222 -23.526  0.00  0.00    +0.006 C 
ATOM      9  C   UNL     1      34.351 -10.874 -23.453  0.00  0.00    +0.000 C 
ATOM     10  C   UNL     1      33.630 -12.770 -24.766  0.00  0.00    +0.000 C 
ATOM     11  C   UNL     1      34.371 -10.085 -24.604  0.00  0.00    +0.000 C 
ATOM     12  C   UNL     1      33.650 -11.980 -25.916  0.00  0.00    +0.000 C 
ATOM     13  C   UNL     1      34.021 -10.639 -25.836  0.00  0.00    +0.000 C 
ENDBRANCH   4   8
BRANCH   5  14
ATOM     14  N   UNL     1      32.052 -12.148 -21.043  0.00  0.00    -0.309 N 
ATOM     15  H   UNL     1      31.175 -12.476 -21.349  0.00  0.00    +0.152 HD
BRANCH  14  16
ATOM     16  C   UNL     1      32.045 -10.892 -20.410  0.00  0.00    +0.049 C 
ATOM     17  C   UNL     1      32.047  -9.722 -21.173  0.00  0.00    +0.018 C 
ATOM     18  C   UNL     1      32.038 -10.809 -19.016  0.00  0.00    +0.018 C 
ATOM     19  C   UNL     1      32.041  -8.476 -20.546  0.00  0.00    +0.038 C 
ATOM     20  C   UNL     1      32.032  -9.562 -18.388  0.00  0.00    +0.038 C 
ATOM     21  C   UNL     1      32.034  -8.396 -19.154  0.00  0.00    +0.139 C 
BRANCH  21  22
ATOM     22  O   UNL     1      32.028  -7.182 -18.541  0.00  0.00    -0.471 OA
ATOM     23  C   UNL     1      32.739  -6.126 -19.185  0.00  0.00    +0.252 C 
ENDBRANCH  21  22
ENDBRANCH  14  16
ENDBRANCH   5  14
BRANCH   3  24
ATOM     24  C   UNL     1      35.275 -15.718 -20.129  0.00  0.00    +0.128 C 
BRANCH  24  25
ATOM     25  C   UNL     1      35.134 -16.966 -20.932  0.00  0.00    -0.002 C 
ATOM     26  C   UNL     1      35.274 -16.924 -22.319  0.00  0.00    -0.003 C 
ATOM     27  C   UNL     1      34.860 -18.178 -20.297  0.00  0.00    -0.003 C 
ATOM     28  C   UNL     1      35.142 -18.091 -23.071  0.00  0.00    -0.000 C 
ATOM     29  C   UNL     1      34.728 -19.346 -21.048  0.00  0.00    -0.000 C 
ATOM     30  C   UNL     1      34.870 -19.303 -22.435  0.00  0.00    -0.000 C 
ENDBRANCH  24  25
ENDBRANCH   3  24
TORSDOF 6
ENDMDL
MODEL 5
REMARK VINA RESULT:     -10.2     11.685     14.330
REMARK  Name = 5288679
REMARK  6 active torsions:
REMARK  status: ('A' for Active; 'I' for Inactive)
REMARK    1  A    between atoms: N_3  and  C_24
REMARK    2  A    between atoms: C_4  and  C_8
REMARK    3  A    between atoms: C_5  and  N_14
REMARK    4  A    between atoms: N_14  and  C_16
REMARK    5  A    between atoms: C_21  and  O_22
REMARK    6  A    between atoms: C_24  and  C_25
REMARK                            x       y       z     vdW  Elec       q    Type
REMARK                         _______ _______ _______ _____ _____    ______ ____
ROOT
ATOM      1  O   UNL     1      32.295  -8.882 -23.135  0.00  0.00    -0.269 OA
ATOM      2  O   UNL     1      32.697 -12.926 -20.990  0.00  0.00    -0.268 OA
ATOM      3  N   UNL     1      32.141 -10.824 -21.847  0.00  0.00    -0.217 N 
ATOM      4  C   UNL     1      33.840 -10.703 -23.369  0.00  0.00    +0.072 C 
ATOM      5  C   UNL     1      33.953 -11.884 -22.742  0.00  0.00    +0.107 C 
ATOM      6  C   UNL     1      32.667  -9.995 -22.798  0.00  0.00    +0.257 C 
ATOM      7  C   UNL     1      32.865 -11.979 -21.740  0.00  0.00    +0.269 C 
ENDROOT
BRANCH   4   8
ATOM      8  C   UNL     1      34.686 -10.183 -24.444  0.00  0.00    +0.006 C 
ATOM      9  C   UNL     1      34.607 -10.727 -25.731  0.00  0.00    +0.000 C 
ATOM     10  C   UNL     1      35.582  -9.137 -24.196  0.00  0.00    +0.000 C 
ATOM     11  C   UNL     1      35.413 -10.232 -26.756  0.00  0.00    +0.000 C 
ATOM     12  C   UNL     1      36.389  -8.642 -25.221  0.00  0.00    +0.000 C 
ATOM     13  C   UNL     1      36.304  -9.189 -26.501  0.00  0.00    +0.000 C 
ENDBRANCH   4   8
BRANCH   5  14
ATOM     14  N   UNL     1      34.822 -12.912 -22.887  0.00  0.00    -0.309 N 
ATOM     15  H   UNL     1      35.734 -12.751 -22.552  0.00  0.00    +0.152 HD
BRANCH  14  16
ATOM     16  C   UNL     1      34.597 -14.180 -23.454  0.00  0.00    +0.049 C 
ATOM     17  C   UNL     1      35.221 -15.309 -22.918  0.00  0.00    +0.018 C 
ATOM     18  C   UNL     1      33.750 -14.315 -24.556  0.00  0.00    +0.018 C 
ATOM     19  C   UNL     1      34.998 -16.565 -23.480  0.00  0.00    +0.038 C 
ATOM     20  C   UNL     1      33.527 -15.572 -25.119  0.00  0.00    +0.038 C 
ATOM     21  C   UNL     1      34.152 -16.697 -24.581  0.00  0.00    +0.139 C 
BRANCH  21  22
ATOM     22  O   UNL     1      33.935 -17.923 -25.130  0.00  0.00    -0.471 OA
ATOM     23  C   UNL     1      32.586 -18.263 -25.447  0.00  0.00    +0.252 C 
ENDBRANCH  21  22
ENDBRANCH  14  16
ENDBRANCH   5  14
BRANCH   3  24
ATOM     24  C   UNL     1      30.981 -10.506 -21.036  0.00  0.00    +0.128 C 
BRANCH  24  25
ATOM     25  C   UNL     1      31.418 -10.144 -19.658  0.00  0.00    -0.002 C 
ATOM     26  C   UNL     1      32.132  -8.967 -19.438  0.00  0.00    -0.003 C 
ATOM     27  C   UNL     1      31.113 -10.984 -18.586  0.00  0.00    -0.003 C 
ATOM     28  C   UNL     1      32.542  -8.627 -18.149  0.00  0.00    -0.000 C 
ATOM     29  C   UNL     1      31.522 -10.646 -17.296  0.00  0.00    -0.000 C 
ATOM     30  C   UNL     1      32.236  -9.467 -17.077  0.00  0.00    -0.000 C 
ENDBRANCH  24  25
ENDBRANCH   3  24
TORSDOF 6
ENDMDL
MODEL 6
REMARK VINA RESULT:     -10.1     12.456     15.370
REMARK  Name = 5288679
REMARK  6 active torsions:
REMARK  status: ('A' for Active; 'I' for Inactive)
REMARK    1  A    between atoms: N_3  and  C_24
REMARK    2  A    between atoms: C_4  and  C_8
REMARK    3  A    between atoms: C_5  and  N_14
REMARK    4  A    between atoms: N_14  and  C_16
REMARK    5  A    between atoms: C_21  and  O_22
REMARK    6  A    between atoms: C_24  and  C_25
REMARK                            x       y       z     vdW  Elec       q    Type
REMARK                         _______ _______ _______ _____ _____    ______ ____
ROOT
ATOM      1  O   UNL     1      32.544  -8.246 -23.771  0.00  0.00    -0.269 OA
ATOM      2  O   UNL     1      32.696 -11.568 -20.599  0.00  0.00    -0.268 OA
ATOM      3  N   UNL     1      32.297  -9.725 -21.981  0.00  0.00    -0.217 N 
ATOM      4  C   UNL     1      33.853 -10.247 -23.569  0.00  0.00    +0.072 C 
ATOM      5  C   UNL     1      33.894 -11.216 -22.642  0.00  0.00    +0.107 C 
ATOM      6  C   UNL     1      32.821  -9.263 -23.156  0.00  0.00    +0.257 C 
ATOM      7  C   UNL     1      32.898 -10.891 -21.595  0.00  0.00    +0.269 C 
ENDROOT
BRANCH   4   8
ATOM      8  C   UNL     1      34.650 -10.154 -24.794  0.00  0.00    +0.006 C 
ATOM      9  C   UNL     1      35.714  -9.249 -24.877  0.00  0.00    +0.000 C 
ATOM     10  C   UNL     1      34.355 -10.968 -25.894  0.00  0.00    +0.000 C 
ATOM     11  C   UNL     1      36.474  -9.159 -26.043  0.00  0.00    +0.000 C 
ATOM     12  C   UNL     1      35.115 -10.877 -27.061  0.00  0.00    +0.000 C 
ATOM     13  C   UNL     1      36.175  -9.974 -27.136  0.00  0.00    +0.000 C 
ENDBRANCH   4   8
BRANCH   5  14
ATOM     14  N   UNL     1      34.629 -12.349 -22.541  0.00  0.00    -0.309 N 
ATOM     15  H   UNL     1      35.379 -12.315 -21.904  0.00  0.00    +0.152 HD
BRANCH  14  16
ATOM     16  C   UNL     1      34.464 -13.567 -23.225  0.00  0.00    +0.049 C 
ATOM     17  C   UNL     1      35.189 -14.695 -22.832  0.00  0.00    +0.018 C 
ATOM     18  C   UNL     1      33.577 -13.654 -24.299  0.00  0.00    +0.018 C 
ATOM     19  C   UNL     1      35.027 -15.903 -23.509  0.00  0.00    +0.038 C 
ATOM     20  C   UNL     1      33.414 -14.863 -24.977  0.00  0.00    +0.038 C 
ATOM     21  C   UNL     1      34.140 -15.987 -24.582  0.00  0.00    +0.139 C 
BRANCH  21  22
ATOM     22  O   UNL     1      33.981 -17.165 -25.244  0.00  0.00    -0.471 OA
ATOM     23  C   UNL     1      34.105 -18.362 -24.478  0.00  0.00    +0.252 C 
ENDBRANCH  21  22
ENDBRANCH  14  16
ENDBRANCH   5  14
BRANCH   3  24
ATOM     24  C   UNL     1      31.257  -9.050 -21.229  0.00  0.00    +0.128 C 
BRANCH  24  25
ATOM     25  C   UNL     1      31.798  -7.787 -20.652  0.00  0.00    -0.002 C 
ATOM     26  C   UNL     1      31.540  -6.566 -21.276  0.00  0.00    -0.003 C 
ATOM     27  C   UNL     1      32.563  -7.824 -19.485  0.00  0.00    -0.003 C 
ATOM     28  C   UNL     1      32.046  -5.384 -20.737  0.00  0.00    -0.000 C 
ATOM     29  C   UNL     1      33.070  -6.641 -18.945  0.00  0.00    -0.000 C 
ATOM     30  C   UNL     1      32.811  -5.421 -19.570  0.00  0.00    -0.000 C 
ENDBRANCH  24  25
ENDBRANCH   3  24
TORSDOF 6
ENDMDL
MODEL 7
REMARK VINA RESULT:     -10.1      9.305     13.190
REMARK  Name = 5288679
REMARK  6 active torsions:
REMARK  status: ('A' for Active; 'I' for Inactive)
REMARK    1  A    between atoms: N_3  and  C_24
REMARK    2  A    between atoms: C_4  and  C_8
REMARK    3  A    between atoms: C_5  and  N_14
REMARK    4  A    between atoms: N_14  and  C_16
REMARK    5  A    between atoms: C_21  and  O_22
REMARK    6  A    between atoms: C_24  and  C_25
REMARK                            x       y       z     vdW  Elec       q    Type
REMARK                         _______ _______ _______ _____ _____    ______ ____
ROOT
ATOM      1  O   UNL     1      35.291 -15.630 -19.505  0.00  0.00    -0.269 OA
ATOM      2  O   UNL     1      35.339 -15.980 -24.086  0.00  0.00    -0.268 OA
ATOM      3  N   UNL     1      35.568 -16.143 -21.766  0.00  0.00    -0.217 N 
ATOM      4  C   UNL     1      34.153 -14.429 -21.242  0.00  0.00    +0.072 C 
ATOM      5  C   UNL     1      34.168 -14.535 -22.580  0.00  0.00    +0.107 C 
ATOM      6  C   UNL     1      35.061 -15.466 -20.692  0.00  0.00    +0.257 C 
ATOM      7  C   UNL     1      35.090 -15.637 -22.942  0.00  0.00    +0.269 C 
ENDROOT
BRANCH   4   8
ATOM      8  C   UNL     1      33.375 -13.489 -20.434  0.00  0.00    +0.006 C 
ATOM      9  C   UNL     1      32.554 -13.957 -19.401  0.00  0.00    +0.000 C 
ATOM     10  C   UNL     1      33.442 -12.114 -20.685  0.00  0.00    +0.000 C 
ATOM     11  C   UNL     1      31.812 -13.062 -18.629  0.00  0.00    +0.000 C 
ATOM     12  C   UNL     1      32.700 -11.219 -19.915  0.00  0.00    +0.000 C 
ATOM     13  C   UNL     1      31.885 -11.692 -18.886  0.00  0.00    +0.000 C 
ENDBRANCH   4   8
BRANCH   5  14
ATOM     14  N   UNL     1      33.513 -13.860 -23.554  0.00  0.00    -0.309 N 
ATOM     15  H   UNL     1      32.668 -14.264 -23.858  0.00  0.00    +0.152 HD
BRANCH  14  16
ATOM     16  C   UNL     1      33.879 -12.660 -24.190  0.00  0.00    +0.049 C 
ATOM     17  C   UNL     1      33.795 -12.550 -25.580  0.00  0.00    +0.018 C 
ATOM     18  C   UNL     1      34.328 -11.574 -23.436  0.00  0.00    +0.018 C 
ATOM     19  C   UNL     1      34.158 -11.361 -26.212  0.00  0.00    +0.038 C 
ATOM     20  C   UNL     1      34.691 -10.384 -24.068  0.00  0.00    +0.038 C 
ATOM     21  C   UNL     1      34.606 -10.278 -25.456  0.00  0.00    +0.139 C 
BRANCH  21  22
ATOM     22  O   UNL     1      34.961  -9.117 -26.071  0.00  0.00    -0.471 OA
ATOM     23  C   UNL     1      36.175  -8.501 -25.647  0.00  0.00    +0.252 C 
ENDBRANCH  21  22
ENDBRANCH  14  16
ENDBRANCH   5  14
BRANCH   3  24
ATOM     24  C   UNL     1      36.512 -17.240 -21.669  0.00  0.00    +0.128 C 
BRANCH  24  25
ATOM     25  C   UNL     1      35.905 -18.354 -20.886  0.00  0.00    -0.002 C 
ATOM     26  C   UNL     1      34.553 -18.662 -21.042  0.00  0.00    -0.003 C 
ATOM     27  C   UNL     1      36.688 -19.090 -19.996  0.00  0.00    -0.003 C 
ATOM     28  C   UNL     1      33.984 -19.704 -20.310  0.00  0.00    -0.000 C 
ATOM     29  C   UNL     1      36.120 -20.132 -19.263  0.00  0.00    -0.000 C 
ATOM     30  C   UNL     1      34.768 -20.440 -19.421  0.00  0.00    -0.000 C 
ENDBRANCH  24  25
ENDBRANCH   3  24
TORSDOF 6
ENDMDL
MODEL 8
REMARK VINA RESULT:      -9.6     14.389     17.653
REMARK  Name = 5288679
REMARK  6 active torsions:
REMARK  status: ('A' for Active; 'I' for Inactive)
REMARK    1  A    between atoms: N_3  and  C_24
REMARK    2  A    between atoms: C_4  and  C_8
REMARK    3  A    between atoms: C_5  and  N_14
REMARK    4  A    between atoms: N_14  and  C_16
REMARK    5  A    between atoms: C_21  and  O_22
REMARK    6  A    between atoms: C_24  and  C_25
REMARK                            x       y       z     vdW  Elec       q    Type
REMARK                         _______ _______ _______ _____ _____    ______ ____
ROOT
ATOM      1  O   UNL     1      31.215  -9.998 -20.840  0.00  0.00    -0.269 OA
ATOM      2  O   UNL     1      34.529 -10.455 -23.990  0.00  0.00    -0.268 OA
ATOM      3  N   UNL     1      32.736 -10.618 -22.499  0.00  0.00    -0.217 N 
ATOM      4  C   UNL     1      32.867  -8.484 -21.696  0.00  0.00    +0.072 C 
ATOM      5  C   UNL     1      33.833  -8.620 -22.618  0.00  0.00    +0.107 C 
ATOM      6  C   UNL     1      32.143  -9.776 -21.601  0.00  0.00    +0.257 C 
ATOM      7  C   UNL     1      33.773 -10.004 -23.145  0.00  0.00    +0.269 C 
ENDROOT
BRANCH   4   8
ATOM      8  C   UNL     1      32.540  -7.286 -20.922  0.00  0.00    +0.006 C 
ATOM      9  C   UNL     1      31.648  -6.337 -21.433  0.00  0.00    +0.000 C 
ATOM     10  C   UNL     1      33.118  -7.076 -19.664  0.00  0.00    +0.000 C 
ATOM     11  C   UNL     1      31.335  -5.194 -20.696  0.00  0.00    +0.000 C 
ATOM     12  C   UNL     1      32.806  -5.933 -18.928  0.00  0.00    +0.000 C 
ATOM     13  C   UNL     1      31.915  -4.992 -19.443  0.00  0.00    +0.000 C 
ENDBRANCH   4   8
BRANCH   5  14
ATOM     14  N   UNL     1      34.755  -7.757 -23.105  0.00  0.00    -0.309 N 
ATOM     15  H   UNL     1      35.646  -7.805 -22.688  0.00  0.00    +0.152 HD
BRANCH  14  16
ATOM     16  C   UNL     1      34.611  -6.800 -24.126  0.00  0.00    +0.049 C 
ATOM     17  C   UNL     1      35.600  -6.662 -25.103  0.00  0.00    +0.018 C 
ATOM     18  C   UNL     1      33.479  -5.983 -24.166  0.00  0.00    +0.018 C 
ATOM     19  C   UNL     1      35.458  -5.713 -26.115  0.00  0.00    +0.038 C 
ATOM     20  C   UNL     1      33.337  -5.033 -25.179  0.00  0.00    +0.038 C 
ATOM     21  C   UNL     1      34.326  -4.898 -26.152  0.00  0.00    +0.139 C 
BRANCH  21  22
ATOM     22  O   UNL     1      34.187  -3.972 -27.139  0.00  0.00    -0.471 OA
ATOM     23  C   UNL     1      33.073  -3.086 -27.046  0.00  0.00    +0.252 C 
ENDBRANCH  21  22
ENDBRANCH  14  16
ENDBRANCH   5  14
BRANCH   3  24
ATOM     24  C   UNL     1      32.335 -11.995 -22.717  0.00  0.00    +0.128 C 
BRANCH  24  25
ATOM     25  C   UNL     1      33.093 -12.889 -21.796  0.00  0.00    -0.002 C 
ATOM     26  C   UNL     1      34.292 -13.467 -22.214  0.00  0.00    -0.003 C 
ATOM     27  C   UNL     1      32.605 -13.149 -20.515  0.00  0.00    -0.003 C 
ATOM     28  C   UNL     1      35.003 -14.303 -21.353  0.00  0.00    -0.000 C 
ATOM     29  C   UNL     1      33.314 -13.986 -19.654  0.00  0.00    -0.000 C 
ATOM     30  C   UNL     1      34.514 -14.562 -20.072  0.00  0.00    -0.000 C 
ENDBRANCH  24  25
ENDBRANCH   3  24
TORSDOF 6
ENDMDL
MODEL 9
REMARK VINA RESULT:      -9.6     14.719     17.691
REMARK  Name = 5288679
REMARK  6 active torsions:
REMARK  status: ('A' for Active; 'I' for Inactive)
REMARK    1  A    between atoms: N_3  and  C_24
REMARK    2  A    between atoms: C_4  and  C_8
REMARK    3  A    between atoms: C_5  and  N_14
REMARK    4  A    between atoms: N_14  and  C_16
REMARK    5  A    between atoms: C_21  and  O_22
REMARK    6  A    between atoms: C_24  and  C_25
REMARK                            x       y       z     vdW  Elec       q    Type
REMARK                         _______ _______ _______ _____ _____    ______ ____
ROOT
ATOM      1  O   UNL     1      30.616  -6.401 -21.784  0.00  0.00    -0.269 OA
ATOM      2  O   UNL     1      33.995  -7.195 -24.796  0.00  0.00    -0.268 OA
ATOM      3  N   UNL     1      32.217  -6.432 -23.483  0.00  0.00    -0.217 N 
ATOM      4  C   UNL     1      32.263  -8.136 -21.963  0.00  0.00    +0.072 C 
ATOM      5  C   UNL     1      33.250  -8.364 -22.843  0.00  0.00    +0.107 C 
ATOM      6  C   UNL     1      31.575  -6.883 -22.364  0.00  0.00    +0.257 C 
ATOM      7  C   UNL     1      33.231  -7.274 -23.847  0.00  0.00    +0.269 C 
ENDROOT
BRANCH   4   8
ATOM      8  C   UNL     1      31.913  -8.941 -20.792  0.00  0.00    +0.006 C 
ATOM      9  C   UNL     1      31.158 -10.110 -20.939  0.00  0.00    +0.000 C 
ATOM     10  C   UNL     1      32.328  -8.549 -19.514  0.00  0.00    +0.000 C 
ATOM     11  C   UNL     1      30.824 -10.879 -19.823  0.00  0.00    +0.000 C 
ATOM     12  C   UNL     1      31.993  -9.317 -18.398  0.00  0.00    +0.000 C 
ATOM     13  C   UNL     1      31.242 -10.482 -18.553  0.00  0.00    +0.000 C 
ENDBRANCH   4   8
BRANCH   5  14
ATOM     14  N   UNL     1      34.184  -9.341 -22.932  0.00  0.00    -0.309 N 
ATOM     15  H   UNL     1      35.066  -9.122 -22.555  0.00  0.00    +0.152 HD
BRANCH  14  16
ATOM     16  C   UNL     1      34.062 -10.626 -23.491  0.00  0.00    +0.049 C 
ATOM     17  C   UNL     1      33.997 -11.748 -22.662  0.00  0.00    +0.018 C 
ATOM     18  C   UNL     1      34.005 -10.785 -24.877  0.00  0.00    +0.018 C 
ATOM     19  C   UNL     1      33.876 -13.022 -23.216  0.00  0.00    +0.038 C 
ATOM     20  C   UNL     1      33.885 -12.060 -25.432  0.00  0.00    +0.038 C 
ATOM     21  C   UNL     1      33.821 -13.178 -24.601  0.00  0.00    +0.139 C 
BRANCH  21  22
ATOM     22  O   UNL     1      33.703 -14.421 -25.142  0.00  0.00    -0.471 OA
ATOM     23  C   UNL     1      34.569 -15.435 -24.635  0.00  0.00    +0.252 C 
ENDBRANCH  21  22
ENDBRANCH  14  16
ENDBRANCH   5  14
BRANCH   3  24
ATOM     24  C   UNL     1      31.850  -5.230 -24.207  0.00  0.00    +0.128 C 
BRANCH  24  25
ATOM     25  C   UNL     1      32.321  -4.031 -23.456  0.00  0.00    -0.002 C 
ATOM     26  C   UNL     1      32.775  -2.908 -24.147  0.00  0.00    -0.003 C 
ATOM     27  C   UNL     1      32.309  -4.033 -22.060  0.00  0.00    -0.003 C 
ATOM     28  C   UNL     1      33.215  -1.786 -23.445  0.00  0.00    -0.000 C 
ATOM     29  C   UNL     1      32.750  -2.911 -21.357  0.00  0.00    -0.000 C 
ATOM     30  C   UNL     1      33.202  -1.787 -22.049  0.00  0.00    -0.000 C 
ENDBRANCH  24  25
ENDBRANCH   3  24
TORSDOF 6
ENDMDL
