MODEL 1
REMARK VINA RESULT:     -12.1      0.000      0.000
REMARK  Name = 24963046
REMARK  6 active torsions:
REMARK  status: ('A' for Active; 'I' for Inactive)
REMARK    1  A    between atoms: N_1  and  C_27
REMARK    2  A    between atoms: C_4  and  C_16
REMARK    3  A    between atoms: C_13  and  C_22
REMARK    4  A    between atoms: N_21  and  C_24
REMARK    5  A    between atoms: C_27  and  C_28
REMARK    6  A    between atoms: C_28  and  N_30
REMARK                            x       y       z     vdW  Elec       q    Type
REMARK                         _______ _______ _______ _____ _____    ______ ____
ROOT
ATOM      1  N   UNL     1      33.790 -12.943 -25.480  0.00  0.00    -0.270 N 
ATOM      2  N   UNL     1      34.330 -13.963 -23.462  0.00  0.00    -0.338 NA
ATOM      3  N   UNL     1      34.194 -15.227 -25.509  0.00  0.00    -0.170 NA
ATOM      4  C   UNL     1      35.322 -17.410 -21.340  0.00  0.00    -0.000 C 
ATOM      5  C   UNL     1      35.094 -17.483 -22.711  0.00  0.00    +0.004 C 
ATOM      6  C   UNL     1      34.758 -16.322 -23.430  0.00  0.00    +0.050 C 
ATOM      7  C   UNL     1      34.119 -14.097 -24.787  0.00  0.00    +0.145 C 
ATOM      8  C   UNL     1      35.218 -16.185 -20.690  0.00  0.00    +0.003 C 
ATOM      9  C   UNL     1      34.650 -15.079 -22.784  0.00  0.00    +0.146 C 
ATOM     10  C   UNL     1      34.885 -15.036 -21.413  0.00  0.00    +0.033 C 
ATOM     11  C   UNL     1      34.517 -16.326 -24.800  0.00  0.00    +0.114 C 
ATOM     12  H   UNL     1      33.632 -13.012 -26.449  0.00  0.00    +0.159 HD
ENDROOT
BRANCH   4  16
ATOM     13  C   UNL     1      34.952 -20.534 -19.334  0.00  0.00    +0.053 C 
ATOM     14  C   UNL     1      34.644 -19.380 -20.055  0.00  0.00    +0.004 C 
ATOM     15  C   UNL     1      36.283 -20.910 -19.155  0.00  0.00    +0.004 C 
ATOM     16  C   UNL     1      35.666 -18.602 -20.596  0.00  0.00    -0.004 C 
ATOM     17  C   UNL     1      36.998 -18.978 -20.417  0.00  0.00    -0.022 C 
ATOM     18  C   UNL     1      37.306 -20.132 -19.697  0.00  0.00    -0.004 C 
ATOM     19  C   UNL     1      38.122 -18.169 -20.983  0.00  0.00    +0.031 C 
BRANCH  13  22
ATOM     20  O   UNL     1      32.786 -21.438 -19.344  0.00  0.00    -0.270 OA
ATOM     21  N   UNL     1      34.151 -21.992 -17.555  0.00  0.00    -0.302 N 
ATOM     22  C   UNL     1      33.886 -21.346 -18.769  0.00  0.00    +0.246 C 
ATOM     23  H   UNL     1      35.043 -21.879 -17.151  0.00  0.00    +0.150 HD
BRANCH  21  24
ATOM     24  C   UNL     1      33.189 -22.810 -16.869  0.00  0.00    +0.072 C 
ATOM     25  C   UNL     1      33.068 -22.778 -15.374  0.00  0.00    +0.021 C 
ATOM     26  C   UNL     1      31.975 -22.207 -16.228  0.00  0.00    +0.021 C 
ENDBRANCH  21  24
ENDBRANCH  13  22
ENDBRANCH   4  16
BRANCH   1  27
ATOM     27  C   UNL     1      33.668 -11.645 -24.861  0.00  0.00    +0.075 C 
BRANCH  27  28
ATOM     28  C   UNL     1      34.530 -10.637 -25.610  0.00  0.00    -0.055 C 
BRANCH  28  30
ATOM     29  O   UNL     1      34.697  -7.685 -22.631  0.00  0.00    -0.358 OA
ATOM     30  N   UNL     1      34.495  -9.339 -24.939  0.00  0.00    +0.391 N 
ATOM     31  C   UNL     1      35.794  -9.036 -24.323  0.00  0.00    -0.045 C 
ATOM     32  C   UNL     1      33.434  -9.306 -23.922  0.00  0.00    -0.045 C 
ATOM     33  C   UNL     1      35.730  -7.684 -23.618  0.00  0.00    +0.119 C 
ATOM     34  C   UNL     1      33.426  -7.946 -23.228  0.00  0.00    +0.119 C 
ATOM     35  H   UNL     1      34.295  -8.628 -25.643  0.00  0.00    -0.079 HD
ENDBRANCH  28  30
ENDBRANCH  27  28
ENDBRANCH   1  27
TORSDOF 6
ENDMDL
MODEL 2
REMARK VINA RESULT:     -11.9      3.325     11.918
REMARK  Name = 24963046
REMARK  6 active torsions:
REMARK  status: ('A' for Active; 'I' for Inactive)
REMARK    1  A    between atoms: N_1  and  C_27
REMARK    2  A    between atoms: C_4  and  C_16
REMARK    3  A    between atoms: C_13  and  C_22
REMARK    4  A    between atoms: N_21  and  C_24
REMARK    5  A    between atoms: C_27  and  C_28
REMARK    6  A    between atoms: C_28  and  N_30
REMARK                            x       y       z     vdW  Elec       q    Type
REMARK                         _______ _______ _______ _____ _____    ______ ____
ROOT
ATOM      1  N   UNL     1      36.080 -21.950 -16.782  0.00  0.00    -0.270 N 
ATOM      2  N   UNL     1      36.604 -20.339 -18.374  0.00  0.00    -0.338 NA
ATOM      3  N   UNL     1      34.384 -21.262 -18.208  0.00  0.00    -0.170 NA
ATOM      4  C   UNL     1      35.411 -17.912 -21.546  0.00  0.00    -0.000 C 
ATOM      5  C   UNL     1      34.493 -18.769 -20.947  0.00  0.00    +0.004 C 
ATOM      6  C   UNL     1      34.892 -19.590 -19.877  0.00  0.00    +0.050 C 
ATOM      7  C   UNL     1      35.669 -21.149 -17.836  0.00  0.00    +0.145 C 
ATOM      8  C   UNL     1      36.721 -17.874 -21.079  0.00  0.00    +0.003 C 
ATOM      9  C   UNL     1      36.212 -19.560 -19.397  0.00  0.00    +0.146 C 
ATOM     10  C   UNL     1      37.109 -18.693 -20.015  0.00  0.00    +0.033 C 
ATOM     11  C   UNL     1      34.024 -20.467 -19.234  0.00  0.00    +0.114 C 
ATOM     12  H   UNL     1      35.417 -22.550 -16.369  0.00  0.00    +0.159 HD
ENDROOT
BRANCH   4  16
ATOM     13  C   UNL     1      34.535 -14.855 -23.497  0.00  0.00    +0.053 C 
ATOM     14  C   UNL     1      34.924 -15.690 -22.449  0.00  0.00    +0.004 C 
ATOM     15  C   UNL     1      34.229 -15.399 -24.744  0.00  0.00    +0.004 C 
ATOM     16  C   UNL     1      35.006 -17.068 -22.648  0.00  0.00    -0.004 C 
ATOM     17  C   UNL     1      34.700 -17.611 -23.896  0.00  0.00    -0.022 C 
ATOM     18  C   UNL     1      34.312 -16.777 -24.945  0.00  0.00    -0.004 C 
ATOM     19  C   UNL     1      34.777 -19.084 -24.148  0.00  0.00    +0.031 C 
BRANCH  13  22
ATOM     20  O   UNL     1      34.765 -12.915 -22.197  0.00  0.00    -0.270 OA
ATOM     21  N   UNL     1      33.980 -12.647 -24.361  0.00  0.00    -0.302 N 
ATOM     22  C   UNL     1      34.449 -13.418 -23.290  0.00  0.00    +0.246 C 
ATOM     23  H   UNL     1      33.746 -13.106 -25.200  0.00  0.00    +0.150 HD
BRANCH  21  24
ATOM     24  C   UNL     1      33.822 -11.220 -24.297  0.00  0.00    +0.072 C 
ATOM     25  C   UNL     1      34.978 -10.298 -24.550  0.00  0.00    +0.021 C 
ATOM     26  C   UNL     1      33.852 -10.380 -25.538  0.00  0.00    +0.021 C 
ENDBRANCH  21  24
ENDBRANCH  13  22
ENDBRANCH   4  16
BRANCH   1  27
ATOM     27  C   UNL     1      37.424 -21.954 -16.255  0.00  0.00    +0.075 C 
BRANCH  27  28
ATOM     28  C   UNL     1      37.410 -22.469 -14.821  0.00  0.00    -0.055 C 
BRANCH  28  30
ATOM     29  O   UNL     1      38.556 -26.246 -13.394  0.00  0.00    -0.358 OA
ATOM     30  N   UNL     1      37.832 -23.868 -14.780  0.00  0.00    +0.391 N 
ATOM     31  C   UNL     1      36.827 -24.696 -14.099  0.00  0.00    -0.045 C 
ATOM     32  C   UNL     1      39.133 -24.001 -14.110  0.00  0.00    -0.045 C 
ATOM     33  C   UNL     1      37.294 -26.147 -14.057  0.00  0.00    +0.119 C 
ATOM     34  C   UNL     1      39.546 -25.469 -14.070  0.00  0.00    +0.119 C 
ATOM     35  H   UNL     1      37.925 -24.194 -15.742  0.00  0.00    -0.079 HD
ENDBRANCH  28  30
ENDBRANCH  27  28
ENDBRANCH   1  27
TORSDOF 6
ENDMDL
MODEL 3
REMARK VINA RESULT:     -11.7      3.528      6.740
REMARK  Name = 24963046
REMARK  6 active torsions:
REMARK  status: ('A' for Active; 'I' for Inactive)
REMARK    1  A    between atoms: N_1  and  C_27
REMARK    2  A    between atoms: C_4  and  C_16
REMARK    3  A    between atoms: C_13  and  C_22
REMARK    4  A    between atoms: N_21  and  C_24
REMARK    5  A    between atoms: C_27  and  C_28
REMARK    6  A    between atoms: C_28  and  N_30
REMARK                            x       y       z     vdW  Elec       q    Type
REMARK                         _______ _______ _______ _____ _____    ______ ____
ROOT
ATOM      1  N   UNL     1      35.797 -18.274 -22.111  0.00  0.00    -0.270 N 
ATOM      2  N   UNL     1      34.544 -19.534 -20.613  0.00  0.00    -0.338 NA
ATOM      3  N   UNL     1      36.915 -19.218 -20.311  0.00  0.00    -0.170 NA
ATOM      4  C   UNL     1      34.362 -21.855 -17.155  0.00  0.00    -0.000 C 
ATOM      5  C   UNL     1      35.579 -21.319 -17.566  0.00  0.00    +0.004 C 
ATOM      6  C   UNL     1      35.644 -20.536 -18.733  0.00  0.00    +0.050 C 
ATOM      7  C   UNL     1      35.752 -19.043 -20.960  0.00  0.00    +0.145 C 
ATOM      8  C   UNL     1      33.217 -21.609 -17.904  0.00  0.00    +0.003 C 
ATOM      9  C   UNL     1      34.494 -20.281 -19.497  0.00  0.00    +0.146 C 
ATOM     10  C   UNL     1      33.290 -20.830 -19.062  0.00  0.00    +0.033 C 
ATOM     11  C   UNL     1      36.828 -19.971 -19.198  0.00  0.00    +0.114 C 
ATOM     12  H   UNL     1      36.666 -17.902 -22.388  0.00  0.00    +0.159 HD
ENDROOT
BRANCH   4  16
ATOM     13  C   UNL     1      35.422 -23.976 -14.275  0.00  0.00    +0.053 C 
ATOM     14  C   UNL     1      35.466 -23.195 -15.430  0.00  0.00    +0.004 C 
ATOM     15  C   UNL     1      34.202 -24.223 -13.647  0.00  0.00    +0.004 C 
ATOM     16  C   UNL     1      34.291 -22.662 -15.957  0.00  0.00    -0.004 C 
ATOM     17  C   UNL     1      33.070 -22.909 -15.329  0.00  0.00    -0.022 C 
ATOM     18  C   UNL     1      33.025 -23.689 -14.173  0.00  0.00    -0.004 C 
ATOM     19  C   UNL     1      31.788 -22.354 -15.865  0.00  0.00    +0.031 C 
BRANCH  13  22
ATOM     20  O   UNL     1      36.769 -24.711 -12.499  0.00  0.00    -0.270 OA
ATOM     21  N   UNL     1      37.674 -24.832 -14.628  0.00  0.00    -0.302 N 
ATOM     22  C   UNL     1      36.648 -24.532 -13.724  0.00  0.00    +0.246 C 
ATOM     23  H   UNL     1      37.516 -24.667 -15.587  0.00  0.00    +0.150 HD
BRANCH  21  24
ATOM     24  C   UNL     1      38.947 -25.366 -14.230  0.00  0.00    +0.072 C 
ATOM     25  C   UNL     1      40.228 -24.678 -14.598  0.00  0.00    +0.021 C 
ATOM     26  C   UNL     1      39.770 -24.699 -13.169  0.00  0.00    +0.021 C 
ENDBRANCH  21  24
ENDBRANCH  13  22
ENDBRANCH   4  16
BRANCH   1  27
ATOM     27  C   UNL     1      34.643 -17.986 -22.929  0.00  0.00    +0.075 C 
BRANCH  27  28
ATOM     28  C   UNL     1      34.986 -16.894 -23.934  0.00  0.00    -0.055 C 
BRANCH  28  30
ATOM     29  O   UNL     1      34.268 -12.790 -23.423  0.00  0.00    -0.358 OA
ATOM     30  N   UNL     1      34.356 -15.632 -23.550  0.00  0.00    +0.391 N 
ATOM     31  C   UNL     1      34.050 -14.820 -24.736  0.00  0.00    -0.045 C 
ATOM     32  C   UNL     1      35.217 -14.877 -22.629  0.00  0.00    -0.045 C 
ATOM     33  C   UNL     1      33.405 -13.505 -24.310  0.00  0.00    +0.119 C 
ATOM     34  C   UNL     1      34.543 -13.561 -22.252  0.00  0.00    +0.119 C 
ATOM     35  H   UNL     1      33.481 -15.853 -23.073  0.00  0.00    -0.079 HD
ENDBRANCH  28  30
ENDBRANCH  27  28
ENDBRANCH   1  27
TORSDOF 6
ENDMDL
MODEL 4
REMARK VINA RESULT:     -11.4      2.280      2.707
REMARK  Name = 24963046
REMARK  6 active torsions:
REMARK  status: ('A' for Active; 'I' for Inactive)
REMARK    1  A    between atoms: N_1  and  C_27
REMARK    2  A    between atoms: C_4  and  C_16
REMARK    3  A    between atoms: C_13  and  C_22
REMARK    4  A    between atoms: N_21  and  C_24
REMARK    5  A    between atoms: C_27  and  C_28
REMARK    6  A    between atoms: C_28  and  N_30
REMARK                            x       y       z     vdW  Elec       q    Type
REMARK                         _______ _______ _______ _____ _____    ______ ____
ROOT
ATOM      1  N   UNL     1      33.879 -11.462 -23.927  0.00  0.00    -0.270 N 
ATOM      2  N   UNL     1      34.423 -12.944 -22.220  0.00  0.00    -0.338 NA
ATOM      3  N   UNL     1      34.152 -13.695 -24.495  0.00  0.00    -0.170 NA
ATOM      4  C   UNL     1      35.285 -16.831 -20.987  0.00  0.00    -0.000 C 
ATOM      5  C   UNL     1      35.009 -16.575 -22.327  0.00  0.00    +0.004 C 
ATOM      6  C   UNL     1      34.718 -15.265 -22.746  0.00  0.00    +0.050 C 
ATOM      7  C   UNL     1      34.164 -12.759 -23.531  0.00  0.00    +0.145 C 
ATOM      8  C   UNL     1      35.271 -15.784 -20.071  0.00  0.00    +0.003 C 
ATOM      9  C   UNL     1      34.700 -14.200 -21.830  0.00  0.00    +0.146 C 
ATOM     10  C   UNL     1      34.981 -14.485 -20.497  0.00  0.00    +0.033 C 
ATOM     11  C   UNL     1      34.434 -14.942 -24.069  0.00  0.00    +0.114 C 
ATOM     12  H   UNL     1      33.687 -11.299 -24.879  0.00  0.00    +0.159 HD
ENDROOT
BRANCH   4  16
ATOM     13  C   UNL     1      34.832 -20.249 -19.563  0.00  0.00    +0.053 C 
ATOM     14  C   UNL     1      34.566 -18.948 -19.990  0.00  0.00    +0.004 C 
ATOM     15  C   UNL     1      36.114 -20.779 -19.696  0.00  0.00    +0.004 C 
ATOM     16  C   UNL     1      35.584 -18.177 -20.551  0.00  0.00    -0.004 C 
ATOM     17  C   UNL     1      36.868 -18.707 -20.684  0.00  0.00    -0.022 C 
ATOM     18  C   UNL     1      37.133 -20.009 -20.257  0.00  0.00    -0.004 C 
ATOM     19  C   UNL     1      37.985 -17.911 -21.280  0.00  0.00    +0.031 C 
BRANCH  13  22
ATOM     20  O   UNL     1      32.616 -21.012 -19.438  0.00  0.00    -0.270 OA
ATOM     21  N   UNL     1      34.108 -21.850 -17.876  0.00  0.00    -0.302 N 
ATOM     22  C   UNL     1      33.770 -21.054 -18.978  0.00  0.00    +0.246 C 
ATOM     23  H   UNL     1      35.041 -21.839 -17.560  0.00  0.00    +0.150 HD
BRANCH  21  24
ATOM     24  C   UNL     1      33.162 -22.681 -17.183  0.00  0.00    +0.072 C 
ATOM     25  C   UNL     1      33.173 -22.790 -15.687  0.00  0.00    +0.021 C 
ATOM     26  C   UNL     1      32.046 -22.082 -16.381  0.00  0.00    +0.021 C 
ENDBRANCH  21  24
ENDBRANCH  13  22
ENDBRANCH   4  16
BRANCH   1  27
ATOM     27  C   UNL     1      33.850 -10.337 -23.023  0.00  0.00    +0.075 C 
BRANCH  27  28
ATOM     28  C   UNL     1      32.447 -10.175 -22.451  0.00  0.00    -0.055 C 
BRANCH  28  30
ATOM     29  O   UNL     1      31.158 -10.768 -18.501  0.00  0.00    -0.358 OA
ATOM     30  N   UNL     1      32.456 -10.407 -21.008  0.00  0.00    +0.391 N 
ATOM     31  C   UNL     1      31.761 -11.659 -20.677  0.00  0.00    -0.045 C 
ATOM     32  C   UNL     1      31.836  -9.282 -20.295  0.00  0.00    -0.045 C 
ATOM     33  C   UNL     1      31.773 -11.873 -19.166  0.00  0.00    +0.119 C 
ATOM     34  C   UNL     1      31.848  -9.552 -18.793  0.00  0.00    +0.119 C 
ATOM     35  H   UNL     1      33.429 -10.486 -20.711  0.00  0.00    -0.079 HD
ENDBRANCH  28  30
ENDBRANCH  27  28
ENDBRANCH   1  27
TORSDOF 6
ENDMDL
MODEL 5
REMARK VINA RESULT:     -11.3      3.180     11.909
REMARK  Name = 24963046
REMARK  6 active torsions:
REMARK  status: ('A' for Active; 'I' for Inactive)
REMARK    1  A    between atoms: N_1  and  C_27
REMARK    2  A    between atoms: C_4  and  C_16
REMARK    3  A    between atoms: C_13  and  C_22
REMARK    4  A    between atoms: N_21  and  C_24
REMARK    5  A    between atoms: C_27  and  C_28
REMARK    6  A    between atoms: C_28  and  N_30
REMARK                            x       y       z     vdW  Elec       q    Type
REMARK                         _______ _______ _______ _____ _____    ______ ____
ROOT
ATOM      1  N   UNL     1      34.369 -23.039 -16.340  0.00  0.00    -0.270 N 
ATOM      2  N   UNL     1      35.417 -21.506 -17.738  0.00  0.00    -0.338 NA
ATOM      3  N   UNL     1      33.030 -21.831 -17.800  0.00  0.00    -0.170 NA
ATOM      4  C   UNL     1      35.153 -18.624 -20.737  0.00  0.00    -0.000 C 
ATOM      5  C   UNL     1      34.000 -19.255 -20.280  0.00  0.00    +0.004 C 
ATOM      6  C   UNL     1      34.085 -20.228 -19.269  0.00  0.00    +0.050 C 
ATOM      7  C   UNL     1      34.266 -22.083 -17.337  0.00  0.00    +0.145 C 
ATOM      8  C   UNL     1      36.384 -18.961 -20.186  0.00  0.00    +0.003 C 
ATOM      9  C   UNL     1      35.324 -20.577 -18.705  0.00  0.00    +0.146 C 
ATOM     10  C   UNL     1      36.460 -19.929 -19.181  0.00  0.00    +0.033 C 
ATOM     11  C   UNL     1      32.972 -20.896 -18.768  0.00  0.00    +0.114 C 
ATOM     12  H   UNL     1      33.543 -23.476 -16.028  0.00  0.00    +0.159 HD
ENDROOT
BRANCH   4  16
ATOM     13  C   UNL     1      34.939 -15.294 -22.406  0.00  0.00    +0.053 C 
ATOM     14  C   UNL     1      35.019 -16.276 -21.419  0.00  0.00    +0.004 C 
ATOM     15  C   UNL     1      34.910 -15.658 -23.752  0.00  0.00    +0.004 C 
ATOM     16  C   UNL     1      35.069 -17.623 -21.778  0.00  0.00    -0.004 C 
ATOM     17  C   UNL     1      35.040 -17.987 -23.125  0.00  0.00    -0.022 C 
ATOM     18  C   UNL     1      34.961 -17.005 -24.112  0.00  0.00    -0.004 C 
ATOM     19  C   UNL     1      35.092 -19.421 -23.548  0.00  0.00    +0.031 C 
BRANCH  13  22
ATOM     20  O   UNL     1      35.123 -13.535 -20.864  0.00  0.00    -0.270 OA
ATOM     21  N   UNL     1      34.543 -12.975 -23.036  0.00  0.00    -0.302 N 
ATOM     22  C   UNL     1      34.887 -13.889 -22.033  0.00  0.00    +0.246 C 
ATOM     23  H   UNL     1      34.369 -13.320 -23.943  0.00  0.00    +0.150 HD
BRANCH  21  24
ATOM     24  C   UNL     1      34.432 -11.560 -22.811  0.00  0.00    +0.072 C 
ATOM     25  C   UNL     1      34.015 -10.629 -23.911  0.00  0.00    +0.021 C 
ATOM     26  C   UNL     1      33.093 -10.887 -22.755  0.00  0.00    +0.021 C 
ENDBRANCH  21  24
ENDBRANCH  13  22
ENDBRANCH   4  16
BRANCH   1  27
ATOM     27  C   UNL     1      35.618 -23.430 -15.731  0.00  0.00    +0.075 C 
BRANCH  27  28
ATOM     28  C   UNL     1      35.719 -22.826 -14.336  0.00  0.00    -0.055 C 
BRANCH  28  30
ATOM     29  O   UNL     1      37.227 -25.542 -11.514  0.00  0.00    -0.358 OA
ATOM     30  N   UNL     1      36.645 -23.600 -13.513  0.00  0.00    +0.391 N 
ATOM     31  C   UNL     1      36.496 -25.039 -13.774  0.00  0.00    -0.045 C 
ATOM     32  C   UNL     1      36.433 -23.322 -12.086  0.00  0.00    -0.045 C 
ATOM     33  C   UNL     1      37.462 -25.827 -12.894  0.00  0.00    +0.119 C 
ATOM     34  C   UNL     1      37.402 -24.150 -11.247  0.00  0.00    +0.119 C 
ATOM     35  H   UNL     1      37.594 -23.321 -13.763  0.00  0.00    -0.079 HD
ENDBRANCH  28  30
ENDBRANCH  27  28
ENDBRANCH   1  27
TORSDOF 6
ENDMDL
MODEL 6
REMARK VINA RESULT:     -10.2      2.365     10.953
REMARK  Name = 24963046
REMARK  6 active torsions:
REMARK  status: ('A' for Active; 'I' for Inactive)
REMARK    1  A    between atoms: N_1  and  C_27
REMARK    2  A    between atoms: C_4  and  C_16
REMARK    3  A    between atoms: C_13  and  C_22
REMARK    4  A    between atoms: N_21  and  C_24
REMARK    5  A    between atoms: C_27  and  C_28
REMARK    6  A    between atoms: C_28  and  N_30
REMARK                            x       y       z     vdW  Elec       q    Type
REMARK                         _______ _______ _______ _____ _____    ______ ____
ROOT
ATOM      1  N   UNL     1      34.867 -18.328 -23.378  0.00  0.00    -0.270 N 
ATOM      2  N   UNL     1      34.818 -16.153 -22.560  0.00  0.00    -0.338 NA
ATOM      3  N   UNL     1      34.179 -16.654 -24.829  0.00  0.00    -0.170 NA
ATOM      4  C   UNL     1      34.055 -12.103 -23.187  0.00  0.00    -0.000 C 
ATOM      5  C   UNL     1      33.858 -13.013 -24.222  0.00  0.00    +0.004 C 
ATOM      6  C   UNL     1      34.115 -14.380 -24.014  0.00  0.00    +0.050 C 
ATOM      7  C   UNL     1      34.609 -16.985 -23.601  0.00  0.00    +0.145 C 
ATOM      8  C   UNL     1      34.504 -12.556 -21.951  0.00  0.00    +0.003 C 
ATOM      9  C   UNL     1      34.570 -14.849 -22.770  0.00  0.00    +0.146 C 
ATOM     10  C   UNL     1      34.757 -13.916 -21.753  0.00  0.00    +0.033 C 
ATOM     11  C   UNL     1      33.939 -15.340 -25.005  0.00  0.00    +0.114 C 
ATOM     12  H   UNL     1      34.722 -18.958 -24.121  0.00  0.00    +0.159 HD
ENDROOT
BRANCH   4  16
ATOM     13  C   UNL     1      32.901  -8.610 -22.568  0.00  0.00    +0.053 C 
ATOM     14  C   UNL     1      33.163  -9.968 -22.388  0.00  0.00    +0.004 C 
ATOM     15  C   UNL     1      33.270  -7.980 -23.756  0.00  0.00    +0.004 C 
ATOM     16  C   UNL     1      33.794 -10.697 -23.397  0.00  0.00    -0.004 C 
ATOM     17  C   UNL     1      34.163 -10.066 -24.585  0.00  0.00    -0.022 C 
ATOM     18  C   UNL     1      33.902  -8.707 -24.765  0.00  0.00    -0.004 C 
ATOM     19  C   UNL     1      34.842 -10.813 -25.689  0.00  0.00    +0.031 C 
BRANCH  13  22
ATOM     20  O   UNL     1      31.864  -8.410 -20.472  0.00  0.00    -0.270 OA
ATOM     21  N   UNL     1      32.043  -6.484 -21.748  0.00  0.00    -0.302 N 
ATOM     22  C   UNL     1      32.243  -7.850 -21.517  0.00  0.00    +0.246 C 
ATOM     23  H   UNL     1      32.366  -6.101 -22.597  0.00  0.00    +0.150 HD
BRANCH  21  24
ATOM     24  C   UNL     1      31.390  -5.612 -20.811  0.00  0.00    +0.072 C 
ATOM     25  C   UNL     1      32.173  -4.843 -19.789  0.00  0.00    +0.021 C 
ATOM     26  C   UNL     1      31.510  -4.121 -20.925  0.00  0.00    +0.021 C 
ENDBRANCH  21  24
ENDBRANCH  13  22
ENDBRANCH   4  16
BRANCH   1  27
ATOM     27  C   UNL     1      35.334 -18.856 -22.119  0.00  0.00    +0.075 C 
BRANCH  27  28
ATOM     28  C   UNL     1      34.164 -18.988 -21.153  0.00  0.00    -0.055 C 
BRANCH  28  30
ATOM     29  O   UNL     1      35.546 -21.790 -18.350  0.00  0.00    -0.358 OA
ATOM     30  N   UNL     1      34.606 -19.595 -19.899  0.00  0.00    +0.391 N 
ATOM     31  C   UNL     1      35.989 -20.078 -20.012  0.00  0.00    -0.045 C 
ATOM     32  C   UNL     1      33.717 -20.698 -19.511  0.00  0.00    -0.045 C 
ATOM     33  C   UNL     1      36.424 -20.717 -18.697  0.00  0.00    +0.119 C 
ATOM     34  C   UNL     1      34.205 -21.322 -18.206  0.00  0.00    +0.119 C 
ATOM     35  H   UNL     1      34.570 -18.876 -19.175  0.00  0.00    -0.079 HD
ENDBRANCH  28  30
ENDBRANCH  27  28
ENDBRANCH   1  27
TORSDOF 6
ENDMDL
MODEL 7
REMARK VINA RESULT:     -10.1      3.357      6.141
REMARK  Name = 24963046
REMARK  6 active torsions:
REMARK  status: ('A' for Active; 'I' for Inactive)
REMARK    1  A    between atoms: N_1  and  C_27
REMARK    2  A    between atoms: C_4  and  C_16
REMARK    3  A    between atoms: C_13  and  C_22
REMARK    4  A    between atoms: N_21  and  C_24
REMARK    5  A    between atoms: C_27  and  C_28
REMARK    6  A    between atoms: C_28  and  N_30
REMARK                            x       y       z     vdW  Elec       q    Type
REMARK                         _______ _______ _______ _____ _____    ______ ____
ROOT
ATOM      1  N   UNL     1      34.510 -18.406 -22.320  0.00  0.00    -0.270 N 
ATOM      2  N   UNL     1      35.637 -19.279 -20.484  0.00  0.00    -0.338 NA
ATOM      3  N   UNL     1      33.285 -19.685 -20.822  0.00  0.00    -0.170 NA
ATOM      4  C   UNL     1      35.572 -21.530 -16.976  0.00  0.00    -0.000 C 
ATOM      5  C   UNL     1      34.404 -21.368 -17.717  0.00  0.00    +0.004 C 
ATOM      6  C   UNL     1      34.422 -20.609 -18.900  0.00  0.00    +0.050 C 
ATOM      7  C   UNL     1      34.474 -19.157 -21.157  0.00  0.00    +0.145 C 
ATOM      8  C   UNL     1      36.751 -20.939 -17.416  0.00  0.00    +0.003 C 
ATOM      9  C   UNL     1      35.608 -20.006 -19.354  0.00  0.00    +0.146 C 
ATOM     10  C   UNL     1      36.760 -20.186 -18.594  0.00  0.00    +0.033 C 
ATOM     11  C   UNL     1      33.292 -20.407 -19.685  0.00  0.00    +0.114 C 
ATOM     12  H   UNL     1      33.676 -18.301 -22.832  0.00  0.00    +0.159 HD
ENDROOT
BRANCH   4  16
ATOM     13  C   UNL     1      34.294 -23.442 -14.039  0.00  0.00    +0.053 C 
ATOM     14  C   UNL     1      34.332 -22.690 -15.213  0.00  0.00    +0.004 C 
ATOM     15  C   UNL     1      35.481 -23.814 -13.410  0.00  0.00    +0.004 C 
ATOM     16  C   UNL     1      35.557 -22.309 -15.758  0.00  0.00    -0.004 C 
ATOM     17  C   UNL     1      36.746 -22.681 -15.128  0.00  0.00    -0.022 C 
ATOM     18  C   UNL     1      36.708 -23.434 -13.955  0.00  0.00    -0.004 C 
ATOM     19  C   UNL     1      38.079 -22.292 -15.683  0.00  0.00    +0.031 C 
BRANCH  13  22
ATOM     20  O   UNL     1      32.957 -24.348 -12.336  0.00  0.00    -0.270 OA
ATOM     21  N   UNL     1      31.877 -23.641 -14.260  0.00  0.00    -0.302 N 
ATOM     22  C   UNL     1      33.015 -23.839 -13.470  0.00  0.00    +0.246 C 
ATOM     23  H   UNL     1      31.990 -23.233 -15.150  0.00  0.00    +0.150 HD
BRANCH  21  24
ATOM     24  C   UNL     1      30.551 -24.003 -13.840  0.00  0.00    +0.072 C 
ATOM     25  C   UNL     1      29.353 -23.673 -14.680  0.00  0.00    +0.021 C 
ATOM     26  C   UNL     1      29.792 -25.100 -14.527  0.00  0.00    +0.021 C 
ENDBRANCH  21  24
ENDBRANCH  13  22
ENDBRANCH   4  16
BRANCH   1  27
ATOM     27  C   UNL     1      35.703 -17.769 -22.826  0.00  0.00    +0.075 C 
BRANCH  27  28
ATOM     28  C   UNL     1      35.330 -16.477 -23.541  0.00  0.00    -0.055 C 
BRANCH  28  30
ATOM     29  O   UNL     1      34.249 -13.504 -20.782  0.00  0.00    -0.358 OA
ATOM     30  N   UNL     1      35.406 -15.345 -22.619  0.00  0.00    +0.391 N 
ATOM     31  C   UNL     1      35.023 -15.754 -21.260  0.00  0.00    -0.045 C 
ATOM     32  C   UNL     1      34.548 -14.243 -23.074  0.00  0.00    -0.045 C 
ATOM     33  C   UNL     1      35.098 -14.556 -20.318  0.00  0.00    +0.119 C 
ATOM     34  C   UNL     1      34.636 -13.079 -22.090  0.00  0.00    +0.119 C 
ATOM     35  H   UNL     1      36.373 -15.022 -22.601  0.00  0.00    -0.079 HD
ENDBRANCH  28  30
ENDBRANCH  27  28
ENDBRANCH   1  27
TORSDOF 6
ENDMDL
MODEL 8
REMARK VINA RESULT:     -10.1      2.605      4.814
REMARK  Name = 24963046
REMARK  6 active torsions:
REMARK  status: ('A' for Active; 'I' for Inactive)
REMARK    1  A    between atoms: N_1  and  C_27
REMARK    2  A    between atoms: C_4  and  C_16
REMARK    3  A    between atoms: C_13  and  C_22
REMARK    4  A    between atoms: N_21  and  C_24
REMARK    5  A    between atoms: C_27  and  C_28
REMARK    6  A    between atoms: C_28  and  N_30
REMARK                            x       y       z     vdW  Elec       q    Type
REMARK                         _______ _______ _______ _____ _____    ______ ____
ROOT
ATOM      1  N   UNL     1      33.506  -8.147 -24.065  0.00  0.00    -0.270 N 
ATOM      2  N   UNL     1      33.906 -10.151 -22.957  0.00  0.00    -0.338 NA
ATOM      3  N   UNL     1      33.671 -10.068 -25.355  0.00  0.00    -0.170 NA
ATOM      4  C   UNL     1      34.502 -14.273 -23.107  0.00  0.00    -0.000 C 
ATOM      5  C   UNL     1      34.288 -13.561 -24.284  0.00  0.00    +0.004 C 
ATOM      6  C   UNL     1      34.086 -12.171 -24.237  0.00  0.00    +0.050 C 
ATOM      7  C   UNL     1      33.702  -9.517 -24.131  0.00  0.00    +0.145 C 
ATOM      8  C   UNL     1      34.516 -13.600 -21.891  0.00  0.00    +0.003 C 
ATOM      9  C   UNL     1      34.097 -11.480 -23.014  0.00  0.00    +0.146 C 
ATOM     10  C   UNL     1      34.315 -12.217 -21.853  0.00  0.00    +0.033 C 
ATOM     11  C   UNL     1      33.867 -11.401 -25.375  0.00  0.00    +0.114 C 
ATOM     12  H   UNL     1      33.356  -7.659 -24.908  0.00  0.00    +0.159 HD
ENDROOT
BRANCH   4  16
ATOM     13  C   UNL     1      35.652 -17.691 -22.151  0.00  0.00    +0.053 C 
ATOM     14  C   UNL     1      35.439 -16.313 -22.130  0.00  0.00    +0.004 C 
ATOM     15  C   UNL     1      35.133 -18.461 -23.192  0.00  0.00    +0.004 C 
ATOM     16  C   UNL     1      34.710 -15.704 -23.151  0.00  0.00    -0.004 C 
ATOM     17  C   UNL     1      34.191 -16.474 -24.192  0.00  0.00    -0.022 C 
ATOM     18  C   UNL     1      34.402 -17.853 -24.213  0.00  0.00    -0.004 C 
ATOM     19  C   UNL     1      33.403 -15.857 -25.304  0.00  0.00    +0.031 C 
BRANCH  13  22
ATOM     20  O   UNL     1      37.651 -18.215 -21.040  0.00  0.00    -0.270 OA
ATOM     21  N   UNL     1      35.693 -19.075 -20.148  0.00  0.00    -0.302 N 
ATOM     22  C   UNL     1      36.413 -18.327 -21.087  0.00  0.00    +0.246 C 
ATOM     23  H   UNL     1      34.713 -19.124 -20.241  0.00  0.00    +0.150 HD
BRANCH  21  24
ATOM     24  C   UNL     1      36.310 -19.775 -19.055  0.00  0.00    +0.072 C 
ATOM     25  C   UNL     1      35.688 -21.010 -18.474  0.00  0.00    +0.021 C 
ATOM     26  C   UNL     1      36.964 -21.109 -19.259  0.00  0.00    +0.021 C 
ENDBRANCH  21  24
ENDBRANCH  13  22
ENDBRANCH   4  16
BRANCH   1  27
ATOM     27  C   UNL     1      33.509  -7.395 -22.834  0.00  0.00    +0.075 C 
BRANCH  27  28
ATOM     28  C   UNL     1      32.088  -6.963 -22.493  0.00  0.00    -0.055 C 
BRANCH  28  30
ATOM     29  O   UNL     1      33.044  -6.141 -18.490  0.00  0.00    -0.358 OA
ATOM     30  N   UNL     1      31.961  -6.719 -21.058  0.00  0.00    +0.391 N 
ATOM     31  C   UNL     1      32.444  -5.374 -20.713  0.00  0.00    -0.045 C 
ATOM     32  C   UNL     1      32.696  -7.732 -20.289  0.00  0.00    -0.045 C 
ATOM     33  C   UNL     1      32.313  -5.147 -19.210  0.00  0.00    +0.119 C 
ATOM     34  C   UNL     1      32.558  -7.449 -18.795  0.00  0.00    +0.119 C 
ATOM     35  H   UNL     1      30.971  -6.780 -20.817  0.00  0.00    -0.079 HD
ENDBRANCH  28  30
ENDBRANCH  27  28
ENDBRANCH   1  27
TORSDOF 6
ENDMDL
MODEL 9
REMARK VINA RESULT:     -10.0      2.257     11.369
REMARK  Name = 24963046
REMARK  6 active torsions:
REMARK  status: ('A' for Active; 'I' for Inactive)
REMARK    1  A    between atoms: N_1  and  C_27
REMARK    2  A    between atoms: C_4  and  C_16
REMARK    3  A    between atoms: C_13  and  C_22
REMARK    4  A    between atoms: N_21  and  C_24
REMARK    5  A    between atoms: C_27  and  C_28
REMARK    6  A    between atoms: C_28  and  N_30
REMARK                            x       y       z     vdW  Elec       q    Type
REMARK                         _______ _______ _______ _____ _____    ______ ____
ROOT
ATOM      1  N   UNL     1      35.480 -22.592 -16.396  0.00  0.00    -0.270 N 
ATOM      2  N   UNL     1      34.448 -21.332 -18.054  0.00  0.00    -0.338 NA
ATOM      3  N   UNL     1      36.809 -21.130 -17.613  0.00  0.00    -0.170 NA
ATOM      4  C   UNL     1      34.719 -18.476 -21.079  0.00  0.00    -0.000 C 
ATOM      5  C   UNL     1      35.858 -18.841 -20.366  0.00  0.00    +0.004 C 
ATOM      6  C   UNL     1      35.770 -19.803 -19.345  0.00  0.00    +0.050 C 
ATOM      7  C   UNL     1      35.585 -21.641 -17.399  0.00  0.00    +0.145 C 
ATOM      8  C   UNL     1      33.500 -19.071 -20.775  0.00  0.00    +0.003 C 
ATOM      9  C   UNL     1      34.543 -20.410 -19.028  0.00  0.00    +0.146 C 
ATOM     10  C   UNL     1      33.421 -20.028 -19.758  0.00  0.00    +0.033 C 
ATOM     11  C   UNL     1      36.869 -20.210 -18.595  0.00  0.00    +0.114 C 
ATOM     12  H   UNL     1      36.296 -22.838 -15.902  0.00  0.00    +0.159 HD
ENDROOT
BRANCH   4  16
ATOM     13  C   UNL     1      34.900 -15.162 -22.782  0.00  0.00    +0.053 C 
ATOM     14  C   UNL     1      34.818 -16.135 -21.786  0.00  0.00    +0.004 C 
ATOM     15  C   UNL     1      34.970 -15.541 -24.122  0.00  0.00    +0.004 C 
ATOM     16  C   UNL     1      34.805 -17.486 -22.129  0.00  0.00    -0.004 C 
ATOM     17  C   UNL     1      34.875 -17.865 -23.471  0.00  0.00    -0.022 C 
ATOM     18  C   UNL     1      34.958 -16.892 -24.467  0.00  0.00    -0.004 C 
ATOM     19  C   UNL     1      34.863 -19.304 -23.878  0.00  0.00    +0.031 C 
BRANCH  13  22
ATOM     20  O   UNL     1      35.236 -13.393 -21.278  0.00  0.00    -0.270 OA
ATOM     21  N   UNL     1      34.533 -12.840 -23.415  0.00  0.00    -0.302 N 
ATOM     22  C   UNL     1      34.914 -13.752 -22.424  0.00  0.00    +0.246 C 
ATOM     23  H   UNL     1      34.289 -13.189 -24.303  0.00  0.00    +0.150 HD
BRANCH  21  24
ATOM     24  C   UNL     1      34.478 -11.419 -23.201  0.00  0.00    +0.072 C 
ATOM     25  C   UNL     1      33.738 -10.520 -24.146  0.00  0.00    +0.021 C 
ATOM     26  C   UNL     1      33.211 -10.750 -22.760  0.00  0.00    +0.021 C 
ENDBRANCH  21  24
ENDBRANCH  13  22
ENDBRANCH   4  16
BRANCH   1  27
ATOM     27  C   UNL     1      34.243 -23.243 -16.036  0.00  0.00    +0.075 C 
BRANCH  27  28
ATOM     28  C   UNL     1      33.968 -23.035 -14.552  0.00  0.00    -0.055 C 
BRANCH  28  30
ATOM     29  O   UNL     1      29.866 -23.919 -14.608  0.00  0.00    -0.358 OA
ATOM     30  N   UNL     1      32.530 -22.962 -14.306  0.00  0.00    +0.391 N 
ATOM     31  C   UNL     1      32.060 -24.162 -13.599  0.00  0.00    -0.045 C 
ATOM     32  C   UNL     1      31.793 -22.798 -15.567  0.00  0.00    -0.045 C 
ATOM     33  C   UNL     1      30.555 -24.069 -13.365  0.00  0.00    +0.119 C 
ATOM     34  C   UNL     1      30.294 -22.736 -15.285  0.00  0.00    +0.119 C 
ATOM     35  H   UNL     1      32.355 -22.148 -13.717  0.00  0.00    -0.079 HD
ENDBRANCH  28  30
ENDBRANCH  27  28
ENDBRANCH   1  27
TORSDOF 6
ENDMDL
