MODEL 1
REMARK VINA RESULT:     -11.9      0.000      0.000
REMARK  Name = 10250490
REMARK  6 active torsions:
REMARK  status: ('A' for Active; 'I' for Inactive)
REMARK    1  A    between atoms: N_2  and  C_18
REMARK    2  A    between atoms: C_3  and  C_6
REMARK    3  A    between atoms: C_5  and  N_12
REMARK    4  A    between atoms: C_18  and  C_19
REMARK    5  A    between atoms: C_19  and  N_21
REMARK    6  A    between atoms: C_22  and  C_26
REMARK                            x       y       z     vdW  Elec       q    Type
REMARK                         _______ _______ _______ _____ _____    ______ ____
ROOT
ATOM      1  O   UNL     1      35.578 -22.435 -16.699  0.00  0.00    -0.270 OA
ATOM      2  N   UNL     1      33.264 -22.355 -16.811  0.00  0.00    -0.299 N 
ATOM      3  C   UNL     1      34.547 -21.994 -17.237  0.00  0.00    +0.246 C 
ATOM      4  H   UNL     1      32.490 -21.969 -17.282  0.00  0.00    +0.150 HD
ENDROOT
BRANCH   3   6
ATOM      5  C   UNL     1      34.803 -19.232 -20.450  0.00  0.00    +0.058 C 
ATOM      6  C   UNL     1      34.636 -21.049 -18.338  0.00  0.00    +0.053 C 
ATOM      7  C   UNL     1      35.966 -19.735 -19.867  0.00  0.00    +0.015 C 
ATOM      8  C   UNL     1      33.555 -19.639 -19.976  0.00  0.00    +0.015 C 
ATOM      9  C   UNL     1      35.883 -20.643 -18.812  0.00  0.00    +0.006 C 
ATOM     10  C   UNL     1      33.471 -20.547 -18.920  0.00  0.00    +0.006 C 
BRANCH   5  12
ATOM     11  O   UNL     1      35.501 -16.437 -20.197  0.00  0.00    -0.269 OA
ATOM     12  N   UNL     1      34.890 -18.288 -21.546  0.00  0.00    -0.233 N 
ATOM     13  C   UNL     1      35.284 -16.948 -21.295  0.00  0.00    +0.257 C 
ATOM     14  C   UNL     1      34.568 -18.681 -22.847  0.00  0.00    +0.072 C 
ATOM     15  C   UNL     1      35.395 -16.052 -22.488  0.00  0.00    +0.059 C 
ATOM     16  C   UNL     1      34.643 -17.851 -23.894  0.00  0.00    +0.017 C 
ATOM     17  C   UNL     1      35.077 -16.499 -23.706  0.00  0.00    +0.006 C 
ENDBRANCH   5  12
ENDBRANCH   3   6
BRANCH   2  18
ATOM     18  C   UNL     1      33.012 -23.264 -15.716  0.00  0.00    +0.111 C 
BRANCH  18  19
ATOM     19  C   UNL     1      33.365 -22.654 -14.370  0.00  0.00    +0.111 C 
BRANCH  19  21
ATOM     20  O   UNL     1      34.262 -23.646 -11.830  0.00  0.00    -0.270 OA
ATOM     21  N   UNL     1      34.723 -22.937 -13.990  0.00  0.00    -0.299 N 
ATOM     22  C   UNL     1      35.064 -23.417 -12.731  0.00  0.00    +0.252 C 
ATOM     23  H   UNL     1      35.439 -22.784 -14.648  0.00  0.00    +0.150 HD
BRANCH  22  26
ATOM     24 CL   UNL     1      40.310 -24.868 -13.336  0.00  0.00    -0.075 Cl
ATOM     25  S   UNL     1      37.404 -24.378 -13.706  0.00  0.00    -0.071 S 
ATOM     26  C   UNL     1      36.513 -23.634 -12.486  0.00  0.00    +0.084 C 
ATOM     27  C   UNL     1      37.202 -23.299 -11.383  0.00  0.00    +0.012 C 
ATOM     28  C   UNL     1      38.570 -23.673 -11.528  0.00  0.00    +0.019 C 
ATOM     29  C   UNL     1      38.817 -24.270 -12.744  0.00  0.00    +0.087 C 
ENDBRANCH  22  26
ENDBRANCH  19  21
ENDBRANCH  18  19
ENDBRANCH   2  18
TORSDOF 6
ENDMDL
MODEL 2
REMARK VINA RESULT:     -11.6      3.264      4.508
REMARK  Name = 10250490
REMARK  6 active torsions:
REMARK  status: ('A' for Active; 'I' for Inactive)
REMARK    1  A    between atoms: N_2  and  C_18
REMARK    2  A    between atoms: C_3  and  C_6
REMARK    3  A    between atoms: C_5  and  N_12
REMARK    4  A    between atoms: C_18  and  C_19
REMARK    5  A    between atoms: C_19  and  N_21
REMARK    6  A    between atoms: C_22  and  C_26
REMARK                            x       y       z     vdW  Elec       q    Type
REMARK                         _______ _______ _______ _____ _____    ______ ____
ROOT
ATOM      1  O   UNL     1      34.125 -23.139 -17.334  0.00  0.00    -0.270 OA
ATOM      2  N   UNL     1      35.829 -22.032 -16.219  0.00  0.00    -0.299 N 
ATOM      3  C   UNL     1      34.920 -22.185 -17.272  0.00  0.00    +0.246 C 
ATOM      4  H   UNL     1      36.430 -21.252 -16.232  0.00  0.00    +0.150 HD
ENDROOT
BRANCH   3   6
ATOM      5  C   UNL     1      35.021 -19.259 -20.345  0.00  0.00    +0.058 C 
ATOM      6  C   UNL     1      34.954 -21.182 -18.324  0.00  0.00    +0.053 C 
ATOM      7  C   UNL     1      33.798 -19.763 -19.901  0.00  0.00    +0.015 C 
ATOM      8  C   UNL     1      36.210 -19.718 -19.778  0.00  0.00    +0.015 C 
ATOM      9  C   UNL     1      33.765 -20.724 -18.890  0.00  0.00    +0.006 C 
ATOM     10  C   UNL     1      36.177 -20.679 -18.768  0.00  0.00    +0.006 C 
BRANCH   5  12
ATOM     11  O   UNL     1      35.558 -16.444 -19.960  0.00  0.00    -0.269 OA
ATOM     12  N   UNL     1      35.054 -18.261 -21.396  0.00  0.00    -0.233 N 
ATOM     13  C   UNL     1      35.371 -16.914 -21.082  0.00  0.00    +0.257 C 
ATOM     14  C   UNL     1      34.756 -18.611 -22.715  0.00  0.00    +0.072 C 
ATOM     15  C   UNL     1      35.431 -15.959 -22.232  0.00  0.00    +0.059 C 
ATOM     16  C   UNL     1      34.784 -17.731 -23.722  0.00  0.00    +0.017 C 
ATOM     17  C   UNL     1      35.139 -16.367 -23.470  0.00  0.00    +0.006 C 
ENDBRANCH   5  12
ENDBRANCH   3   6
BRANCH   2  18
ATOM     18  C   UNL     1      35.934 -22.956 -15.113  0.00  0.00    +0.111 C 
BRANCH  18  19
ATOM     19  C   UNL     1      34.963 -22.623 -13.992  0.00  0.00    +0.111 C 
BRANCH  19  21
ATOM     20  O   UNL     1      32.922 -24.033 -12.548  0.00  0.00    -0.270 OA
ATOM     21  N   UNL     1      33.594 -22.801 -14.395  0.00  0.00    -0.299 N 
ATOM     22  C   UNL     1      32.672 -23.503 -13.628  0.00  0.00    +0.252 C 
ATOM     23  H   UNL     1      33.298 -22.410 -15.249  0.00  0.00    +0.150 HD
BRANCH  22  26
ATOM     24 CL   UNL     1      28.199 -22.736 -16.692  0.00  0.00    -0.075 Cl
ATOM     25  S   UNL     1      30.903 -22.598 -15.472  0.00  0.00    -0.071 S 
ATOM     26  C   UNL     1      31.304 -23.620 -14.195  0.00  0.00    +0.084 C 
ATOM     27  C   UNL     1      30.338 -24.462 -13.797  0.00  0.00    +0.012 C 
ATOM     28  C   UNL     1      29.167 -24.272 -14.587  0.00  0.00    +0.019 C 
ATOM     29  C   UNL     1      29.337 -23.288 -15.536  0.00  0.00    +0.087 C 
ENDBRANCH  22  26
ENDBRANCH  19  21
ENDBRANCH  18  19
ENDBRANCH   2  18
TORSDOF 6
ENDMDL
MODEL 3
REMARK VINA RESULT:     -11.5      1.102      1.730
REMARK  Name = 10250490
REMARK  6 active torsions:
REMARK  status: ('A' for Active; 'I' for Inactive)
REMARK    1  A    between atoms: N_2  and  C_18
REMARK    2  A    between atoms: C_3  and  C_6
REMARK    3  A    between atoms: C_5  and  N_12
REMARK    4  A    between atoms: C_18  and  C_19
REMARK    5  A    between atoms: C_19  and  N_21
REMARK    6  A    between atoms: C_22  and  C_26
REMARK                            x       y       z     vdW  Elec       q    Type
REMARK                         _______ _______ _______ _____ _____    ______ ____
ROOT
ATOM      1  O   UNL     1      35.922 -22.031 -17.382  0.00  0.00    -0.270 OA
ATOM      2  N   UNL     1      33.612 -22.120 -17.559  0.00  0.00    -0.299 N 
ATOM      3  C   UNL     1      34.873 -21.628 -17.914  0.00  0.00    +0.246 C 
ATOM      4  H   UNL     1      32.822 -21.757 -18.021  0.00  0.00    +0.150 HD
ENDROOT
BRANCH   3   6
ATOM      5  C   UNL     1      34.994 -18.599 -20.886  0.00  0.00    +0.058 C 
ATOM      6  C   UNL     1      34.913 -20.590 -18.932  0.00  0.00    +0.053 C 
ATOM      7  C   UNL     1      33.772 -19.151 -20.500  0.00  0.00    +0.015 C 
ATOM      8  C   UNL     1      36.176 -19.043 -20.293  0.00  0.00    +0.015 C 
ATOM      9  C   UNL     1      33.732 -20.146 -19.523  0.00  0.00    +0.006 C 
ATOM     10  C   UNL     1      36.136 -20.039 -19.316  0.00  0.00    +0.006 C 
BRANCH   5  12
ATOM     11  O   UNL     1      34.659 -19.034 -23.725  0.00  0.00    -0.269 OA
ATOM     12  N   UNL     1      35.035 -17.566 -21.902  0.00  0.00    -0.233 N 
ATOM     13  C   UNL     1      34.815 -17.904 -23.263  0.00  0.00    +0.257 C 
ATOM     14  C   UNL     1      35.311 -16.243 -21.555  0.00  0.00    +0.072 C 
ATOM     15  C   UNL     1      34.827 -16.771 -24.240  0.00  0.00    +0.059 C 
ATOM     16  C   UNL     1      35.350 -15.251 -22.453  0.00  0.00    +0.017 C 
ATOM     17  C   UNL     1      35.093 -15.527 -23.835  0.00  0.00    +0.006 C 
ENDBRANCH   5  12
ENDBRANCH   3   6
BRANCH   2  18
ATOM     18  C   UNL     1      33.405 -23.134 -16.550  0.00  0.00    +0.111 C 
BRANCH  18  19
ATOM     19  C   UNL     1      33.593 -22.591 -15.143  0.00  0.00    +0.111 C 
BRANCH  19  21
ATOM     20  O   UNL     1      34.086 -23.594 -12.499  0.00  0.00    -0.270 OA
ATOM     21  N   UNL     1      34.868 -22.959 -14.588  0.00  0.00    -0.299 N 
ATOM     22  C   UNL     1      35.011 -23.437 -13.292  0.00  0.00    +0.252 C 
ATOM     23  H   UNL     1      35.671 -22.868 -15.151  0.00  0.00    +0.150 HD
BRANCH  22  26
ATOM     24 CL   UNL     1      40.308 -24.825 -13.319  0.00  0.00    -0.075 Cl
ATOM     25  S   UNL     1      37.504 -24.180 -14.054  0.00  0.00    -0.071 S 
ATOM     26  C   UNL     1      36.398 -23.749 -12.860  0.00  0.00    +0.084 C 
ATOM     27  C   UNL     1      36.875 -23.725 -11.606  0.00  0.00    +0.012 C 
ATOM     28  C   UNL     1      38.254 -24.086 -11.599  0.00  0.00    +0.019 C 
ATOM     29  C   UNL     1      38.723 -24.359 -12.865  0.00  0.00    +0.087 C 
ENDBRANCH  22  26
ENDBRANCH  19  21
ENDBRANCH  18  19
ENDBRANCH   2  18
TORSDOF 6
ENDMDL
MODEL 4
REMARK VINA RESULT:     -11.0      4.823     10.586
REMARK  Name = 10250490
REMARK  6 active torsions:
REMARK  status: ('A' for Active; 'I' for Inactive)
REMARK    1  A    between atoms: N_2  and  C_18
REMARK    2  A    between atoms: C_3  and  C_6
REMARK    3  A    between atoms: C_5  and  N_12
REMARK    4  A    between atoms: C_18  and  C_19
REMARK    5  A    between atoms: C_19  and  N_21
REMARK    6  A    between atoms: C_22  and  C_26
REMARK                            x       y       z     vdW  Elec       q    Type
REMARK                         _______ _______ _______ _____ _____    ______ ____
ROOT
ATOM      1  O   UNL     1      34.016 -21.219 -19.034  0.00  0.00    -0.270 OA
ATOM      2  N   UNL     1      35.909 -19.891 -19.190  0.00  0.00    -0.299 N 
ATOM      3  C   UNL     1      35.118 -20.870 -18.579  0.00  0.00    +0.246 C 
ATOM      4  H   UNL     1      36.773 -19.662 -18.776  0.00  0.00    +0.150 HD
ENDROOT
BRANCH   3   6
ATOM      5  C   UNL     1      36.613 -22.598 -15.001  0.00  0.00    +0.058 C 
ATOM      6  C   UNL     1      35.631 -21.461 -17.353  0.00  0.00    +0.053 C 
ATOM      7  C   UNL     1      37.440 -21.797 -15.789  0.00  0.00    +0.015 C 
ATOM      8  C   UNL     1      35.293 -22.830 -15.390  0.00  0.00    +0.015 C 
ATOM      9  C   UNL     1      36.949 -21.228 -16.964  0.00  0.00    +0.006 C 
ATOM     10  C   UNL     1      34.802 -22.262 -16.566  0.00  0.00    +0.006 C 
BRANCH   5  12
ATOM     11  O   UNL     1      37.533 -25.326 -14.723  0.00  0.00    -0.269 OA
ATOM     12  N   UNL     1      37.124 -23.189 -13.780  0.00  0.00    -0.233 N 
ATOM     13  C   UNL     1      37.584 -24.532 -13.783  0.00  0.00    +0.257 C 
ATOM     14  C   UNL     1      37.148 -22.454 -12.593  0.00  0.00    +0.072 C 
ATOM     15  C   UNL     1      38.140 -25.048 -12.494  0.00  0.00    +0.059 C 
ATOM     16  C   UNL     1      37.619 -22.949 -11.443  0.00  0.00    +0.017 C 
ATOM     17  C   UNL     1      38.136 -24.285 -11.398  0.00  0.00    +0.006 C 
ENDBRANCH   5  12
ENDBRANCH   3   6
BRANCH   2  18
ATOM     18  C   UNL     1      35.527 -19.195 -20.399  0.00  0.00    +0.111 C 
BRANCH  18  19
ATOM     19  C   UNL     1      36.529 -18.119 -20.783  0.00  0.00    +0.111 C 
BRANCH  19  21
ATOM     20  O   UNL     1      35.427 -15.768 -19.560  0.00  0.00    -0.270 OA
ATOM     21  N   UNL     1      35.901 -17.015 -21.457  0.00  0.00    -0.299 N 
ATOM     22  C   UNL     1      35.394 -15.913 -20.779  0.00  0.00    +0.252 C 
ATOM     23  H   UNL     1      35.829 -17.041 -22.439  0.00  0.00    +0.150 HD
BRANCH  22  26
ATOM     24 CL   UNL     1      33.583 -13.040 -25.074  0.00  0.00    -0.075 Cl
ATOM     25  S   UNL     1      34.827 -15.060 -23.289  0.00  0.00    -0.071 S 
ATOM     26  C   UNL     1      34.753 -14.868 -21.618  0.00  0.00    +0.084 C 
ATOM     27  C   UNL     1      34.111 -13.771 -21.186  0.00  0.00    +0.012 C 
ATOM     28  C   UNL     1      33.636 -13.013 -22.295  0.00  0.00    +0.019 C 
ATOM     29  C   UNL     1      33.956 -13.601 -23.499  0.00  0.00    +0.087 C 
ENDBRANCH  22  26
ENDBRANCH  19  21
ENDBRANCH  18  19
ENDBRANCH   2  18
TORSDOF 6
ENDMDL
MODEL 5
REMARK VINA RESULT:     -10.8      3.122      4.209
REMARK  Name = 10250490
REMARK  6 active torsions:
REMARK  status: ('A' for Active; 'I' for Inactive)
REMARK    1  A    between atoms: N_2  and  C_18
REMARK    2  A    between atoms: C_3  and  C_6
REMARK    3  A    between atoms: C_5  and  N_12
REMARK    4  A    between atoms: C_18  and  C_19
REMARK    5  A    between atoms: C_19  and  N_21
REMARK    6  A    between atoms: C_22  and  C_26
REMARK                            x       y       z     vdW  Elec       q    Type
REMARK                         _______ _______ _______ _____ _____    ______ ____
ROOT
ATOM      1  O   UNL     1      34.993 -22.317 -17.843  0.00  0.00    -0.270 OA
ATOM      2  N   UNL     1      36.812 -21.167 -16.981  0.00  0.00    -0.299 N 
ATOM      3  C   UNL     1      35.765 -21.344 -17.892  0.00  0.00    +0.246 C 
ATOM      4  H   UNL     1      37.386 -20.373 -17.077  0.00  0.00    +0.150 HD
ENDROOT
BRANCH   3   6
ATOM      5  C   UNL     1      35.342 -18.412 -20.932  0.00  0.00    +0.058 C 
ATOM      6  C   UNL     1      35.621 -20.340 -18.934  0.00  0.00    +0.053 C 
ATOM      7  C   UNL     1      36.598 -18.672 -20.383  0.00  0.00    +0.015 C 
ATOM      8  C   UNL     1      34.225 -19.117 -20.482  0.00  0.00    +0.015 C 
ATOM      9  C   UNL     1      36.737 -19.636 -19.384  0.00  0.00    +0.006 C 
ATOM     10  C   UNL     1      34.365 -20.080 -19.483  0.00  0.00    +0.006 C 
BRANCH   5  12
ATOM     11  O   UNL     1      34.733 -18.953 -23.707  0.00  0.00    -0.269 OA
ATOM     12  N   UNL     1      35.198 -17.409 -21.970  0.00  0.00    -0.233 N 
ATOM     13  C   UNL     1      34.856 -17.802 -23.290  0.00  0.00    +0.257 C 
ATOM     14  C   UNL     1      35.414 -16.060 -21.685  0.00  0.00    +0.072 C 
ATOM     15  C   UNL     1      34.681 -16.701 -24.287  0.00  0.00    +0.059 C 
ATOM     16  C   UNL     1      35.283 -15.095 -22.603  0.00  0.00    +0.017 C 
ATOM     17  C   UNL     1      34.898 -15.429 -23.941  0.00  0.00    +0.006 C 
ENDBRANCH   5  12
ENDBRANCH   3   6
BRANCH   2  18
ATOM     18  C   UNL     1      37.099 -22.089 -15.905  0.00  0.00    +0.111 C 
BRANCH  18  19
ATOM     19  C   UNL     1      36.278 -21.793 -14.661  0.00  0.00    +0.111 C 
BRANCH  19  21
ATOM     20  O   UNL     1      34.664 -23.571 -13.088  0.00  0.00    -0.270 OA
ATOM     21  N   UNL     1      34.883 -22.083 -14.854  0.00  0.00    -0.299 N 
ATOM     22  C   UNL     1      34.181 -22.962 -14.039  0.00  0.00    +0.252 C 
ATOM     23  H   UNL     1      34.407 -21.641 -15.595  0.00  0.00    +0.150 HD
BRANCH  22  26
ATOM     24 CL   UNL     1      29.019 -24.791 -14.053  0.00  0.00    -0.075 Cl
ATOM     25  S   UNL     1      31.883 -24.279 -13.459  0.00  0.00    -0.071 S 
ATOM     26  C   UNL     1      32.752 -23.174 -14.386  0.00  0.00    +0.084 C 
ATOM     27  C   UNL     1      32.066 -22.575 -15.372  0.00  0.00    +0.012 C 
ATOM     28  C   UNL     1      30.719 -23.044 -15.387  0.00  0.00    +0.019 C 
ATOM     29  C   UNL     1      30.485 -23.974 -14.399  0.00  0.00    +0.087 C 
ENDBRANCH  22  26
ENDBRANCH  19  21
ENDBRANCH  18  19
ENDBRANCH   2  18
TORSDOF 6
ENDMDL
MODEL 6
REMARK VINA RESULT:     -10.8      6.423     11.847
REMARK  Name = 10250490
REMARK  6 active torsions:
REMARK  status: ('A' for Active; 'I' for Inactive)
REMARK    1  A    between atoms: N_2  and  C_18
REMARK    2  A    between atoms: C_3  and  C_6
REMARK    3  A    between atoms: C_5  and  N_12
REMARK    4  A    between atoms: C_18  and  C_19
REMARK    5  A    between atoms: C_19  and  N_21
REMARK    6  A    between atoms: C_22  and  C_26
REMARK                            x       y       z     vdW  Elec       q    Type
REMARK                         _______ _______ _______ _____ _____    ______ ____
ROOT
ATOM      1  O   UNL     1      35.099 -15.482 -25.492  0.00  0.00    -0.270 OA
ATOM      2  N   UNL     1      33.900 -14.178 -23.996  0.00  0.00    -0.299 N 
ATOM      3  C   UNL     1      34.636 -15.314 -24.350  0.00  0.00    +0.246 C 
ATOM      4  H   UNL     1      33.563 -14.108 -23.074  0.00  0.00    +0.150 HD
ENDROOT
BRANCH   3   6
ATOM      5  C   UNL     1      35.184 -18.262 -21.345  0.00  0.00    +0.058 C 
ATOM      6  C   UNL     1      34.824 -16.325 -23.321  0.00  0.00    +0.053 C 
ATOM      7  C   UNL     1      34.767 -18.636 -22.623  0.00  0.00    +0.015 C 
ATOM      8  C   UNL     1      35.422 -16.918 -21.057  0.00  0.00    +0.015 C 
ATOM      9  C   UNL     1      34.587 -17.668 -23.611  0.00  0.00    +0.006 C 
ATOM     10  C   UNL     1      35.242 -15.949 -22.044  0.00  0.00    +0.006 C 
BRANCH   5  12
ATOM     11  O   UNL     1      33.058 -19.681 -19.993  0.00  0.00    -0.269 OA
ATOM     12  N   UNL     1      35.370 -19.269 -20.319  0.00  0.00    -0.233 N 
ATOM     13  C   UNL     1      34.242 -19.924 -19.759  0.00  0.00    +0.257 C 
ATOM     14  C   UNL     1      36.650 -19.585 -19.860  0.00  0.00    +0.072 C 
ATOM     15  C   UNL     1      34.526 -20.983 -18.741  0.00  0.00    +0.059 C 
ATOM     16  C   UNL     1      36.876 -20.513 -18.923  0.00  0.00    +0.017 C 
ATOM     17  C   UNL     1      35.778 -21.236 -18.354  0.00  0.00    +0.006 C 
ENDBRANCH   5  12
ENDBRANCH   3   6
BRANCH   2  18
ATOM     18  C   UNL     1      33.608 -13.098 -24.912  0.00  0.00    +0.111 C 
BRANCH  18  19
ATOM     19  C   UNL     1      34.237 -11.786 -24.472  0.00  0.00    +0.111 C 
BRANCH  19  21
ATOM     20  O   UNL     1      33.210  -9.154 -23.963  0.00  0.00    -0.270 OA
ATOM     21  N   UNL     1      33.677 -11.307 -23.237  0.00  0.00    -0.299 N 
ATOM     22  C   UNL     1      33.202 -10.011 -23.082  0.00  0.00    +0.252 C 
ATOM     23  H   UNL     1      33.628 -11.924 -22.471  0.00  0.00    +0.150 HD
BRANCH  22  26
ATOM     24 CL   UNL     1      31.081 -10.364 -18.046  0.00  0.00    -0.075 Cl
ATOM     25  S   UNL     1      32.150 -10.929 -20.758  0.00  0.00    -0.071 S 
ATOM     26  C   UNL     1      32.678  -9.663 -21.736  0.00  0.00    +0.084 C 
ATOM     27  C   UNL     1      32.575  -8.435 -21.205  0.00  0.00    +0.012 C 
ATOM     28  C   UNL     1      32.023  -8.513 -19.893  0.00  0.00    +0.019 C 
ATOM     29  C   UNL     1      31.746  -9.811 -19.525  0.00  0.00    +0.087 C 
ENDBRANCH  22  26
ENDBRANCH  19  21
ENDBRANCH  18  19
ENDBRANCH   2  18
TORSDOF 6
ENDMDL
MODEL 7
REMARK VINA RESULT:     -10.2      7.274     12.467
REMARK  Name = 10250490
REMARK  6 active torsions:
REMARK  status: ('A' for Active; 'I' for Inactive)
REMARK    1  A    between atoms: N_2  and  C_18
REMARK    2  A    between atoms: C_3  and  C_6
REMARK    3  A    between atoms: C_5  and  N_12
REMARK    4  A    between atoms: C_18  and  C_19
REMARK    5  A    between atoms: C_19  and  N_21
REMARK    6  A    between atoms: C_22  and  C_26
REMARK                            x       y       z     vdW  Elec       q    Type
REMARK                         _______ _______ _______ _____ _____    ______ ____
ROOT
ATOM      1  O   UNL     1      35.019 -15.516 -25.509  0.00  0.00    -0.270 OA
ATOM      2  N   UNL     1      33.814 -14.217 -24.014  0.00  0.00    -0.299 N 
ATOM      3  C   UNL     1      34.564 -15.345 -24.365  0.00  0.00    +0.246 C 
ATOM      4  H   UNL     1      33.484 -14.145 -23.090  0.00  0.00    +0.150 HD
ENDROOT
BRANCH   3   6
ATOM      5  C   UNL     1      35.186 -18.262 -21.345  0.00  0.00    +0.058 C 
ATOM      6  C   UNL     1      34.776 -16.344 -23.330  0.00  0.00    +0.053 C 
ATOM      7  C   UNL     1      35.396 -16.912 -21.065  0.00  0.00    +0.015 C 
ATOM      8  C   UNL     1      34.770 -18.653 -22.618  0.00  0.00    +0.015 C 
ATOM      9  C   UNL     1      35.191 -15.953 -22.057  0.00  0.00    +0.006 C 
ATOM     10  C   UNL     1      34.566 -17.694 -23.611  0.00  0.00    +0.006 C 
BRANCH   5  12
ATOM     11  O   UNL     1      33.102 -19.742 -19.991  0.00  0.00    -0.269 OA
ATOM     12  N   UNL     1      35.400 -19.259 -20.314  0.00  0.00    -0.233 N 
ATOM     13  C   UNL     1      34.292 -19.946 -19.754  0.00  0.00    +0.257 C 
ATOM     14  C   UNL     1      36.688 -19.532 -19.850  0.00  0.00    +0.072 C 
ATOM     15  C   UNL     1      34.606 -20.991 -18.730  0.00  0.00    +0.059 C 
ATOM     16  C   UNL     1      36.940 -20.448 -18.908  0.00  0.00    +0.017 C 
ATOM     17  C   UNL     1      35.865 -21.203 -18.339  0.00  0.00    +0.006 C 
ENDBRANCH   5  12
ENDBRANCH   3   6
BRANCH   2  18
ATOM     18  C   UNL     1      33.498 -13.150 -24.937  0.00  0.00    +0.111 C 
BRANCH  18  19
ATOM     19  C   UNL     1      34.514 -12.021 -24.878  0.00  0.00    +0.111 C 
BRANCH  19  21
ATOM     20  O   UNL     1      33.612 -11.688 -22.174  0.00  0.00    -0.270 OA
ATOM     21  N   UNL     1      33.960 -10.827 -24.299  0.00  0.00    -0.299 N 
ATOM     22  C   UNL     1      33.548 -10.758 -22.974  0.00  0.00    +0.252 C 
ATOM     23  H   UNL     1      33.868 -10.026 -24.865  0.00  0.00    +0.150 HD
BRANCH  22  26
ATOM     24 CL   UNL     1      32.144  -5.470 -22.749  0.00  0.00    -0.075 Cl
ATOM     25  S   UNL     1      33.242  -8.120 -23.517  0.00  0.00    -0.071 S 
ATOM     26  C   UNL     1      32.973  -9.461 -22.534  0.00  0.00    +0.084 C 
ATOM     27  C   UNL     1      32.253  -9.234 -21.425  0.00  0.00    +0.012 C 
ATOM     28  C   UNL     1      31.882  -7.860 -21.354  0.00  0.00    +0.019 C 
ATOM     29  C   UNL     1      32.354  -7.140 -22.429  0.00  0.00    +0.087 C 
ENDBRANCH  22  26
ENDBRANCH  19  21
ENDBRANCH  18  19
ENDBRANCH   2  18
TORSDOF 6
ENDMDL
MODEL 8
REMARK VINA RESULT:     -10.2      3.735      6.386
REMARK  Name = 10250490
REMARK  6 active torsions:
REMARK  status: ('A' for Active; 'I' for Inactive)
REMARK    1  A    between atoms: N_2  and  C_18
REMARK    2  A    between atoms: C_3  and  C_6
REMARK    3  A    between atoms: C_5  and  N_12
REMARK    4  A    between atoms: C_18  and  C_19
REMARK    5  A    between atoms: C_19  and  N_21
REMARK    6  A    between atoms: C_22  and  C_26
REMARK                            x       y       z     vdW  Elec       q    Type
REMARK                         _______ _______ _______ _____ _____    ______ ____
ROOT
ATOM      1  O   UNL     1      36.702 -17.808 -22.079  0.00  0.00    -0.270 OA
ATOM      2  N   UNL     1      35.384 -18.026 -20.185  0.00  0.00    -0.299 N 
ATOM      3  C   UNL     1      35.852 -17.333 -21.306  0.00  0.00    +0.246 C 
ATOM      4  H   UNL     1      34.708 -17.591 -19.615  0.00  0.00    +0.150 HD
ENDROOT
BRANCH   3   6
ATOM      5  C   UNL     1      34.287 -13.441 -21.956  0.00  0.00    +0.058 C 
ATOM      6  C   UNL     1      35.315 -16.000 -21.530  0.00  0.00    +0.053 C 
ATOM      7  C   UNL     1      34.583 -14.265 -23.042  0.00  0.00    +0.015 C 
ATOM      8  C   UNL     1      34.504 -13.899 -20.655  0.00  0.00    +0.015 C 
ATOM      9  C   UNL     1      35.096 -15.544 -22.829  0.00  0.00    +0.006 C 
ATOM     10  C   UNL     1      35.019 -15.177 -20.442  0.00  0.00    +0.006 C 
BRANCH   5  12
ATOM     11  O   UNL     1      32.022 -12.295 -20.570  0.00  0.00    -0.269 OA
ATOM     12  N   UNL     1      33.754 -12.111 -22.178  0.00  0.00    -0.233 N 
ATOM     13  C   UNL     1      32.659 -11.649 -21.402  0.00  0.00    +0.257 C 
ATOM     14  C   UNL     1      34.295 -11.288 -23.167  0.00  0.00    +0.072 C 
ATOM     15  C   UNL     1      32.203 -10.249 -21.662  0.00  0.00    +0.059 C 
ATOM     16  C   UNL     1      33.848 -10.050 -23.404  0.00  0.00    +0.017 C 
ATOM     17  C   UNL     1      32.773  -9.515 -22.622  0.00  0.00    +0.006 C 
ENDBRANCH   5  12
ENDBRANCH   3   6
BRANCH   2  18
ATOM     18  C   UNL     1      35.837 -19.349 -19.816  0.00  0.00    +0.111 C 
BRANCH  18  19
ATOM     19  C   UNL     1      34.732 -20.386 -19.924  0.00  0.00    +0.111 C 
BRANCH  19  21
ATOM     20  O   UNL     1      34.090 -23.060 -19.101  0.00  0.00    -0.270 OA
ATOM     21  N   UNL     1      34.248 -20.794 -18.632  0.00  0.00    -0.299 N 
ATOM     22  C   UNL     1      33.962 -22.118 -18.323  0.00  0.00    +0.252 C 
ATOM     23  H   UNL     1      34.114 -20.106 -17.940  0.00  0.00    +0.150 HD
BRANCH  22  26
ATOM     24 CL   UNL     1      33.656 -23.329 -12.991  0.00  0.00    -0.075 Cl
ATOM     25  S   UNL     1      34.564 -22.796 -15.768  0.00  0.00    -0.071 S 
ATOM     26  C   UNL     1      33.445 -22.372 -16.953  0.00  0.00    +0.084 C 
ATOM     27  C   UNL     1      32.167 -22.301 -16.550  0.00  0.00    +0.012 C 
ATOM     28  C   UNL     1      32.074 -22.616 -15.163  0.00  0.00    +0.019 C 
ATOM     29  C   UNL     1      33.304 -22.904 -14.613  0.00  0.00    +0.087 C 
ENDBRANCH  22  26
ENDBRANCH  19  21
ENDBRANCH  18  19
ENDBRANCH   2  18
TORSDOF 6
ENDMDL
MODEL 9
REMARK VINA RESULT:     -10.1      3.818      5.507
REMARK  Name = 10250490
REMARK  6 active torsions:
REMARK  status: ('A' for Active; 'I' for Inactive)
REMARK    1  A    between atoms: N_2  and  C_18
REMARK    2  A    between atoms: C_3  and  C_6
REMARK    3  A    between atoms: C_5  and  N_12
REMARK    4  A    between atoms: C_18  and  C_19
REMARK    5  A    between atoms: C_19  and  N_21
REMARK    6  A    between atoms: C_22  and  C_26
REMARK                            x       y       z     vdW  Elec       q    Type
REMARK                         _______ _______ _______ _____ _____    ______ ____
ROOT
ATOM      1  O   UNL     1      37.238 -19.157 -20.067  0.00  0.00    -0.270 OA
ATOM      2  N   UNL     1      35.002 -19.620 -19.668  0.00  0.00    -0.299 N 
ATOM      3  C   UNL     1      36.040 -18.870 -20.231  0.00  0.00    +0.246 C 
ATOM      4  H   UNL     1      34.075 -19.337 -19.839  0.00  0.00    +0.150 HD
ENDROOT
BRANCH   3   6
ATOM      5  C   UNL     1      34.933 -15.467 -22.515  0.00  0.00    +0.058 C 
ATOM      6  C   UNL     1      35.661 -17.703 -21.013  0.00  0.00    +0.053 C 
ATOM      7  C   UNL     1      35.018 -15.378 -21.125  0.00  0.00    +0.015 C 
ATOM      8  C   UNL     1      35.214 -16.675 -23.153  0.00  0.00    +0.015 C 
ATOM      9  C   UNL     1      35.382 -16.496 -20.375  0.00  0.00    +0.006 C 
ATOM     10  C   UNL     1      35.577 -17.793 -22.403  0.00  0.00    +0.006 C 
BRANCH   5  12
ATOM     11  O   UNL     1      34.228 -15.493 -25.319  0.00  0.00    -0.269 OA
ATOM     12  N   UNL     1      34.554 -14.305 -23.294  0.00  0.00    -0.233 N 
ATOM     13  C   UNL     1      34.189 -14.456 -24.657  0.00  0.00    +0.257 C 
ATOM     14  C   UNL     1      34.565 -13.032 -22.719  0.00  0.00    +0.072 C 
ATOM     15  C   UNL     1      33.765 -13.213 -25.374  0.00  0.00    +0.059 C 
ATOM     16  C   UNL     1      34.213 -11.930 -23.392  0.00  0.00    +0.017 C 
ATOM     17  C   UNL     1      33.795 -12.029 -24.758  0.00  0.00    +0.006 C 
ENDBRANCH   5  12
ENDBRANCH   3   6
BRANCH   2  18
ATOM     18  C   UNL     1      35.217 -20.791 -18.848  0.00  0.00    +0.111 C 
BRANCH  18  19
ATOM     19  C   UNL     1      34.185 -21.875 -19.112  0.00  0.00    +0.111 C 
BRANCH  19  21
ATOM     20  O   UNL     1      34.596 -23.178 -16.588  0.00  0.00    -0.270 OA
ATOM     21  N   UNL     1      33.234 -21.987 -18.039  0.00  0.00    -0.299 N 
ATOM     22  C   UNL     1      33.523 -22.639 -16.847  0.00  0.00    +0.252 C 
ATOM     23  H   UNL     1      32.342 -21.585 -18.155  0.00  0.00    +0.150 HD
BRANCH  22  26
ATOM     24 CL   UNL     1      30.656 -23.551 -12.272  0.00  0.00    -0.075 Cl
ATOM     25  S   UNL     1      32.767 -23.389 -14.354  0.00  0.00    -0.071 S 
ATOM     26  C   UNL     1      32.425 -22.691 -15.848  0.00  0.00    +0.084 C 
ATOM     27  C   UNL     1      31.171 -22.238 -16.006  0.00  0.00    +0.012 C 
ATOM     28  C   UNL     1      30.414 -22.470 -14.821  0.00  0.00    +0.019 C 
ATOM     29  C   UNL     1      31.160 -23.089 -13.843  0.00  0.00    +0.087 C 
ENDBRANCH  22  26
ENDBRANCH  19  21
ENDBRANCH  18  19
ENDBRANCH   2  18
TORSDOF 6
ENDMDL
