MODEL 1
REMARK VINA RESULT:     -12.3      0.000      0.000
REMARK  Name = 10361208
REMARK  3 active torsions:
REMARK  status: ('A' for Active; 'I' for Inactive)
REMARK    1  A    between atoms: N_1  and  C_12
REMARK    2  A    between atoms: C_10  and  C_18
REMARK    3  A    between atoms: C_21  and  C_27
REMARK                            x       y       z     vdW  Elec       q    Type
REMARK                         _______ _______ _______ _____ _____    ______ ____
ROOT
ATOM      1  N   UNL     1      35.074 -24.200 -13.502  0.00  0.00    -0.318 N 
ATOM      2  N   UNL     1      34.143 -23.059 -15.265  0.00  0.00    -0.147 NA
ATOM      3  N   UNL     1      32.984 -22.690 -15.866  0.00  0.00    -0.190 N 
ATOM      4  N   UNL     1      30.849 -22.447 -16.316  0.00  0.00    -0.127 NA
ATOM      5  N   UNL     1      31.577 -21.788 -17.285  0.00  0.00    -0.127 NA
ATOM      6  C   UNL     1      33.992 -23.780 -14.178  0.00  0.00    +0.149 C 
ATOM      7  C   UNL     1      32.638 -24.165 -13.646  0.00  0.00    +0.039 C 
ATOM      8  C   UNL     1      31.702 -22.984 -15.469  0.00  0.00    +0.187 A 
ATOM      9  C   UNL     1      31.547 -23.758 -14.304  0.00  0.00    +0.044 C 
ATOM     10  C   UNL     1      32.851 -21.945 -17.001  0.00  0.00    +0.187 A 
ATOM     11  H   UNL     1      34.940 -24.754 -12.698  0.00  0.00    +0.148 HD
ENDROOT
BRANCH   1  12
ATOM     12  C   UNL     1      36.429 -23.875 -13.904  0.00  0.00    +0.070 C 
ATOM     13  C   UNL     1      37.165 -23.179 -12.755  0.00  0.00    +0.020 C 
ATOM     14  C   UNL     1      37.161 -25.143 -14.357  0.00  0.00    +0.020 C 
ATOM     15  C   UNL     1      37.492 -24.128 -11.601  0.00  0.00    +0.002 C 
ATOM     16  C   UNL     1      37.487 -26.084 -13.196  0.00  0.00    +0.002 C 
ATOM     17  C   UNL     1      38.243 -25.364 -12.083  0.00  0.00    +0.000 C 
ENDBRANCH   1  12
BRANCH  10  18
ATOM     18  C   UNL     1      33.963 -21.417 -17.755  0.00  0.00    +0.038 C 
ATOM     19  C   UNL     1      33.732 -20.592 -18.854  0.00  0.00    +0.007 C 
ATOM     20  C   UNL     1      35.269 -21.735 -17.383  0.00  0.00    +0.003 C 
ATOM     21  C   UNL     1      34.807 -20.083 -19.582  0.00  0.00    +0.072 C 
ATOM     22  C   UNL     1      36.345 -21.227 -18.111  0.00  0.00    +0.000 C 
ATOM     23  C   UNL     1      36.113 -20.401 -19.212  0.00  0.00    +0.004 C 
BRANCH  21  27
ATOM     24  F   UNL     1      35.400 -19.439 -21.808  0.00  0.00    -0.166 F 
ATOM     25  F   UNL     1      33.302 -19.312 -21.275  0.00  0.00    -0.166 F 
ATOM     26  F   UNL     1      34.716 -17.875 -20.460  0.00  0.00    -0.166 F 
ATOM     27  C   UNL     1      34.561 -19.199 -20.758  0.00  0.00    +0.419 C 
ENDBRANCH  21  27
ENDBRANCH  10  18
TORSDOF 3
ENDMDL
MODEL 2
REMARK VINA RESULT:     -12.0      3.227      5.261
REMARK  Name = 10361208
REMARK  3 active torsions:
REMARK  status: ('A' for Active; 'I' for Inactive)
REMARK    1  A    between atoms: N_1  and  C_12
REMARK    2  A    between atoms: C_10  and  C_18
REMARK    3  A    between atoms: C_21  and  C_27
REMARK                            x       y       z     vdW  Elec       q    Type
REMARK                         _______ _______ _______ _____ _____    ______ ____
ROOT
ATOM      1  N   UNL     1      37.174 -22.283 -14.141  0.00  0.00    -0.318 N 
ATOM      2  N   UNL     1      35.215 -22.273 -15.341  0.00  0.00    -0.147 NA
ATOM      3  N   UNL     1      34.645 -21.997 -16.540  0.00  0.00    -0.190 N 
ATOM      4  N   UNL     1      34.365 -21.377 -18.628  0.00  0.00    -0.127 NA
ATOM      5  N   UNL     1      33.144 -21.776 -18.123  0.00  0.00    -0.127 NA
ATOM      6  C   UNL     1      36.507 -22.044 -15.281  0.00  0.00    +0.149 C 
ATOM      7  C   UNL     1      37.288 -21.516 -16.455  0.00  0.00    +0.039 C 
ATOM      8  C   UNL     1      35.258 -21.515 -17.671  0.00  0.00    +0.187 A 
ATOM      9  C   UNL     1      36.642 -21.270 -17.601  0.00  0.00    +0.044 C 
ATOM     10  C   UNL     1      33.330 -22.141 -16.874  0.00  0.00    +0.187 A 
ATOM     11  H   UNL     1      38.140 -22.089 -14.112  0.00  0.00    +0.148 HD
ENDROOT
BRANCH   1  12
ATOM     12  C   UNL     1      36.535 -22.811 -12.951  0.00  0.00    +0.070 C 
ATOM     13  C   UNL     1      36.117 -24.267 -13.182  0.00  0.00    +0.020 C 
ATOM     14  C   UNL     1      37.474 -22.679 -11.747  0.00  0.00    +0.020 C 
ATOM     15  C   UNL     1      37.309 -25.222 -13.244  0.00  0.00    +0.002 C 
ATOM     16  C   UNL     1      38.661 -23.641 -11.815  0.00  0.00    +0.002 C 
ATOM     17  C   UNL     1      38.208 -25.083 -12.020  0.00  0.00    +0.000 C 
ENDBRANCH   1  12
BRANCH  10  18
ATOM     18  C   UNL     1      32.316 -22.629 -15.970  0.00  0.00    +0.038 C 
ATOM     19  C   UNL     1      30.992 -22.218 -16.119  0.00  0.00    +0.007 C 
ATOM     20  C   UNL     1      32.663 -23.510 -14.947  0.00  0.00    +0.003 C 
ATOM     21  C   UNL     1      30.014 -22.689 -15.244  0.00  0.00    +0.072 C 
ATOM     22  C   UNL     1      31.684 -23.982 -14.071  0.00  0.00    +0.000 C 
ATOM     23  C   UNL     1      30.359 -23.571 -14.220  0.00  0.00    +0.004 C 
BRANCH  21  27
ATOM     24  F   UNL     1      28.205 -21.320 -14.484  0.00  0.00    -0.166 F 
ATOM     25  F   UNL     1      28.331 -21.688 -16.618  0.00  0.00    -0.166 F 
ATOM     26  F   UNL     1      27.712 -23.284 -15.277  0.00  0.00    -0.166 F 
ATOM     27  C   UNL     1      28.596 -22.252 -15.403  0.00  0.00    +0.419 C 
ENDBRANCH  21  27
ENDBRANCH  10  18
TORSDOF 3
ENDMDL
MODEL 3
REMARK VINA RESULT:     -11.6      4.395      7.407
REMARK  Name = 10361208
REMARK  3 active torsions:
REMARK  status: ('A' for Active; 'I' for Inactive)
REMARK    1  A    between atoms: N_1  and  C_12
REMARK    2  A    between atoms: C_10  and  C_18
REMARK    3  A    between atoms: C_21  and  C_27
REMARK                            x       y       z     vdW  Elec       q    Type
REMARK                         _______ _______ _______ _____ _____    ______ ____
ROOT
ATOM      1  N   UNL     1      31.541 -22.521 -16.581  0.00  0.00    -0.318 N 
ATOM      2  N   UNL     1      33.773 -22.480 -16.036  0.00  0.00    -0.147 NA
ATOM      3  N   UNL     1      35.011 -22.100 -16.439  0.00  0.00    -0.190 N 
ATOM      4  N   UNL     1      36.657 -21.263 -17.627  0.00  0.00    -0.127 NA
ATOM      5  N   UNL     1      37.180 -21.781 -16.459  0.00  0.00    -0.127 NA
ATOM      6  C   UNL     1      32.808 -22.190 -16.878  0.00  0.00    +0.149 C 
ATOM      7  C   UNL     1      33.062 -21.489 -18.186  0.00  0.00    +0.039 C 
ATOM      8  C   UNL     1      35.355 -21.459 -17.604  0.00  0.00    +0.187 A 
ATOM      9  C   UNL     1      34.318 -21.151 -18.503  0.00  0.00    +0.044 C 
ATOM     10  C   UNL     1      36.182 -22.278 -15.762  0.00  0.00    +0.187 A 
ATOM     11  H   UNL     1      30.834 -22.309 -17.233  0.00  0.00    +0.148 HD
ENDROOT
BRANCH   1  12
ATOM     12  C   UNL     1      31.169 -23.179 -15.343  0.00  0.00    +0.070 C 
ATOM     13  C   UNL     1      30.592 -22.157 -14.358  0.00  0.00    +0.020 C 
ATOM     14  C   UNL     1      30.177 -24.311 -15.626  0.00  0.00    +0.020 C 
ATOM     15  C   UNL     1      29.208 -21.653 -14.773  0.00  0.00    +0.002 C 
ATOM     16  C   UNL     1      28.796 -23.799 -16.036  0.00  0.00    +0.002 C 
ATOM     17  C   UNL     1      28.240 -22.804 -15.021  0.00  0.00    +0.000 C 
ENDBRANCH   1  12
BRANCH  10  18
ATOM     18  C   UNL     1      36.280 -22.917 -14.472  0.00  0.00    +0.038 C 
ATOM     19  C   UNL     1      37.272 -23.870 -14.239  0.00  0.00    +0.007 C 
ATOM     20  C   UNL     1      35.382 -22.583 -13.460  0.00  0.00    +0.003 C 
ATOM     21  C   UNL     1      37.365 -24.488 -12.992  0.00  0.00    +0.072 C 
ATOM     22  C   UNL     1      35.474 -23.201 -12.212  0.00  0.00    +0.000 C 
ATOM     23  C   UNL     1      36.467 -24.154 -11.979  0.00  0.00    +0.004 C 
BRANCH  21  27
ATOM     24  F   UNL     1      38.480 -26.486 -13.689  0.00  0.00    -0.166 F 
ATOM     25  F   UNL     1      39.687 -24.982 -12.698  0.00  0.00    -0.166 F 
ATOM     26  F   UNL     1      38.259 -26.154 -11.551  0.00  0.00    -0.166 F 
ATOM     27  C   UNL     1      38.426 -25.505 -12.741  0.00  0.00    +0.419 C 
ENDBRANCH  21  27
ENDBRANCH  10  18
TORSDOF 3
ENDMDL
MODEL 4
REMARK VINA RESULT:     -11.4      1.759      2.273
REMARK  Name = 10361208
REMARK  3 active torsions:
REMARK  status: ('A' for Active; 'I' for Inactive)
REMARK    1  A    between atoms: N_1  and  C_12
REMARK    2  A    between atoms: C_10  and  C_18
REMARK    3  A    between atoms: C_21  and  C_27
REMARK                            x       y       z     vdW  Elec       q    Type
REMARK                         _______ _______ _______ _____ _____    ______ ____
ROOT
ATOM      1  N   UNL     1      35.196 -24.215 -13.497  0.00  0.00    -0.318 N 
ATOM      2  N   UNL     1      33.898 -23.180 -15.086  0.00  0.00    -0.147 NA
ATOM      3  N   UNL     1      32.631 -22.906 -15.484  0.00  0.00    -0.190 N 
ATOM      4  N   UNL     1      30.439 -22.822 -15.564  0.00  0.00    -0.127 NA
ATOM      5  N   UNL     1      30.942 -22.135 -16.649  0.00  0.00    -0.127 NA
ATOM      6  C   UNL     1      33.988 -23.886 -13.982  0.00  0.00    +0.149 C 
ATOM      7  C   UNL     1      32.775 -24.352 -13.222  0.00  0.00    +0.039 C 
ATOM      8  C   UNL     1      31.459 -23.280 -14.870  0.00  0.00    +0.187 A 
ATOM      9  C   UNL     1      31.561 -24.036 -13.688  0.00  0.00    +0.044 C 
ATOM     10  C   UNL     1      32.254 -22.197 -16.586  0.00  0.00    +0.187 A 
ATOM     11  H   UNL     1      35.241 -24.758 -12.677  0.00  0.00    +0.148 HD
ENDROOT
BRANCH   1  12
ATOM     12  C   UNL     1      36.436 -23.806 -14.128  0.00  0.00    +0.070 C 
ATOM     13  C   UNL     1      37.204 -22.851 -13.209  0.00  0.00    +0.020 C 
ATOM     14  C   UNL     1      37.274 -25.037 -14.488  0.00  0.00    +0.020 C 
ATOM     15  C   UNL     1      37.793 -23.555 -11.985  0.00  0.00    +0.002 C 
ATOM     16  C   UNL     1      37.862 -25.732 -13.260  0.00  0.00    +0.002 C 
ATOM     17  C   UNL     1      38.641 -24.758 -12.381  0.00  0.00    +0.000 C 
ENDBRANCH   1  12
BRANCH  10  18
ATOM     18  C   UNL     1      33.180 -21.611 -17.525  0.00  0.00    +0.038 C 
ATOM     19  C   UNL     1      34.545 -21.595 -17.241  0.00  0.00    +0.007 C 
ATOM     20  C   UNL     1      32.709 -21.059 -18.715  0.00  0.00    +0.003 C 
ATOM     21  C   UNL     1      35.440 -21.028 -18.148  0.00  0.00    +0.072 C 
ATOM     22  C   UNL     1      33.603 -20.490 -19.623  0.00  0.00    +0.000 C 
ATOM     23  C   UNL     1      34.969 -20.475 -19.338  0.00  0.00    +0.004 C 
BRANCH  21  27
ATOM     24  F   UNL     1      37.274 -21.922 -16.899  0.00  0.00    -0.166 F 
ATOM     25  F   UNL     1      37.685 -21.283 -18.930  0.00  0.00    -0.166 F 
ATOM     26  F   UNL     1      37.326 -19.802 -17.379  0.00  0.00    -0.166 F 
ATOM     27  C   UNL     1      36.900 -21.012 -17.846  0.00  0.00    +0.419 C 
ENDBRANCH  21  27
ENDBRANCH  10  18
TORSDOF 3
ENDMDL
MODEL 5
REMARK VINA RESULT:     -10.9      3.737      5.610
REMARK  Name = 10361208
REMARK  3 active torsions:
REMARK  status: ('A' for Active; 'I' for Inactive)
REMARK    1  A    between atoms: N_1  and  C_12
REMARK    2  A    between atoms: C_10  and  C_18
REMARK    3  A    between atoms: C_21  and  C_27
REMARK                            x       y       z     vdW  Elec       q    Type
REMARK                         _______ _______ _______ _____ _____    ______ ____
ROOT
ATOM      1  N   UNL     1      36.994 -22.363 -14.560  0.00  0.00    -0.318 N 
ATOM      2  N   UNL     1      35.040 -22.138 -15.749  0.00  0.00    -0.147 NA
ATOM      3  N   UNL     1      34.493 -21.765 -16.932  0.00  0.00    -0.190 N 
ATOM      4  N   UNL     1      34.264 -21.037 -18.991  0.00  0.00    -0.127 NA
ATOM      5  N   UNL     1      33.014 -21.352 -18.497  0.00  0.00    -0.127 NA
ATOM      6  C   UNL     1      36.347 -22.021 -15.686  0.00  0.00    +0.149 C 
ATOM      7  C   UNL     1      37.168 -21.512 -16.841  0.00  0.00    +0.039 C 
ATOM      8  C   UNL     1      35.144 -21.289 -18.045  0.00  0.00    +0.187 A 
ATOM      9  C   UNL     1      36.543 -21.165 -17.972  0.00  0.00    +0.044 C 
ATOM     10  C   UNL     1      33.171 -21.784 -17.265  0.00  0.00    +0.187 A 
ATOM     11  H   UNL     1      37.972 -22.253 -14.528  0.00  0.00    +0.148 HD
ENDROOT
BRANCH   1  12
ATOM     12  C   UNL     1      36.315 -22.886 -13.390  0.00  0.00    +0.070 C 
ATOM     13  C   UNL     1      35.998 -24.372 -13.586  0.00  0.00    +0.020 C 
ATOM     14  C   UNL     1      37.167 -22.652 -12.139  0.00  0.00    +0.020 C 
ATOM     15  C   UNL     1      37.247 -25.254 -13.538  0.00  0.00    +0.002 C 
ATOM     16  C   UNL     1      38.411 -23.540 -12.097  0.00  0.00    +0.002 C 
ATOM     17  C   UNL     1      38.057 -25.014 -12.269  0.00  0.00    +0.000 C 
ENDBRANCH   1  12
BRANCH  10  18
ATOM     18  C   UNL     1      32.121 -22.223 -16.377  0.00  0.00    +0.038 C 
ATOM     19  C   UNL     1      32.439 -22.728 -15.117  0.00  0.00    +0.007 C 
ATOM     20  C   UNL     1      30.789 -22.141 -16.781  0.00  0.00    +0.003 C 
ATOM     21  C   UNL     1      31.424 -23.152 -14.260  0.00  0.00    +0.072 C 
ATOM     22  C   UNL     1      29.773 -22.566 -15.924  0.00  0.00    +0.000 C 
ATOM     23  C   UNL     1      30.091 -23.071 -14.663  0.00  0.00    +0.004 C 
BRANCH  21  27
ATOM     24  F   UNL     1      30.787 -23.482 -11.978  0.00  0.00    -0.166 F 
ATOM     25  F   UNL     1      31.982 -25.039 -12.900  0.00  0.00    -0.166 F 
ATOM     26  F   UNL     1      32.893 -23.131 -12.390  0.00  0.00    -0.166 F 
ATOM     27  C   UNL     1      31.762 -23.691 -12.911  0.00  0.00    +0.419 C 
ENDBRANCH  21  27
ENDBRANCH  10  18
TORSDOF 3
ENDMDL
MODEL 6
REMARK VINA RESULT:     -10.5      1.851      4.672
REMARK  Name = 10361208
REMARK  3 active torsions:
REMARK  status: ('A' for Active; 'I' for Inactive)
REMARK    1  A    between atoms: N_1  and  C_12
REMARK    2  A    between atoms: C_10  and  C_18
REMARK    3  A    between atoms: C_21  and  C_27
REMARK                            x       y       z     vdW  Elec       q    Type
REMARK                         _______ _______ _______ _____ _____    ______ ____
ROOT
ATOM      1  N   UNL     1      32.865 -23.495 -14.480  0.00  0.00    -0.318 N 
ATOM      2  N   UNL     1      34.394 -22.447 -15.836  0.00  0.00    -0.147 NA
ATOM      3  N   UNL     1      35.705 -22.146 -16.012  0.00  0.00    -0.190 N 
ATOM      4  N   UNL     1      37.876 -22.006 -15.712  0.00  0.00    -0.127 NA
ATOM      5  N   UNL     1      37.553 -21.347 -16.880  0.00  0.00    -0.127 NA
ATOM      6  C   UNL     1      34.131 -23.142 -14.754  0.00  0.00    +0.149 C 
ATOM      7  C   UNL     1      35.204 -23.569 -13.788  0.00  0.00    +0.039 C 
ATOM      8  C   UNL     1      36.761 -22.483 -15.199  0.00  0.00    +0.187 A 
ATOM      9  C   UNL     1      36.472 -23.227 -14.041  0.00  0.00    +0.044 C 
ATOM     10  C   UNL     1      36.252 -21.440 -17.043  0.00  0.00    +0.187 A 
ATOM     11  H   UNL     1      32.686 -24.003 -13.655  0.00  0.00    +0.148 HD
ENDROOT
BRANCH   1  12
ATOM     12  C   UNL     1      31.749 -23.160 -15.345  0.00  0.00    +0.070 C 
ATOM     13  C   UNL     1      30.958 -24.425 -15.696  0.00  0.00    +0.020 C 
ATOM     14  C   UNL     1      30.861 -22.108 -14.675  0.00  0.00    +0.020 C 
ATOM     15  C   UNL     1      30.168 -24.975 -14.508  0.00  0.00    +0.002 C 
ATOM     16  C   UNL     1      30.071 -22.667 -13.491  0.00  0.00    +0.002 C 
ATOM     17  C   UNL     1      29.276 -23.909 -13.881  0.00  0.00    +0.000 C 
ENDBRANCH   1  12
BRANCH  10  18
ATOM     18  C   UNL     1      35.490 -20.890 -18.139  0.00  0.00    +0.038 C 
ATOM     19  C   UNL     1      36.076 -19.965 -19.002  0.00  0.00    +0.007 C 
ATOM     20  C   UNL     1      34.166 -21.283 -18.331  0.00  0.00    +0.003 C 
ATOM     21  C   UNL     1      35.339 -19.434 -20.060  0.00  0.00    +0.072 C 
ATOM     22  C   UNL     1      33.428 -20.752 -19.389  0.00  0.00    +0.000 C 
ATOM     23  C   UNL     1      34.015 -19.827 -20.254  0.00  0.00    +0.004 C 
BRANCH  21  27
ATOM     24  F   UNL     1      35.581 -17.157 -20.751  0.00  0.00    -0.166 F 
ATOM     25  F   UNL     1      37.329 -18.428 -20.925  0.00  0.00    -0.166 F 
ATOM     26  F   UNL     1      35.660 -18.687 -22.294  0.00  0.00    -0.166 F 
ATOM     27  C   UNL     1      35.965 -18.446 -20.985  0.00  0.00    +0.419 C 
ENDBRANCH  21  27
ENDBRANCH  10  18
TORSDOF 3
ENDMDL
MODEL 7
REMARK VINA RESULT:     -10.2      2.158      5.002
REMARK  Name = 10361208
REMARK  3 active torsions:
REMARK  status: ('A' for Active; 'I' for Inactive)
REMARK    1  A    between atoms: N_1  and  C_12
REMARK    2  A    between atoms: C_10  and  C_18
REMARK    3  A    between atoms: C_21  and  C_27
REMARK                            x       y       z     vdW  Elec       q    Type
REMARK                         _______ _______ _______ _____ _____    ______ ____
ROOT
ATOM      1  N   UNL     1      32.422 -23.879 -13.711  0.00  0.00    -0.318 N 
ATOM      2  N   UNL     1      34.406 -22.962 -14.417  0.00  0.00    -0.147 NA
ATOM      3  N   UNL     1      35.688 -22.681 -14.073  0.00  0.00    -0.190 N 
ATOM      4  N   UNL     1      37.558 -22.517 -12.935  0.00  0.00    -0.127 NA
ATOM      5  N   UNL     1      37.758 -21.967 -14.185  0.00  0.00    -0.127 NA
ATOM      6  C   UNL     1      33.704 -23.555 -13.479  0.00  0.00    +0.149 C 
ATOM      7  C   UNL     1      34.281 -23.893 -12.130  0.00  0.00    +0.039 C 
ATOM      8  C   UNL     1      36.314 -22.943 -12.879  0.00  0.00    +0.187 A 
ATOM      9  C   UNL     1      35.556 -23.578 -11.877  0.00  0.00    +0.044 C 
ATOM     10  C   UNL     1      36.629 -22.073 -14.851  0.00  0.00    +0.187 A 
ATOM     11  H   UNL     1      31.907 -24.309 -12.989  0.00  0.00    +0.148 HD
ENDROOT
BRANCH   1  12
ATOM     12  C   UNL     1      31.762 -23.624 -14.977  0.00  0.00    +0.070 C 
ATOM     13  C   UNL     1      30.693 -24.690 -15.237  0.00  0.00    +0.020 C 
ATOM     14  C   UNL     1      31.164 -22.213 -14.984  0.00  0.00    +0.020 C 
ATOM     15  C   UNL     1      29.480 -24.548 -14.316  0.00  0.00    +0.002 C 
ATOM     16  C   UNL     1      29.950 -22.081 -14.063  0.00  0.00    +0.002 C 
ATOM     17  C   UNL     1      28.895 -23.141 -14.366  0.00  0.00    +0.000 C 
ENDBRANCH   1  12
BRANCH  10  18
ATOM     18  C   UNL     1      36.393 -21.625 -16.202  0.00  0.00    +0.038 C 
ATOM     19  C   UNL     1      35.174 -21.892 -16.823  0.00  0.00    +0.007 C 
ATOM     20  C   UNL     1      37.387 -20.926 -16.887  0.00  0.00    +0.003 C 
ATOM     21  C   UNL     1      34.947 -21.459 -18.129  0.00  0.00    +0.072 C 
ATOM     22  C   UNL     1      37.161 -20.493 -18.194  0.00  0.00    +0.000 C 
ATOM     23  C   UNL     1      35.940 -20.760 -18.815  0.00  0.00    +0.004 C 
BRANCH  21  27
ATOM     24  F   UNL     1      33.276 -20.795 -19.707  0.00  0.00    -0.166 F 
ATOM     25  F   UNL     1      33.622 -22.923 -19.479  0.00  0.00    -0.166 F 
ATOM     26  F   UNL     1      32.606 -21.817 -17.907  0.00  0.00    -0.166 F 
ATOM     27  C   UNL     1      33.642 -21.742 -18.794  0.00  0.00    +0.419 C 
ENDBRANCH  21  27
ENDBRANCH  10  18
TORSDOF 3
ENDMDL
MODEL 8
REMARK VINA RESULT:     -10.2      4.323      7.085
REMARK  Name = 10361208
REMARK  3 active torsions:
REMARK  status: ('A' for Active; 'I' for Inactive)
REMARK    1  A    between atoms: N_1  and  C_12
REMARK    2  A    between atoms: C_10  and  C_18
REMARK    3  A    between atoms: C_21  and  C_27
REMARK                            x       y       z     vdW  Elec       q    Type
REMARK                         _______ _______ _______ _____ _____    ______ ____
ROOT
ATOM      1  N   UNL     1      32.494 -23.374 -15.934  0.00  0.00    -0.318 N 
ATOM      2  N   UNL     1      34.723 -22.982 -15.541  0.00  0.00    -0.147 NA
ATOM      3  N   UNL     1      35.837 -22.343 -15.979  0.00  0.00    -0.190 N 
ATOM      4  N   UNL     1      37.201 -21.104 -17.172  0.00  0.00    -0.127 NA
ATOM      5  N   UNL     1      37.906 -21.633 -16.110  0.00  0.00    -0.127 NA
ATOM      6  C   UNL     1      33.653 -22.789 -16.276  0.00  0.00    +0.149 C 
ATOM      7  C   UNL     1      33.666 -21.924 -17.509  0.00  0.00    +0.039 C 
ATOM      8  C   UNL     1      35.961 -21.535 -17.084  0.00  0.00    +0.187 A 
ATOM      9  C   UNL     1      34.811 -21.332 -17.869  0.00  0.00    +0.044 C 
ATOM     10  C   UNL     1      37.075 -22.371 -15.409  0.00  0.00    +0.187 A 
ATOM     11  H   UNL     1      31.707 -23.230 -16.508  0.00  0.00    +0.148 HD
ENDROOT
BRANCH   1  12
ATOM     12  C   UNL     1      32.352 -24.211 -14.758  0.00  0.00    +0.070 C 
ATOM     13  C   UNL     1      32.842 -23.459 -13.516  0.00  0.00    +0.020 C 
ATOM     14  C   UNL     1      30.895 -24.661 -14.606  0.00  0.00    +0.020 C 
ATOM     15  C   UNL     1      31.903 -22.324 -13.103  0.00  0.00    +0.002 C 
ATOM     16  C   UNL     1      29.965 -23.521 -14.189  0.00  0.00    +0.002 C 
ATOM     17  C   UNL     1      30.468 -22.812 -12.936  0.00  0.00    +0.000 C 
ENDBRANCH   1  12
BRANCH  10  18
ATOM     18  C   UNL     1      37.396 -23.110 -14.211  0.00  0.00    +0.038 C 
ATOM     19  C   UNL     1      36.620 -22.949 -13.063  0.00  0.00    +0.007 C 
ATOM     20  C   UNL     1      38.482 -23.983 -14.202  0.00  0.00    +0.003 C 
ATOM     21  C   UNL     1      36.930 -23.662 -11.906  0.00  0.00    +0.072 C 
ATOM     22  C   UNL     1      38.794 -24.697 -13.044  0.00  0.00    +0.000 C 
ATOM     23  C   UNL     1      38.017 -24.536 -11.896  0.00  0.00    +0.004 C 
BRANCH  21  27
ATOM     24  F   UNL     1      35.697 -24.673 -10.123  0.00  0.00    -0.166 F 
ATOM     25  F   UNL     1      36.741 -22.826  -9.673  0.00  0.00    -0.166 F 
ATOM     26  F   UNL     1      34.955 -22.787 -10.913  0.00  0.00    -0.166 F 
ATOM     27  C   UNL     1      36.100 -23.492 -10.678  0.00  0.00    +0.419 C 
ENDBRANCH  21  27
ENDBRANCH  10  18
TORSDOF 3
ENDMDL
MODEL 9
REMARK VINA RESULT:      -9.6     10.975     13.642
REMARK  Name = 10361208
REMARK  3 active torsions:
REMARK  status: ('A' for Active; 'I' for Inactive)
REMARK    1  A    between atoms: N_1  and  C_12
REMARK    2  A    between atoms: C_10  and  C_18
REMARK    3  A    between atoms: C_21  and  C_27
REMARK                            x       y       z     vdW  Elec       q    Type
REMARK                         _______ _______ _______ _____ _____    ______ ____
ROOT
ATOM      1  N   UNL     1      33.612 -13.683 -22.179  0.00  0.00    -0.318 N 
ATOM      2  N   UNL     1      33.206 -11.434 -21.943  0.00  0.00    -0.147 NA
ATOM      3  N   UNL     1      32.572 -10.488 -21.205  0.00  0.00    -0.190 N 
ATOM      4  N   UNL     1      31.352  -9.510 -19.664  0.00  0.00    -0.127 NA
ATOM      5  N   UNL     1      31.859  -8.538 -20.502  0.00  0.00    -0.127 NA
ATOM      6  C   UNL     1      33.030 -12.666 -21.523  0.00  0.00    +0.149 C 
ATOM      7  C   UNL     1      32.192 -12.996 -20.317  0.00  0.00    +0.039 C 
ATOM      8  C   UNL     1      31.787 -10.676 -20.094  0.00  0.00    +0.187 A 
ATOM      9  C   UNL     1      31.602 -11.998 -19.649  0.00  0.00    +0.044 C 
ATOM     10  C   UNL     1      32.584  -9.140 -21.418  0.00  0.00    +0.187 A 
ATOM     11  H   UNL     1      33.455 -14.601 -21.857  0.00  0.00    +0.148 HD
ENDROOT
BRANCH   1  12
ATOM     12  C   UNL     1      34.460 -13.489 -23.340  0.00  0.00    +0.070 C 
ATOM     13  C   UNL     1      35.557 -14.557 -23.374  0.00  0.00    +0.020 C 
ATOM     14  C   UNL     1      33.614 -13.509 -24.617  0.00  0.00    +0.020 C 
ATOM     15  C   UNL     1      35.019 -15.947 -23.715  0.00  0.00    +0.002 C 
ATOM     16  C   UNL     1      33.083 -14.903 -24.953  0.00  0.00    +0.002 C 
ATOM     17  C   UNL     1      34.205 -15.936 -25.004  0.00  0.00    +0.000 C 
ENDBRANCH   1  12
BRANCH  10  18
ATOM     18  C   UNL     1      33.300  -8.499 -22.495  0.00  0.00    +0.038 C 
ATOM     19  C   UNL     1      34.133  -9.250 -23.324  0.00  0.00    +0.007 C 
ATOM     20  C   UNL     1      33.158  -7.128 -22.706  0.00  0.00    +0.003 C 
ATOM     21  C   UNL     1      34.824  -8.630 -24.364  0.00  0.00    +0.072 C 
ATOM     22  C   UNL     1      33.850  -6.507 -23.746  0.00  0.00    +0.000 C 
ATOM     23  C   UNL     1      34.683  -7.259 -24.576  0.00  0.00    +0.004 C 
BRANCH  21  27
ATOM     24  F   UNL     1      35.342 -10.742 -25.361  0.00  0.00    -0.166 F 
ATOM     25  F   UNL     1      35.766  -8.969 -26.536  0.00  0.00    -0.166 F 
ATOM     26  F   UNL     1      37.008  -9.453 -24.818  0.00  0.00    -0.166 F 
ATOM     27  C   UNL     1      35.714  -9.432 -25.253  0.00  0.00    +0.419 C 
ENDBRANCH  21  27
ENDBRANCH  10  18
TORSDOF 3
ENDMDL
