MODEL 1
REMARK VINA RESULT:     -12.9      0.000      0.000
REMARK  Name = 6419766
REMARK  1 active torsions:
REMARK  status: ('A' for Active; 'I' for Inactive)
REMARK    1  A    between atoms: C_9  and  C_20
REMARK                            x       y       z     vdW  Elec       q    Type
REMARK                         _______ _______ _______ _____ _____    ______ ____
ROOT
ATOM      1  N   UNL     1      34.399 -23.533 -14.062  0.00  0.00    -0.274 N 
ATOM      2  N   UNL     1      34.117 -22.388 -16.099  0.00  0.00    -0.328 NA
ATOM      3  N   UNL     1      31.919 -22.058 -17.028  0.00  0.00    -0.343 NA
ATOM      4  N   UNL     1      37.616 -24.536 -14.688  0.00  0.00    -0.239 N 
ATOM      5  N   UNL     1      36.465 -24.040 -15.173  0.00  0.00    -0.166 NA
ATOM      6  C   UNL     1      32.164 -23.228 -14.950  0.00  0.00    +0.143 C 
ATOM      7  C   UNL     1      33.536 -23.034 -15.070  0.00  0.00    +0.185 C 
ATOM      8  C   UNL     1      31.371 -22.707 -15.986  0.00  0.00    +0.133 C 
ATOM      9  C   UNL     1      33.262 -21.934 -17.029  0.00  0.00    +0.138 C 
ATOM     10  C   UNL     1      35.726 -23.991 -14.093  0.00  0.00    +0.152 C 
ATOM     11  C   UNL     1      31.581 -23.906 -13.864  0.00  0.00    -0.011 C 
ATOM     12  C   UNL     1      29.993 -22.883 -15.901  0.00  0.00    +0.029 C 
ATOM     13  C   UNL     1      36.328 -24.428 -12.926  0.00  0.00    +0.048 C 
ATOM     14  C   UNL     1      37.586 -24.787 -13.347  0.00  0.00    +0.046 C 
ATOM     15  C   UNL     1      30.200 -24.067 -13.806  0.00  0.00    -0.004 C 
ATOM     16  C   UNL     1      29.405 -23.556 -14.825  0.00  0.00    +0.002 C 
ATOM     17  C   UNL     1      38.747 -25.333 -12.625  0.00  0.00    +0.049 C 
ATOM     18  H   UNL     1      33.990 -23.564 -13.168  0.00  0.00    +0.156 HD
ATOM     19  H   UNL     1      38.407 -24.704 -15.248  0.00  0.00    +0.174 HD
ENDROOT
BRANCH   9  20
ATOM     20  C   UNL     1      33.839 -21.237 -18.148  0.00  0.00    +0.086 C 
ATOM     21  C   UNL     1      33.030 -20.488 -19.006  0.00  0.00    +0.012 C 
ATOM     22  C   UNL     1      35.216 -21.304 -18.384  0.00  0.00    +0.012 C 
ATOM     23  C   UNL     1      33.590 -19.811 -20.089  0.00  0.00    +0.001 C 
ATOM     24  C   UNL     1      35.777 -20.628 -19.466  0.00  0.00    +0.001 C 
ATOM     25  C   UNL     1      34.964 -19.880 -20.320  0.00  0.00    +0.000 C 
ENDBRANCH   9  20
TORSDOF 1
ENDMDL
MODEL 2
REMARK VINA RESULT:     -12.5      1.434      5.828
REMARK  Name = 6419766
REMARK  1 active torsions:
REMARK  status: ('A' for Active; 'I' for Inactive)
REMARK    1  A    between atoms: C_9  and  C_20
REMARK                            x       y       z     vdW  Elec       q    Type
REMARK                         _______ _______ _______ _____ _____    ______ ____
ROOT
ATOM      1  N   UNL     1      33.983 -22.143 -17.212  0.00  0.00    -0.274 N 
ATOM      2  N   UNL     1      35.286 -23.244 -15.592  0.00  0.00    -0.328 NA
ATOM      3  N   UNL     1      34.283 -24.081 -13.568  0.00  0.00    -0.343 NA
ATOM      4  N   UNL     1      36.571 -20.342 -18.553  0.00  0.00    -0.239 N 
ATOM      5  N   UNL     1      36.116 -21.092 -17.536  0.00  0.00    -0.166 NA
ATOM      6  C   UNL     1      32.919 -22.965 -15.194  0.00  0.00    +0.143 C 
ATOM      7  C   UNL     1      34.069 -22.805 -15.961  0.00  0.00    +0.185 C 
ATOM      8  C   UNL     1      33.081 -23.630 -13.967  0.00  0.00    +0.133 C 
ATOM      9  C   UNL     1      35.320 -23.864 -14.401  0.00  0.00    +0.138 C 
ATOM     10  C   UNL     1      34.900 -21.365 -17.937  0.00  0.00    +0.152 C 
ATOM     11  C   UNL     1      31.658 -22.497 -15.602  0.00  0.00    -0.011 C 
ATOM     12  C   UNL     1      31.953 -23.809 -13.172  0.00  0.00    +0.029 C 
ATOM     13  C   UNL     1      34.532 -20.835 -19.162  0.00  0.00    +0.048 C 
ATOM     14  C   UNL     1      35.661 -20.156 -19.553  0.00  0.00    +0.046 C 
ATOM     15  C   UNL     1      30.548 -22.690 -14.787  0.00  0.00    -0.004 C 
ATOM     16  C   UNL     1      30.694 -23.346 -13.570  0.00  0.00    +0.002 C 
ATOM     17  C   UNL     1      35.966 -19.364 -20.755  0.00  0.00    +0.049 C 
ATOM     18  H   UNL     1      33.112 -22.249 -17.658  0.00  0.00    +0.156 HD
ATOM     19  H   UNL     1      37.478 -19.959 -18.575  0.00  0.00    +0.174 HD
ENDROOT
BRANCH   9  20
ATOM     20  C   UNL     1      36.603 -24.351 -13.966  0.00  0.00    +0.086 C 
ATOM     21  C   UNL     1      37.378 -23.600 -13.077  0.00  0.00    +0.012 C 
ATOM     22  C   UNL     1      37.084 -25.580 -14.430  0.00  0.00    +0.012 C 
ATOM     23  C   UNL     1      38.620 -24.073 -12.654  0.00  0.00    +0.001 C 
ATOM     24  C   UNL     1      38.325 -26.053 -14.007  0.00  0.00    +0.001 C 
ATOM     25  C   UNL     1      39.094 -25.300 -13.119  0.00  0.00    +0.000 C 
ENDBRANCH   9  20
TORSDOF 1
ENDMDL
MODEL 3
REMARK VINA RESULT:     -12.3      1.221      4.953
REMARK  Name = 6419766
REMARK  1 active torsions:
REMARK  status: ('A' for Active; 'I' for Inactive)
REMARK    1  A    between atoms: C_9  and  C_20
REMARK                            x       y       z     vdW  Elec       q    Type
REMARK                         _______ _______ _______ _____ _____    ______ ____
ROOT
ATOM      1  N   UNL     1      35.982 -22.666 -15.671  0.00  0.00    -0.274 N 
ATOM      2  N   UNL     1      33.634 -22.829 -15.664  0.00  0.00    -0.328 NA
ATOM      3  N   UNL     1      32.326 -21.811 -17.412  0.00  0.00    -0.343 NA
ATOM      4  N   UNL     1      36.355 -23.079 -12.290  0.00  0.00    -0.239 N 
ATOM      5  N   UNL     1      35.532 -22.815 -13.318  0.00  0.00    -0.166 NA
ATOM      6  C   UNL     1      34.716 -21.623 -17.457  0.00  0.00    +0.143 C 
ATOM      7  C   UNL     1      34.738 -22.365 -16.280  0.00  0.00    +0.185 C 
ATOM      8  C   UNL     1      33.448 -21.363 -18.002  0.00  0.00    +0.133 C 
ATOM      9  C   UNL     1      32.480 -22.519 -16.275  0.00  0.00    +0.138 C 
ATOM     10  C   UNL     1      36.357 -22.873 -14.334  0.00  0.00    +0.152 C 
ATOM     11  C   UNL     1      35.884 -21.149 -18.082  0.00  0.00    -0.011 C 
ATOM     12  C   UNL     1      33.387 -20.623 -19.180  0.00  0.00    +0.029 C 
ATOM     13  C   UNL     1      37.676 -23.160 -14.028  0.00  0.00    +0.048 C 
ATOM     14  C   UNL     1      37.650 -23.292 -12.660  0.00  0.00    +0.046 C 
ATOM     15  C   UNL     1      35.791 -20.412 -19.258  0.00  0.00    -0.004 C 
ATOM     16  C   UNL     1      34.542 -20.148 -19.808  0.00  0.00    +0.002 C 
ATOM     17  C   UNL     1      38.707 -23.596 -11.681  0.00  0.00    +0.049 C 
ATOM     18  H   UNL     1      36.727 -22.746 -16.309  0.00  0.00    +0.156 HD
ATOM     19  H   UNL     1      36.051 -23.114 -11.354  0.00  0.00    +0.174 HD
ENDROOT
BRANCH   9  20
ATOM     20  C   UNL     1      31.274 -22.996 -15.650  0.00  0.00    +0.086 C 
ATOM     21  C   UNL     1      30.035 -22.452 -16.002  0.00  0.00    +0.012 C 
ATOM     22  C   UNL     1      31.332 -24.008 -14.687  0.00  0.00    +0.012 C 
ATOM     23  C   UNL     1      28.867 -22.915 -15.398  0.00  0.00    +0.001 C 
ATOM     24  C   UNL     1      30.165 -24.471 -14.083  0.00  0.00    +0.001 C 
ATOM     25  C   UNL     1      28.930 -23.926 -14.438  0.00  0.00    +0.000 C 
ENDBRANCH   9  20
TORSDOF 1
ENDMDL
MODEL 4
REMARK VINA RESULT:     -11.4      1.562      5.215
REMARK  Name = 6419766
REMARK  1 active torsions:
REMARK  status: ('A' for Active; 'I' for Inactive)
REMARK    1  A    between atoms: C_9  and  C_20
REMARK                            x       y       z     vdW  Elec       q    Type
REMARK                         _______ _______ _______ _____ _____    ______ ____
ROOT
ATOM      1  N   UNL     1      33.058 -23.363 -15.565  0.00  0.00    -0.274 N 
ATOM      2  N   UNL     1      34.241 -22.029 -17.100  0.00  0.00    -0.328 NA
ATOM      3  N   UNL     1      36.583 -21.565 -16.775  0.00  0.00    -0.343 NA
ATOM      4  N   UNL     1      29.980 -22.034 -16.272  0.00  0.00    -0.239 N 
ATOM      5  N   UNL     1      31.315 -21.926 -16.375  0.00  0.00    -0.166 NA
ATOM      6  C   UNL     1      35.413 -22.929 -15.188  0.00  0.00    +0.143 C 
ATOM      7  C   UNL     1      34.273 -22.753 -15.966  0.00  0.00    +0.185 C 
ATOM      8  C   UNL     1      36.580 -22.296 -15.647  0.00  0.00    +0.133 C 
ATOM      9  C   UNL     1      35.414 -21.470 -17.440  0.00  0.00    +0.138 C 
ATOM     10  C   UNL     1      31.712 -23.001 -15.742  0.00  0.00    +0.152 C 
ATOM     11  C   UNL     1      35.421 -23.692 -14.006  0.00  0.00    -0.011 C 
ATOM     12  C   UNL     1      37.741 -22.449 -14.894  0.00  0.00    +0.029 C 
ATOM     13  C   UNL     1      30.711 -23.809 -15.231  0.00  0.00    +0.048 C 
ATOM     14  C   UNL     1      29.566 -23.144 -15.595  0.00  0.00    +0.046 C 
ATOM     15  C   UNL     1      36.596 -23.827 -13.274  0.00  0.00    -0.004 C 
ATOM     16  C   UNL     1      37.758 -23.205 -13.718  0.00  0.00    +0.002 C 
ATOM     17  C   UNL     1      28.142 -23.444 -15.376  0.00  0.00    +0.049 C 
ATOM     18  H   UNL     1      33.180 -24.202 -15.066  0.00  0.00    +0.156 HD
ATOM     19  H   UNL     1      29.357 -21.372 -16.650  0.00  0.00    +0.174 HD
ENDROOT
BRANCH   9  20
ATOM     20  C   UNL     1      35.426 -20.686 -18.647  0.00  0.00    +0.086 C 
ATOM     21  C   UNL     1      34.227 -20.357 -19.286  0.00  0.00    +0.012 C 
ATOM     22  C   UNL     1      36.638 -20.247 -19.189  0.00  0.00    +0.012 C 
ATOM     23  C   UNL     1      34.239 -19.596 -20.455  0.00  0.00    +0.001 C 
ATOM     24  C   UNL     1      36.650 -19.486 -20.357  0.00  0.00    +0.001 C 
ATOM     25  C   UNL     1      35.450 -19.159 -20.991  0.00  0.00    +0.000 C 
ENDBRANCH   9  20
TORSDOF 1
ENDMDL
MODEL 5
REMARK VINA RESULT:     -11.2      1.813      6.514
REMARK  Name = 6419766
REMARK  1 active torsions:
REMARK  status: ('A' for Active; 'I' for Inactive)
REMARK    1  A    between atoms: C_9  and  C_20
REMARK                            x       y       z     vdW  Elec       q    Type
REMARK                         _______ _______ _______ _____ _____    ______ ____
ROOT
ATOM      1  N   UNL     1      36.679 -21.758 -16.202  0.00  0.00    -0.274 N 
ATOM      2  N   UNL     1      34.772 -22.581 -15.096  0.00  0.00    -0.328 NA
ATOM      3  N   UNL     1      34.980 -24.207 -13.332  0.00  0.00    -0.343 NA
ATOM      4  N   UNL     1      35.048 -20.912 -19.094  0.00  0.00    -0.239 N 
ATOM      5  N   UNL     1      35.026 -21.588 -17.933  0.00  0.00    -0.166 NA
ATOM      6  C   UNL     1      36.948 -23.394 -14.432  0.00  0.00    +0.143 C 
ATOM      7  C   UNL     1      36.112 -22.603 -15.214  0.00  0.00    +0.185 C 
ATOM      8  C   UNL     1      36.316 -24.205 -13.475  0.00  0.00    +0.133 C 
ATOM      9  C   UNL     1      34.279 -23.396 -14.150  0.00  0.00    +0.138 C 
ATOM     10  C   UNL     1      36.200 -21.290 -17.436  0.00  0.00    +0.152 C 
ATOM     11  C   UNL     1      38.347 -23.399 -14.575  0.00  0.00    -0.011 C 
ATOM     12  C   UNL     1      37.120 -25.011 -12.675  0.00  0.00    +0.029 C 
ATOM     13  C   UNL     1      36.992 -20.455 -18.207  0.00  0.00    +0.048 C 
ATOM     14  C   UNL     1      36.204 -20.217 -19.307  0.00  0.00    +0.046 C 
ATOM     15  C   UNL     1      39.125 -24.215 -13.760  0.00  0.00    -0.004 C 
ATOM     16  C   UNL     1      38.512 -25.023 -12.810  0.00  0.00    +0.002 C 
ATOM     17  C   UNL     1      36.424 -19.413 -20.520  0.00  0.00    +0.049 C 
ATOM     18  H   UNL     1      37.582 -21.437 -15.979  0.00  0.00    +0.156 HD
ATOM     19  H   UNL     1      34.300 -20.917 -19.733  0.00  0.00    +0.174 HD
ENDROOT
BRANCH   9  20
ATOM     20  C   UNL     1      32.849 -23.405 -13.989  0.00  0.00    +0.086 C 
ATOM     21  C   UNL     1      32.057 -22.480 -14.675  0.00  0.00    +0.012 C 
ATOM     22  C   UNL     1      32.241 -24.340 -13.145  0.00  0.00    +0.012 C 
ATOM     23  C   UNL     1      30.671 -22.489 -14.520  0.00  0.00    +0.001 C 
ATOM     24  C   UNL     1      30.856 -24.350 -12.990  0.00  0.00    +0.001 C 
ATOM     25  C   UNL     1      30.069 -23.425 -13.678  0.00  0.00    +0.000 C 
ENDBRANCH   9  20
TORSDOF 1
ENDMDL
MODEL 6
REMARK VINA RESULT:     -10.8      1.635      6.508
REMARK  Name = 6419766
REMARK  1 active torsions:
REMARK  status: ('A' for Active; 'I' for Inactive)
REMARK    1  A    between atoms: C_9  and  C_20
REMARK                            x       y       z     vdW  Elec       q    Type
REMARK                         _______ _______ _______ _____ _____    ______ ____
ROOT
ATOM      1  N   UNL     1      32.875 -22.378 -15.776  0.00  0.00    -0.274 N 
ATOM      2  N   UNL     1      35.003 -22.662 -14.814  0.00  0.00    -0.328 NA
ATOM      3  N   UNL     1      36.991 -22.022 -16.016  0.00  0.00    -0.343 NA
ATOM      4  N   UNL     1      31.346 -24.830 -13.934  0.00  0.00    -0.239 N 
ATOM      5  N   UNL     1      32.495 -24.273 -14.354  0.00  0.00    -0.166 NA
ATOM      6  C   UNL     1      34.840 -21.716 -17.031  0.00  0.00    +0.143 C 
ATOM      7  C   UNL     1      34.283 -22.250 -15.873  0.00  0.00    +0.185 C 
ATOM      8  C   UNL     1      36.242 -21.619 -17.057  0.00  0.00    +0.133 C 
ATOM      9  C   UNL     1      36.332 -22.522 -14.951  0.00  0.00    +0.138 C 
ATOM     10  C   UNL     1      32.051 -23.287 -15.092  0.00  0.00    +0.152 C 
ATOM     11  C   UNL     1      34.066 -21.291 -18.126  0.00  0.00    -0.011 C 
ATOM     12  C   UNL     1      36.835 -21.090 -18.199  0.00  0.00    +0.029 C 
ATOM     13  C   UNL     1      30.675 -23.166 -15.180  0.00  0.00    +0.048 C 
ATOM     14  C   UNL     1      30.227 -24.205 -14.400  0.00  0.00    +0.046 C 
ATOM     15  C   UNL     1      34.687 -20.766 -19.254  0.00  0.00    -0.004 C 
ATOM     16  C   UNL     1      36.073 -20.666 -19.292  0.00  0.00    +0.002 C 
ATOM     17  C   UNL     1      28.871 -24.661 -14.054  0.00  0.00    +0.049 C 
ATOM     18  H   UNL     1      32.378 -21.698 -16.285  0.00  0.00    +0.156 HD
ATOM     19  H   UNL     1      31.315 -25.617 -13.344  0.00  0.00    +0.174 HD
ENDROOT
BRANCH   9  20
ATOM     20  C   UNL     1      37.141 -22.951 -13.841  0.00  0.00    +0.086 C 
ATOM     21  C   UNL     1      36.880 -22.475 -12.553  0.00  0.00    +0.012 C 
ATOM     22  C   UNL     1      38.194 -23.849 -14.043  0.00  0.00    +0.012 C 
ATOM     23  C   UNL     1      37.664 -22.892 -11.477  0.00  0.00    +0.001 C 
ATOM     24  C   UNL     1      38.978 -24.266 -12.968  0.00  0.00    +0.001 C 
ATOM     25  C   UNL     1      38.713 -23.789 -11.684  0.00  0.00    +0.000 C 
ENDBRANCH   9  20
TORSDOF 1
ENDMDL
MODEL 7
REMARK VINA RESULT:     -10.7      9.234     12.343
REMARK  Name = 6419766
REMARK  1 active torsions:
REMARK  status: ('A' for Active; 'I' for Inactive)
REMARK    1  A    between atoms: C_9  and  C_20
REMARK                            x       y       z     vdW  Elec       q    Type
REMARK                         _______ _______ _______ _____ _____    ______ ____
ROOT
ATOM      1  N   UNL     1      34.308 -13.776 -20.744  0.00  0.00    -0.274 N 
ATOM      2  N   UNL     1      34.420 -12.226 -22.510  0.00  0.00    -0.328 NA
ATOM      3  N   UNL     1      32.939 -10.328 -22.576  0.00  0.00    -0.343 NA
ATOM      4  N   UNL     1      35.635 -16.394 -22.513  0.00  0.00    -0.239 N 
ATOM      5  N   UNL     1      35.085 -15.169 -22.537  0.00  0.00    -0.166 NA
ATOM      6  C   UNL     1      32.793 -11.884 -20.757  0.00  0.00    +0.143 C 
ATOM      7  C   UNL     1      33.828 -12.593 -21.359  0.00  0.00    +0.185 C 
ATOM      8  C   UNL     1      32.369 -10.722 -21.424  0.00  0.00    +0.133 C 
ATOM      9  C   UNL     1      33.933 -11.101 -23.057  0.00  0.00    +0.138 C 
ATOM     10  C   UNL     1      34.879 -14.949 -21.263  0.00  0.00    +0.152 C 
ATOM     11  C   UNL     1      32.190 -12.288 -19.553  0.00  0.00    -0.011 C 
ATOM     12  C   UNL     1      31.335  -9.986 -20.852  0.00  0.00    +0.029 C 
ATOM     13  C   UNL     1      35.265 -15.963 -20.403  0.00  0.00    +0.048 C 
ATOM     14  C   UNL     1      35.765 -16.915 -21.258  0.00  0.00    +0.046 C 
ATOM     15  C   UNL     1      31.158 -11.532 -19.005  0.00  0.00    -0.004 C 
ATOM     16  C   UNL     1      30.729 -10.381 -19.655  0.00  0.00    +0.002 C 
ATOM     17  C   UNL     1      36.345 -18.247 -21.018  0.00  0.00    +0.049 C 
ATOM     18  H   UNL     1      34.226 -13.775 -19.763  0.00  0.00    +0.156 HD
ATOM     19  H   UNL     1      35.918 -16.872 -23.325  0.00  0.00    +0.174 HD
ENDROOT
BRANCH   9  20
ATOM     20  C   UNL     1      34.538 -10.671 -24.290  0.00  0.00    +0.086 C 
ATOM     21  C   UNL     1      34.229 -11.317 -25.490  0.00  0.00    +0.012 C 
ATOM     22  C   UNL     1      35.440  -9.602 -24.297  0.00  0.00    +0.012 C 
ATOM     23  C   UNL     1      34.814 -10.900 -26.685  0.00  0.00    +0.001 C 
ATOM     24  C   UNL     1      36.025  -9.184 -25.491  0.00  0.00    +0.001 C 
ATOM     25  C   UNL     1      35.712  -9.832 -26.687  0.00  0.00    +0.000 C 
ENDBRANCH   9  20
TORSDOF 1
ENDMDL
MODEL 8
REMARK VINA RESULT:     -10.7      9.193     12.309
REMARK  Name = 6419766
REMARK  1 active torsions:
REMARK  status: ('A' for Active; 'I' for Inactive)
REMARK    1  A    between atoms: C_9  and  C_20
REMARK                            x       y       z     vdW  Elec       q    Type
REMARK                         _______ _______ _______ _____ _____    ______ ____
ROOT
ATOM      1  N   UNL     1      34.359 -13.812 -20.714  0.00  0.00    -0.274 N 
ATOM      2  N   UNL     1      34.450 -12.267 -22.486  0.00  0.00    -0.328 NA
ATOM      3  N   UNL     1      32.969 -10.368 -22.539  0.00  0.00    -0.343 NA
ATOM      4  N   UNL     1      35.662 -16.435 -22.491  0.00  0.00    -0.239 N 
ATOM      5  N   UNL     1      35.112 -15.210 -22.513  0.00  0.00    -0.166 NA
ATOM      6  C   UNL     1      32.845 -11.918 -20.714  0.00  0.00    +0.143 C 
ATOM      7  C   UNL     1      33.872 -12.630 -21.326  0.00  0.00    +0.185 C 
ATOM      8  C   UNL     1      32.413 -10.758 -21.378  0.00  0.00    +0.133 C 
ATOM      9  C   UNL     1      33.956 -11.143 -23.030  0.00  0.00    +0.138 C 
ATOM     10  C   UNL     1      34.923 -14.987 -21.237  0.00  0.00    +0.152 C 
ATOM     11  C   UNL     1      32.257 -12.318 -19.501  0.00  0.00    -0.011 C 
ATOM     12  C   UNL     1      31.387 -10.020 -20.796  0.00  0.00    +0.029 C 
ATOM     13  C   UNL     1      35.319 -15.998 -20.378  0.00  0.00    +0.048 C 
ATOM     14  C   UNL     1      35.807 -16.953 -21.237  0.00  0.00    +0.046 C 
ATOM     15  C   UNL     1      31.232 -11.560 -18.942  0.00  0.00    -0.004 C 
ATOM     16  C   UNL     1      30.796 -10.410 -19.590  0.00  0.00    +0.002 C 
ATOM     17  C   UNL     1      36.390 -18.284 -21.000  0.00  0.00    +0.049 C 
ATOM     18  H   UNL     1      34.289 -13.808 -19.732  0.00  0.00    +0.156 HD
ATOM     19  H   UNL     1      35.935 -16.916 -23.306  0.00  0.00    +0.174 HD
ENDROOT
BRANCH   9  20
ATOM     20  C   UNL     1      34.546 -10.717 -24.272  0.00  0.00    +0.086 C 
ATOM     21  C   UNL     1      35.461  -9.660 -24.293  0.00  0.00    +0.012 C 
ATOM     22  C   UNL     1      34.209 -11.359 -25.468  0.00  0.00    +0.012 C 
ATOM     23  C   UNL     1      36.033  -9.249 -25.496  0.00  0.00    +0.001 C 
ATOM     24  C   UNL     1      34.781 -10.948 -26.671  0.00  0.00    +0.001 C 
ATOM     25  C   UNL     1      35.694  -9.893 -26.686  0.00  0.00    +0.000 C 
ENDBRANCH   9  20
TORSDOF 1
ENDMDL
MODEL 9
REMARK VINA RESULT:     -10.3     11.079     14.435
REMARK  Name = 6419766
REMARK  1 active torsions:
REMARK  status: ('A' for Active; 'I' for Inactive)
REMARK    1  A    between atoms: C_9  and  C_20
REMARK                            x       y       z     vdW  Elec       q    Type
REMARK                         _______ _______ _______ _____ _____    ______ ____
ROOT
ATOM      1  N   UNL     1      33.248  -9.088 -22.784  0.00  0.00    -0.274 N 
ATOM      2  N   UNL     1      33.548 -11.417 -22.928  0.00  0.00    -0.328 NA
ATOM      3  N   UNL     1      32.820 -12.863 -21.144  0.00  0.00    -0.343 NA
ATOM      4  N   UNL     1      35.811  -8.290 -24.915  0.00  0.00    -0.239 N 
ATOM      5  N   UNL     1      35.217  -9.222 -24.150  0.00  0.00    -0.166 NA
ATOM      6  C   UNL     1      32.496 -10.495 -20.958  0.00  0.00    +0.143 C 
ATOM      7  C   UNL     1      33.094 -10.374 -22.209  0.00  0.00    +0.185 C 
ATOM      8  C   UNL     1      32.377 -11.799 -20.451  0.00  0.00    +0.133 C 
ATOM      9  C   UNL     1      33.382 -12.615 -22.344  0.00  0.00    +0.138 C 
ATOM     10  C   UNL     1      34.202  -8.552 -23.664  0.00  0.00    +0.152 C 
ATOM     11  C   UNL     1      32.029  -9.389 -20.225  0.00  0.00    -0.011 C 
ATOM     12  C   UNL     1      31.784 -11.959 -19.202  0.00  0.00    +0.029 C 
ATOM     13  C   UNL     1      34.097  -7.232 -24.068  0.00  0.00    +0.048 C 
ATOM     14  C   UNL     1      35.180  -7.080 -24.900  0.00  0.00    +0.046 C 
ATOM     15  C   UNL     1      31.440  -9.579 -18.980  0.00  0.00    -0.004 C 
ATOM     16  C   UNL     1      31.317 -10.865 -18.467  0.00  0.00    +0.002 C 
ATOM     17  C   UNL     1      35.673  -5.929 -25.673  0.00  0.00    +0.049 C 
ATOM     18  H   UNL     1      32.551  -8.447 -22.516  0.00  0.00    +0.156 HD
ATOM     19  H   UNL     1      36.626  -8.465 -25.437  0.00  0.00    +0.174 HD
ENDROOT
BRANCH   9  20
ATOM     20  C   UNL     1      33.853 -13.760 -23.079  0.00  0.00    +0.086 C 
ATOM     21  C   UNL     1      33.433 -13.974 -24.395  0.00  0.00    +0.012 C 
ATOM     22  C   UNL     1      34.735 -14.665 -22.482  0.00  0.00    +0.012 C 
ATOM     23  C   UNL     1      33.891 -15.082 -25.107  0.00  0.00    +0.001 C 
ATOM     24  C   UNL     1      35.193 -15.773 -23.193  0.00  0.00    +0.001 C 
ATOM     25  C   UNL     1      34.772 -15.982 -24.507  0.00  0.00    +0.000 C 
ENDBRANCH   9  20
TORSDOF 1
ENDMDL
