MODEL 1
REMARK VINA RESULT:     -12.1      0.000      0.000
REMARK  Name = 42611257
REMARK  7 active torsions:
REMARK  status: ('A' for Active; 'I' for Inactive)
REMARK    1  A    between atoms: C_2  and  C_6
REMARK    2  A    between atoms: C_2  and  C_22
REMARK    3  A    between atoms: C_10  and  C_14
REMARK    4  A    between atoms: C_23  and  N_28
REMARK    5  A    between atoms: N_28  and  S_30
REMARK    6  A    between atoms: S_30  and  C_33
REMARK    7  A    between atoms: C_33  and  C_34
REMARK                            x       y       z     vdW  Elec       q    Type
REMARK                         _______ _______ _______ _____ _____    ______ ____
ROOT
ATOM      1  O   UNL     1      35.486 -13.915 -19.866  0.00  0.00    -0.286 OA
ATOM      2  C   UNL     1      34.750 -13.952 -20.875  0.00  0.00    +0.201 C 
ENDROOT
BRANCH   2   6
ATOM      3  N   UNL     1      35.320 -15.811 -23.914  0.00  0.00    -0.297 N 
ATOM      4  N   UNL     1      35.290 -18.162 -23.393  0.00  0.00    -0.229 NA
ATOM      5  C   UNL     1      34.966 -16.348 -21.775  0.00  0.00    +0.036 C 
ATOM      6  C   UNL     1      34.952 -14.933 -21.902  0.00  0.00    +0.056 C 
ATOM      7  C   UNL     1      35.197 -16.864 -23.047  0.00  0.00    +0.132 C 
ATOM      8  C   UNL     1      34.807 -17.265 -20.724  0.00  0.00    +0.004 C 
ATOM      9  C   UNL     1      35.172 -14.632 -23.229  0.00  0.00    +0.066 C 
ATOM     10  C   UNL     1      34.893 -18.623 -21.027  0.00  0.00    +0.019 C 
ATOM     11  C   UNL     1      35.130 -19.000 -22.343  0.00  0.00    +0.100 C 
ATOM     12  H   UNL     1      35.489 -15.888 -24.881  0.00  0.00    +0.154 HD
BRANCH  10  14
ATOM     13 CL   UNL     1      34.261 -22.718 -16.749  0.00  0.00    -0.082 Cl
ATOM     14  C   UNL     1      34.741 -19.617 -19.990  0.00  0.00    +0.002 C 
ATOM     15  C   UNL     1      35.867 -20.159 -19.371  0.00  0.00    +0.001 C 
ATOM     16  C   UNL     1      33.466 -20.035 -19.608  0.00  0.00    +0.001 C 
ATOM     17  C   UNL     1      35.719 -21.118 -18.369  0.00  0.00    +0.011 C 
ATOM     18  C   UNL     1      33.318 -20.994 -18.606  0.00  0.00    +0.011 C 
ATOM     19  C   UNL     1      34.444 -21.535 -17.986  0.00  0.00    +0.058 C 
ENDBRANCH  10  14
ENDBRANCH   2   6
BRANCH   2  22
ATOM     20  F   UNL     1      34.791 -11.790 -22.689  0.00  0.00    -0.203 F 
ATOM     21  F   UNL     1      32.481 -13.994 -19.179  0.00  0.00    -0.204 F 
ATOM     22  C   UNL     1      33.661 -12.915 -20.934  0.00  0.00    +0.095 C 
ATOM     23  C   UNL     1      32.736 -10.907 -21.911  0.00  0.00    +0.092 C 
ATOM     24  C   UNL     1      33.744 -11.870 -21.856  0.00  0.00    +0.160 C 
ATOM     25  C   UNL     1      32.571 -12.996 -20.068  0.00  0.00    +0.145 C 
ATOM     26  C   UNL     1      31.645 -10.990 -21.044  0.00  0.00    +0.020 C 
ATOM     27  C   UNL     1      31.563 -12.033 -20.124  0.00  0.00    +0.031 C 
BRANCH  23  28
ATOM     28  N   UNL     1      32.817  -9.838 -22.853  0.00  0.00    -0.217 N 
ATOM     29  H   UNL     1      32.995 -10.015 -23.805  0.00  0.00    +0.173 HD
BRANCH  28  30
ATOM     30  S   UNL     1      32.594  -8.230 -22.278  0.00  0.00    +0.054 S 
ATOM     31  O   UNL     1      31.252  -7.800 -22.628  0.00  0.00    -0.154 OA
ATOM     32  O   UNL     1      33.081  -8.092 -20.921  0.00  0.00    -0.154 OA
BRANCH  30  33
ATOM     33  C   UNL     1      33.711  -7.355 -23.351  0.00  0.00    +0.172 C 
BRANCH  33  34
ATOM     34  C   UNL     1      35.158  -7.710 -23.051  0.00  0.00    +0.027 C 
ATOM     35  C   UNL     1      35.797  -8.460 -24.207  0.00  0.00    +0.002 C 
ENDBRANCH  33  34
ENDBRANCH  30  33
ENDBRANCH  28  30
ENDBRANCH  23  28
ENDBRANCH   2  22
TORSDOF 7
ENDMDL
MODEL 2
REMARK VINA RESULT:     -12.0      3.426      5.788
REMARK  Name = 42611257
REMARK  7 active torsions:
REMARK  status: ('A' for Active; 'I' for Inactive)
REMARK    1  A    between atoms: C_2  and  C_6
REMARK    2  A    between atoms: C_2  and  C_22
REMARK    3  A    between atoms: C_10  and  C_14
REMARK    4  A    between atoms: C_23  and  N_28
REMARK    5  A    between atoms: N_28  and  S_30
REMARK    6  A    between atoms: S_30  and  C_33
REMARK    7  A    between atoms: C_33  and  C_34
REMARK                            x       y       z     vdW  Elec       q    Type
REMARK                         _______ _______ _______ _____ _____    ______ ____
ROOT
ATOM      1  O   UNL     1      36.740 -18.890 -19.898  0.00  0.00    -0.286 OA
ATOM      2  C   UNL     1      35.586 -18.766 -20.363  0.00  0.00    +0.201 C 
ENDROOT
BRANCH   2   6
ATOM      3  N   UNL     1      32.503 -20.555 -19.806  0.00  0.00    -0.297 N 
ATOM      4  N   UNL     1      32.805 -22.040 -17.934  0.00  0.00    -0.229 NA
ATOM      5  C   UNL     1      34.516 -20.534 -18.839  0.00  0.00    +0.036 C 
ATOM      6  C   UNL     1      34.514 -19.608 -19.915  0.00  0.00    +0.056 C 
ATOM      7  C   UNL     1      33.248 -21.107 -18.798  0.00  0.00    +0.132 C 
ATOM      8  C   UNL     1      35.450 -20.962 -17.881  0.00  0.00    +0.004 C 
ATOM      9  C   UNL     1      33.263 -19.642 -20.491  0.00  0.00    +0.066 C 
ATOM     10  C   UNL     1      35.042 -21.927 -16.961  0.00  0.00    +0.019 C 
ATOM     11  C   UNL     1      33.744 -22.415 -17.036  0.00  0.00    +0.100 C 
ATOM     12  H   UNL     1      31.566 -20.780 -20.008  0.00  0.00    +0.154 HD
BRANCH  10  14
ATOM     13 CL   UNL     1      38.812 -23.921 -12.803  0.00  0.00    -0.082 Cl
ATOM     14  C   UNL     1      35.956 -22.410 -15.951  0.00  0.00    +0.002 C 
ATOM     15  C   UNL     1      35.532 -23.361 -15.023  0.00  0.00    +0.001 C 
ATOM     16  C   UNL     1      37.263 -21.925 -15.905  0.00  0.00    +0.001 C 
ATOM     17  C   UNL     1      36.415 -23.829 -14.050  0.00  0.00    +0.011 C 
ATOM     18  C   UNL     1      38.146 -22.392 -14.932  0.00  0.00    +0.011 C 
ATOM     19  C   UNL     1      37.722 -23.344 -14.004  0.00  0.00    +0.058 C 
ENDBRANCH  10  14
ENDBRANCH   2   6
BRANCH   2  22
ATOM     20  F   UNL     1      35.425 -16.021 -19.725  0.00  0.00    -0.203 F 
ATOM     21  F   UNL     1      35.381 -19.323 -23.133  0.00  0.00    -0.204 F 
ATOM     22  C   UNL     1      35.407 -17.695 -21.404  0.00  0.00    +0.095 C 
ATOM     23  C   UNL     1      35.169 -15.361 -21.985  0.00  0.00    +0.092 C 
ATOM     24  C   UNL     1      35.335 -16.355 -21.021  0.00  0.00    +0.160 C 
ATOM     25  C   UNL     1      35.313 -18.040 -22.753  0.00  0.00    +0.145 C 
ATOM     26  C   UNL     1      35.075 -15.707 -23.334  0.00  0.00    +0.020 C 
ATOM     27  C   UNL     1      35.148 -17.046 -23.717  0.00  0.00    +0.031 C 
BRANCH  23  28
ATOM     28  N   UNL     1      35.095 -13.990 -21.596  0.00  0.00    -0.217 N 
ATOM     29  H   UNL     1      35.761 -13.602 -20.983  0.00  0.00    +0.173 HD
BRANCH  28  30
ATOM     30  S   UNL     1      33.810 -13.034 -22.228  0.00  0.00    +0.054 S 
ATOM     31  O   UNL     1      34.290 -11.674 -22.398  0.00  0.00    -0.154 OA
ATOM     32  O   UNL     1      33.139 -13.719 -23.314  0.00  0.00    -0.154 OA
BRANCH  30  33
ATOM     33  C   UNL     1      32.711 -13.021 -20.829  0.00  0.00    +0.172 C 
BRANCH  33  34
ATOM     34  C   UNL     1      32.270 -11.608 -20.484  0.00  0.00    +0.027 C 
ATOM     35  C   UNL     1      31.720 -11.527 -19.071  0.00  0.00    +0.002 C 
ENDBRANCH  33  34
ENDBRANCH  30  33
ENDBRANCH  28  30
ENDBRANCH  23  28
ENDBRANCH   2  22
TORSDOF 7
ENDMDL
MODEL 3
REMARK VINA RESULT:     -11.7      5.154     10.203
REMARK  Name = 42611257
REMARK  7 active torsions:
REMARK  status: ('A' for Active; 'I' for Inactive)
REMARK    1  A    between atoms: C_2  and  C_6
REMARK    2  A    between atoms: C_2  and  C_22
REMARK    3  A    between atoms: C_10  and  C_14
REMARK    4  A    between atoms: C_23  and  N_28
REMARK    5  A    between atoms: N_28  and  S_30
REMARK    6  A    between atoms: S_30  and  C_33
REMARK    7  A    between atoms: C_33  and  C_34
REMARK                            x       y       z     vdW  Elec       q    Type
REMARK                         _______ _______ _______ _____ _____    ______ ____
ROOT
ATOM      1  O   UNL     1      35.418 -16.334 -20.310  0.00  0.00    -0.286 OA
ATOM      2  C   UNL     1      35.297 -17.349 -21.029  0.00  0.00    +0.201 C 
ENDROOT
BRANCH   2   6
ATOM      3  N   UNL     1      34.631 -17.812 -24.544  0.00  0.00    -0.297 N 
ATOM      4  N   UNL     1      34.046 -15.681 -25.502  0.00  0.00    -0.229 NA
ATOM      5  C   UNL     1      34.616 -16.069 -23.149  0.00  0.00    +0.036 C 
ATOM      6  C   UNL     1      34.979 -17.234 -22.424  0.00  0.00    +0.056 C 
ATOM      7  C   UNL     1      34.406 -16.463 -24.467  0.00  0.00    +0.132 C 
ATOM      8  C   UNL     1      34.439 -14.709 -22.845  0.00  0.00    +0.004 C 
ATOM      9  C   UNL     1      34.980 -18.291 -23.308  0.00  0.00    +0.066 C 
ATOM     10  C   UNL     1      34.066 -13.855 -23.881  0.00  0.00    +0.019 C 
ATOM     11  C   UNL     1      33.889 -14.383 -25.153  0.00  0.00    +0.100 C 
ATOM     12  H   UNL     1      34.553 -18.354 -25.363  0.00  0.00    +0.154 HD
BRANCH  10  14
ATOM     13 CL   UNL     1      33.249  -8.043 -22.861  0.00  0.00    -0.082 Cl
ATOM     14  C   UNL     1      33.866 -12.445 -23.633  0.00  0.00    +0.002 C 
ATOM     15  C   UNL     1      33.291 -12.021 -22.435  0.00  0.00    +0.001 C 
ATOM     16  C   UNL     1      34.249 -11.508 -24.593  0.00  0.00    +0.001 C 
ATOM     17  C   UNL     1      33.100 -10.660 -22.196  0.00  0.00    +0.011 C 
ATOM     18  C   UNL     1      34.058 -10.147 -24.354  0.00  0.00    +0.011 C 
ATOM     19  C   UNL     1      33.484  -9.723 -23.156  0.00  0.00    +0.058 C 
ENDBRANCH  10  14
ENDBRANCH   2   6
BRANCH   2  22
ATOM     20  F   UNL     1      33.162 -18.917 -20.054  0.00  0.00    -0.203 F 
ATOM     21  F   UNL     1      37.856 -18.484 -20.597  0.00  0.00    -0.204 F 
ATOM     22  C   UNL     1      35.503 -18.671 -20.341  0.00  0.00    +0.095 C 
ATOM     23  C   UNL     1      34.593 -20.622 -19.243  0.00  0.00    +0.092 C 
ATOM     24  C   UNL     1      34.403 -19.396 -19.882  0.00  0.00    +0.160 C 
ATOM     25  C   UNL     1      36.792 -19.172 -20.161  0.00  0.00    +0.145 C 
ATOM     26  C   UNL     1      35.883 -21.122 -19.063  0.00  0.00    +0.020 C 
ATOM     27  C   UNL     1      36.982 -20.397 -19.522  0.00  0.00    +0.031 C 
BRANCH  23  28
ATOM     28  N   UNL     1      33.469 -21.366 -18.772  0.00  0.00    -0.217 N 
ATOM     29  H   UNL     1      32.572 -21.221 -19.151  0.00  0.00    +0.173 HD
BRANCH  28  30
ATOM     30  S   UNL     1      33.727 -22.525 -17.525  0.00  0.00    +0.054 S 
ATOM     31  O   UNL     1      33.725 -23.849 -18.121  0.00  0.00    -0.154 OA
ATOM     32  O   UNL     1      34.805 -22.114 -16.649  0.00  0.00    -0.154 OA
BRANCH  30  33
ATOM     33  C   UNL     1      32.201 -22.363 -16.625  0.00  0.00    +0.172 C 
BRANCH  33  34
ATOM     34  C   UNL     1      32.380 -22.729 -15.161  0.00  0.00    +0.027 C 
ATOM     35  C   UNL     1      31.165 -22.336 -14.338  0.00  0.00    +0.002 C 
ENDBRANCH  33  34
ENDBRANCH  30  33
ENDBRANCH  28  30
ENDBRANCH  23  28
ENDBRANCH   2  22
TORSDOF 7
ENDMDL
MODEL 4
REMARK VINA RESULT:     -11.6      1.526      1.974
REMARK  Name = 42611257
REMARK  7 active torsions:
REMARK  status: ('A' for Active; 'I' for Inactive)
REMARK    1  A    between atoms: C_2  and  C_6
REMARK    2  A    between atoms: C_2  and  C_22
REMARK    3  A    between atoms: C_10  and  C_14
REMARK    4  A    between atoms: C_23  and  N_28
REMARK    5  A    between atoms: N_28  and  S_30
REMARK    6  A    between atoms: S_30  and  C_33
REMARK    7  A    between atoms: C_33  and  C_34
REMARK                            x       y       z     vdW  Elec       q    Type
REMARK                         _______ _______ _______ _____ _____    ______ ____
ROOT
ATOM      1  O   UNL     1      35.429 -12.361 -21.937  0.00  0.00    -0.286 OA
ATOM      2  C   UNL     1      34.296 -12.652 -22.378  0.00  0.00    +0.201 C 
ENDROOT
BRANCH   2   6
ATOM      3  N   UNL     1      33.639 -14.678 -25.290  0.00  0.00    -0.297 N 
ATOM      4  N   UNL     1      34.147 -16.971 -24.759  0.00  0.00    -0.229 NA
ATOM      5  C   UNL     1      34.375 -15.077 -23.219  0.00  0.00    +0.036 C 
ATOM      6  C   UNL     1      34.127 -13.686 -23.358  0.00  0.00    +0.056 C 
ATOM      7  C   UNL     1      34.061 -15.666 -24.441  0.00  0.00    +0.132 C 
ATOM      8  C   UNL     1      34.833 -15.920 -22.193  0.00  0.00    +0.004 C 
ATOM      9  C   UNL     1      33.675 -13.470 -24.642  0.00  0.00    +0.066 C 
ATOM     10  C   UNL     1      34.940 -17.281 -22.470  0.00  0.00    +0.019 C 
ATOM     11  C   UNL     1      34.593 -17.736 -23.736  0.00  0.00    +0.100 C 
ATOM     12  H   UNL     1      33.355 -14.814 -26.222  0.00  0.00    +0.154 HD
BRANCH  10  14
ATOM     13 CL   UNL     1      36.855 -21.071 -18.293  0.00  0.00    -0.082 Cl
ATOM     14  C   UNL     1      35.406 -18.201 -21.458  0.00  0.00    +0.002 C 
ATOM     15  C   UNL     1      36.741 -18.179 -21.054  0.00  0.00    +0.001 C 
ATOM     16  C   UNL     1      34.519 -19.112 -20.882  0.00  0.00    +0.001 C 
ATOM     17  C   UNL     1      37.189 -19.066 -20.075  0.00  0.00    +0.011 C 
ATOM     18  C   UNL     1      34.967 -19.999 -19.904  0.00  0.00    +0.011 C 
ATOM     19  C   UNL     1      36.302 -19.976 -19.500  0.00  0.00    +0.058 C 
ENDBRANCH  10  14
ENDBRANCH   2   6
BRANCH   2  22
ATOM     20  F   UNL     1      33.562 -10.117 -23.379  0.00  0.00    -0.203 F 
ATOM     21  F   UNL     1      32.683 -13.560 -20.233  0.00  0.00    -0.204 F 
ATOM     22  C   UNL     1      33.148 -11.854 -21.820  0.00  0.00    +0.095 C 
ATOM     23  C   UNL     1      31.775  -9.866 -21.844  0.00  0.00    +0.092 C 
ATOM     24  C   UNL     1      32.838 -10.607 -22.361  0.00  0.00    +0.160 C 
ATOM     25  C   UNL     1      32.395 -12.362 -20.761  0.00  0.00    +0.145 C 
ATOM     26  C   UNL     1      31.021 -10.375 -20.785  0.00  0.00    +0.020 C 
ATOM     27  C   UNL     1      31.331 -11.622 -20.244  0.00  0.00    +0.031 C 
BRANCH  23  28
ATOM     28  N   UNL     1      31.455  -8.589 -22.395  0.00  0.00    -0.217 N 
ATOM     29  H   UNL     1      30.814  -8.506 -23.139  0.00  0.00    +0.173 HD
BRANCH  28  30
ATOM     30  S   UNL     1      32.220  -7.199 -21.725  0.00  0.00    +0.054 S 
ATOM     31  O   UNL     1      31.231  -6.142 -21.611  0.00  0.00    -0.154 OA
ATOM     32  O   UNL     1      33.047  -7.559 -20.592  0.00  0.00    -0.154 OA
BRANCH  30  33
ATOM     33  C   UNL     1      33.297  -6.755 -23.069  0.00  0.00    +0.172 C 
BRANCH  33  34
ATOM     34  C   UNL     1      34.701  -7.296 -22.855  0.00  0.00    +0.027 C 
ATOM     35  C   UNL     1      35.441  -7.458 -24.171  0.00  0.00    +0.002 C 
ENDBRANCH  33  34
ENDBRANCH  30  33
ENDBRANCH  28  30
ENDBRANCH  23  28
ENDBRANCH   2  22
TORSDOF 7
ENDMDL
MODEL 5
REMARK VINA RESULT:     -11.5      1.949      2.571
REMARK  Name = 42611257
REMARK  7 active torsions:
REMARK  status: ('A' for Active; 'I' for Inactive)
REMARK    1  A    between atoms: C_2  and  C_6
REMARK    2  A    between atoms: C_2  and  C_22
REMARK    3  A    between atoms: C_10  and  C_14
REMARK    4  A    between atoms: C_23  and  N_28
REMARK    5  A    between atoms: N_28  and  S_30
REMARK    6  A    between atoms: S_30  and  C_33
REMARK    7  A    between atoms: C_33  and  C_34
REMARK                            x       y       z     vdW  Elec       q    Type
REMARK                         _______ _______ _______ _____ _____    ______ ____
ROOT
ATOM      1  O   UNL     1      35.285 -12.630 -21.628  0.00  0.00    -0.286 OA
ATOM      2  C   UNL     1      34.297 -12.657 -22.394  0.00  0.00    +0.201 C 
ENDROOT
BRANCH   2   6
ATOM      3  N   UNL     1      33.704 -14.688 -25.315  0.00  0.00    -0.297 N 
ATOM      4  N   UNL     1      34.217 -16.978 -24.775  0.00  0.00    -0.229 NA
ATOM      5  C   UNL     1      34.406 -15.082 -23.232  0.00  0.00    +0.036 C 
ATOM      6  C   UNL     1      34.151 -13.693 -23.376  0.00  0.00    +0.056 C 
ATOM      7  C   UNL     1      34.117 -15.673 -24.459  0.00  0.00    +0.132 C 
ATOM      8  C   UNL     1      34.851 -15.922 -22.198  0.00  0.00    +0.004 C 
ATOM      9  C   UNL     1      33.721 -13.480 -24.668  0.00  0.00    +0.066 C 
ATOM     10  C   UNL     1      34.971 -17.283 -22.473  0.00  0.00    +0.019 C 
ATOM     11  C   UNL     1      34.649 -17.739 -23.744  0.00  0.00    +0.100 C 
ATOM     12  H   UNL     1      33.437 -14.826 -26.253  0.00  0.00    +0.154 HD
BRANCH  10  14
ATOM     13 CL   UNL     1      36.837 -21.059 -18.261  0.00  0.00    -0.082 Cl
ATOM     14  C   UNL     1      35.425 -18.200 -21.452  0.00  0.00    +0.002 C 
ATOM     15  C   UNL     1      36.748 -18.155 -21.011  0.00  0.00    +0.001 C 
ATOM     16  C   UNL     1      34.539 -19.129 -20.907  0.00  0.00    +0.001 C 
ATOM     17  C   UNL     1      37.184 -19.039 -20.024  0.00  0.00    +0.011 C 
ATOM     18  C   UNL     1      34.976 -20.014 -19.921  0.00  0.00    +0.011 C 
ATOM     19  C   UNL     1      36.298 -19.969 -19.479  0.00  0.00    +0.058 C 
ENDBRANCH  10  14
ENDBRANCH   2   6
BRANCH   2  22
ATOM     20  F   UNL     1      34.360 -10.276 -23.908  0.00  0.00    -0.203 F 
ATOM     21  F   UNL     1      32.184 -12.774 -20.511  0.00  0.00    -0.204 F 
ATOM     22  C   UNL     1      33.295 -11.549 -22.215  0.00  0.00    +0.095 C 
ATOM     23  C   UNL     1      32.456  -9.368 -22.831  0.00  0.00    +0.092 C 
ATOM     24  C   UNL     1      33.384 -10.397 -22.997  0.00  0.00    +0.160 C 
ATOM     25  C   UNL     1      32.279 -11.672 -21.267  0.00  0.00    +0.145 C 
ATOM     26  C   UNL     1      31.439  -9.492 -21.884  0.00  0.00    +0.020 C 
ATOM     27  C   UNL     1      31.351 -10.644 -21.102  0.00  0.00    +0.031 C 
BRANCH  23  28
ATOM     28  N   UNL     1      32.544  -8.188 -23.630  0.00  0.00    -0.217 N 
ATOM     29  H   UNL     1      32.044  -8.112 -24.475  0.00  0.00    +0.173 HD
BRANCH  28  30
ATOM     30  S   UNL     1      33.546  -6.903 -23.075  0.00  0.00    +0.054 S 
ATOM     31  O   UNL     1      34.791  -7.470 -22.587  0.00  0.00    -0.154 OA
ATOM     32  O   UNL     1      33.558  -5.808 -24.023  0.00  0.00    -0.154 OA
BRANCH  30  33
ATOM     33  C   UNL     1      32.624  -6.380 -21.648  0.00  0.00    +0.172 C 
BRANCH  33  34
ATOM     34  C   UNL     1      33.364  -6.701 -20.361  0.00  0.00    +0.027 C 
ATOM     35  C   UNL     1      32.485  -6.479 -19.142  0.00  0.00    +0.002 C 
ENDBRANCH  33  34
ENDBRANCH  30  33
ENDBRANCH  28  30
ENDBRANCH  23  28
ENDBRANCH   2  22
TORSDOF 7
ENDMDL
MODEL 6
REMARK VINA RESULT:     -11.4      2.046      3.626
REMARK  Name = 42611257
REMARK  7 active torsions:
REMARK  status: ('A' for Active; 'I' for Inactive)
REMARK    1  A    between atoms: C_2  and  C_6
REMARK    2  A    between atoms: C_2  and  C_22
REMARK    3  A    between atoms: C_10  and  C_14
REMARK    4  A    between atoms: C_23  and  N_28
REMARK    5  A    between atoms: N_28  and  S_30
REMARK    6  A    between atoms: S_30  and  C_33
REMARK    7  A    between atoms: C_33  and  C_34
REMARK                            x       y       z     vdW  Elec       q    Type
REMARK                         _______ _______ _______ _____ _____    ______ ____
ROOT
ATOM      1  O   UNL     1      34.926 -12.728 -21.737  0.00  0.00    -0.286 OA
ATOM      2  C   UNL     1      34.349 -12.529 -22.828  0.00  0.00    +0.201 C 
ENDROOT
BRANCH   2   6
ATOM      3  N   UNL     1      33.553 -14.669 -25.620  0.00  0.00    -0.297 N 
ATOM      4  N   UNL     1      34.036 -16.947 -25.004  0.00  0.00    -0.229 NA
ATOM      5  C   UNL     1      34.353 -14.990 -23.560  0.00  0.00    +0.036 C 
ATOM      6  C   UNL     1      34.126 -13.602 -23.754  0.00  0.00    +0.056 C 
ATOM      7  C   UNL     1      33.986 -15.627 -24.742  0.00  0.00    +0.132 C 
ATOM      8  C   UNL     1      34.831 -15.796 -22.513  0.00  0.00    +0.004 C 
ATOM      9  C   UNL     1      33.633 -13.434 -25.030  0.00  0.00    +0.066 C 
ATOM     10  C   UNL     1      34.904 -17.170 -22.732  0.00  0.00    +0.019 C 
ATOM     11  C   UNL     1      34.504 -17.673 -23.963  0.00  0.00    +0.100 C 
ATOM     12  H   UNL     1      33.233 -14.841 -26.535  0.00  0.00    +0.154 HD
BRANCH  10  14
ATOM     13 CL   UNL     1      36.904 -20.812 -18.465  0.00  0.00    -0.082 Cl
ATOM     14  C   UNL     1      35.388 -18.053 -21.696  0.00  0.00    +0.002 C 
ATOM     15  C   UNL     1      34.535 -19.003 -21.133  0.00  0.00    +0.001 C 
ATOM     16  C   UNL     1      36.709 -17.956 -21.259  0.00  0.00    +0.001 C 
ATOM     17  C   UNL     1      35.004 -19.857 -20.134  0.00  0.00    +0.011 C 
ATOM     18  C   UNL     1      37.178 -18.808 -20.260  0.00  0.00    +0.011 C 
ATOM     19  C   UNL     1      36.326 -19.759 -19.697  0.00  0.00    +0.058 C 
ENDBRANCH  10  14
ENDBRANCH   2   6
BRANCH   2  22
ATOM     20  F   UNL     1      32.597 -11.116 -21.125  0.00  0.00    -0.203 F 
ATOM     21  F   UNL     1      35.220 -11.046 -25.079  0.00  0.00    -0.204 F 
ATOM     22  C   UNL     1      33.917 -11.112 -23.094  0.00  0.00    +0.095 C 
ATOM     23  C   UNL     1      32.646  -9.158 -22.458  0.00  0.00    +0.092 C 
ATOM     24  C   UNL     1      33.048 -10.471 -22.211  0.00  0.00    +0.160 C 
ATOM     25  C   UNL     1      34.385 -10.440 -24.224  0.00  0.00    +0.145 C 
ATOM     26  C   UNL     1      33.115  -8.486 -23.588  0.00  0.00    +0.020 C 
ATOM     27  C   UNL     1      33.983  -9.127 -24.470  0.00  0.00    +0.031 C 
BRANCH  23  28
ATOM     28  N   UNL     1      31.756  -8.500 -21.556  0.00  0.00    -0.217 N 
ATOM     29  H   UNL     1      30.790  -8.687 -21.572  0.00  0.00    +0.173 HD
BRANCH  28  30
ATOM     30  S   UNL     1      32.421  -7.370 -20.439  0.00  0.00    +0.054 S 
ATOM     31  O   UNL     1      33.800  -7.112 -20.814  0.00  0.00    -0.154 OA
ATOM     32  O   UNL     1      31.504  -6.273 -20.204  0.00  0.00    -0.154 OA
BRANCH  30  33
ATOM     33  C   UNL     1      32.465  -8.370 -18.970  0.00  0.00    +0.172 C 
BRANCH  33  34
ATOM     34  C   UNL     1      31.297  -9.341 -18.926  0.00  0.00    +0.027 C 
ATOM     35  C   UNL     1      31.582 -10.513 -18.002  0.00  0.00    +0.002 C 
ENDBRANCH  33  34
ENDBRANCH  30  33
ENDBRANCH  28  30
ENDBRANCH  23  28
ENDBRANCH   2  22
TORSDOF 7
ENDMDL
MODEL 7
REMARK VINA RESULT:     -11.3      4.751     10.158
REMARK  Name = 42611257
REMARK  7 active torsions:
REMARK  status: ('A' for Active; 'I' for Inactive)
REMARK    1  A    between atoms: C_2  and  C_6
REMARK    2  A    between atoms: C_2  and  C_22
REMARK    3  A    between atoms: C_10  and  C_14
REMARK    4  A    between atoms: C_23  and  N_28
REMARK    5  A    between atoms: N_28  and  S_30
REMARK    6  A    between atoms: S_30  and  C_33
REMARK    7  A    between atoms: C_33  and  C_34
REMARK                            x       y       z     vdW  Elec       q    Type
REMARK                         _______ _______ _______ _____ _____    ______ ____
ROOT
ATOM      1  O   UNL     1      34.292 -11.565 -23.400  0.00  0.00    -0.286 OA
ATOM      2  C   UNL     1      33.843 -12.538 -22.755  0.00  0.00    +0.201 C 
ENDROOT
BRANCH   2   6
ATOM      3  N   UNL     1      31.965 -12.802 -19.686  0.00  0.00    -0.297 N 
ATOM      4  N   UNL     1      31.274 -10.594 -19.017  0.00  0.00    -0.229 NA
ATOM      5  C   UNL     1      32.586 -11.121 -21.020  0.00  0.00    +0.036 C 
ATOM      6  C   UNL     1      33.075 -12.341 -21.559  0.00  0.00    +0.056 C 
ATOM      7  C   UNL     1      31.900 -11.444 -19.853  0.00  0.00    +0.132 C 
ATOM      8  C   UNL     1      32.643  -9.766 -21.383  0.00  0.00    +0.004 C 
ATOM      9  C   UNL     1      32.677 -13.357 -20.718  0.00  0.00    +0.066 C 
ATOM     10  C   UNL     1      32.011  -8.843 -20.552  0.00  0.00    +0.019 C 
ATOM     11  C   UNL     1      31.360  -9.304 -19.415  0.00  0.00    +0.100 C 
ATOM     12  H   UNL     1      31.563 -13.302 -18.940  0.00  0.00    +0.154 HD
BRANCH  10  14
ATOM     13 CL   UNL     1      32.110  -3.034 -21.865  0.00  0.00    -0.082 Cl
ATOM     14  C   UNL     1      32.034  -7.434 -20.869  0.00  0.00    +0.002 C 
ATOM     15  C   UNL     1      32.357  -6.501 -19.884  0.00  0.00    +0.001 C 
ATOM     16  C   UNL     1      31.733  -7.006 -22.163  0.00  0.00    +0.001 C 
ATOM     17  C   UNL     1      32.381  -5.140 -20.192  0.00  0.00    +0.011 C 
ATOM     18  C   UNL     1      31.757  -5.646 -22.471  0.00  0.00    +0.011 C 
ATOM     19  C   UNL     1      32.081  -4.713 -21.485  0.00  0.00    +0.058 C 
ENDBRANCH  10  14
ENDBRANCH   2   6
BRANCH   2  22
ATOM     20  F   UNL     1      35.555 -14.362 -21.449  0.00  0.00    -0.203 F 
ATOM     21  F   UNL     1      32.781 -13.496 -25.200  0.00  0.00    -0.204 F 
ATOM     22  C   UNL     1      34.162 -13.899 -23.310  0.00  0.00    +0.095 C 
ATOM     23  C   UNL     1      35.315 -16.015 -23.128  0.00  0.00    +0.092 C 
ATOM     24  C   UNL     1      35.018 -14.753 -22.614  0.00  0.00    +0.160 C 
ATOM     25  C   UNL     1      33.604 -14.307 -24.522  0.00  0.00    +0.145 C 
ATOM     26  C   UNL     1      34.756 -16.423 -24.340  0.00  0.00    +0.020 C 
ATOM     27  C   UNL     1      33.901 -15.570 -25.036  0.00  0.00    +0.031 C 
BRANCH  23  28
ATOM     28  N   UNL     1      36.189 -16.891 -22.417  0.00  0.00    -0.217 N 
ATOM     29  H   UNL     1      37.151 -16.926 -22.628  0.00  0.00    +0.173 HD
BRANCH  28  30
ATOM     30  S   UNL     1      35.517 -17.884 -21.182  0.00  0.00    +0.054 S 
ATOM     31  O   UNL     1      35.173 -17.040 -20.052  0.00  0.00    -0.154 OA
ATOM     32  O   UNL     1      34.548 -18.810 -21.731  0.00  0.00    -0.154 OA
BRANCH  30  33
ATOM     33  C   UNL     1      36.956 -18.816 -20.710  0.00  0.00    +0.172 C 
BRANCH  33  34
ATOM     34  C   UNL     1      36.755 -19.504 -19.370  0.00  0.00    +0.027 C 
ATOM     35  C   UNL     1      36.113 -20.870 -19.536  0.00  0.00    +0.002 C 
ENDBRANCH  33  34
ENDBRANCH  30  33
ENDBRANCH  28  30
ENDBRANCH  23  28
ENDBRANCH   2  22
TORSDOF 7
ENDMDL
MODEL 8
REMARK VINA RESULT:     -10.5      4.614     10.261
REMARK  Name = 42611257
REMARK  7 active torsions:
REMARK  status: ('A' for Active; 'I' for Inactive)
REMARK    1  A    between atoms: C_2  and  C_6
REMARK    2  A    between atoms: C_2  and  C_22
REMARK    3  A    between atoms: C_10  and  C_14
REMARK    4  A    between atoms: C_23  and  N_28
REMARK    5  A    between atoms: N_28  and  S_30
REMARK    6  A    between atoms: S_30  and  C_33
REMARK    7  A    between atoms: C_33  and  C_34
REMARK                            x       y       z     vdW  Elec       q    Type
REMARK                         _______ _______ _______ _____ _____    ______ ____
ROOT
ATOM      1  O   UNL     1      34.307 -12.421 -24.494  0.00  0.00    -0.286 OA
ATOM      2  C   UNL     1      33.929 -13.156 -23.556  0.00  0.00    +0.201 C 
ENDROOT
BRANCH   2   6
ATOM      3  N   UNL     1      32.292 -12.494 -20.410  0.00  0.00    -0.297 N 
ATOM      4  N   UNL     1      31.810 -10.138 -20.276  0.00  0.00    -0.229 NA
ATOM      5  C   UNL     1      32.918 -11.253 -22.158  0.00  0.00    +0.036 C 
ATOM      6  C   UNL     1      33.275 -12.605 -22.403  0.00  0.00    +0.056 C 
ATOM      7  C   UNL     1      32.307 -11.219 -20.908  0.00  0.00    +0.132 C 
ATOM      8  C   UNL     1      33.038 -10.039 -22.853  0.00  0.00    +0.004 C 
ATOM      9  C   UNL     1      32.878 -13.346 -21.311  0.00  0.00    +0.066 C 
ATOM     10  C   UNL     1      32.539  -8.889 -22.244  0.00  0.00    +0.019 C 
ATOM     11  C   UNL     1      31.953  -8.998 -20.989  0.00  0.00    +0.100 C 
ATOM     12  H   UNL     1      31.918 -12.759 -19.539  0.00  0.00    +0.154 HD
BRANCH  10  14
ATOM     13 CL   UNL     1      32.934  -3.607 -24.969  0.00  0.00    -0.082 Cl
ATOM     14  C   UNL     1      32.634  -7.608 -22.906  0.00  0.00    +0.002 C 
ATOM     15  C   UNL     1      31.628  -6.657 -22.733  0.00  0.00    +0.001 C 
ATOM     16  C   UNL     1      33.732  -7.322 -23.717  0.00  0.00    +0.001 C 
ATOM     17  C   UNL     1      31.721  -5.420 -23.371  0.00  0.00    +0.011 C 
ATOM     18  C   UNL     1      33.825  -6.085 -24.355  0.00  0.00    +0.011 C 
ATOM     19  C   UNL     1      32.819  -5.134 -24.182  0.00  0.00    +0.058 C 
ENDBRANCH  10  14
ENDBRANCH   2   6
BRANCH   2  22
ATOM     20  F   UNL     1      35.803 -14.546 -21.968  0.00  0.00    -0.203 F 
ATOM     21  F   UNL     1      32.619 -14.771 -25.479  0.00  0.00    -0.204 F 
ATOM     22  C   UNL     1      34.206 -14.626 -23.718  0.00  0.00    +0.095 C 
ATOM     23  C   UNL     1      35.404 -16.615 -23.051  0.00  0.00    +0.092 C 
ATOM     24  C   UNL     1      35.146 -15.252 -22.900  0.00  0.00    +0.160 C 
ATOM     25  C   UNL     1      33.524 -15.362 -24.687  0.00  0.00    +0.145 C 
ATOM     26  C   UNL     1      34.721 -17.351 -24.020  0.00  0.00    +0.020 C 
ATOM     27  C   UNL     1      33.781 -16.724 -24.837  0.00  0.00    +0.031 C 
BRANCH  23  28
ATOM     28  N   UNL     1      36.366 -17.259 -22.215  0.00  0.00    -0.217 N 
ATOM     29  H   UNL     1      37.279 -17.436 -22.537  0.00  0.00    +0.173 HD
BRANCH  28  30
ATOM     30  S   UNL     1      35.884 -17.717 -20.626  0.00  0.00    +0.054 S 
ATOM     31  O   UNL     1      37.000 -18.389 -19.984  0.00  0.00    -0.154 OA
ATOM     32  O   UNL     1      35.196 -16.630 -19.959  0.00  0.00    -0.154 OA
BRANCH  30  33
ATOM     33  C   UNL     1      34.681 -18.969 -21.012  0.00  0.00    +0.172 C 
BRANCH  33  34
ATOM     34  C   UNL     1      34.444 -19.892 -19.828  0.00  0.00    +0.027 C 
ATOM     35  C   UNL     1      32.960 -20.104 -19.577  0.00  0.00    +0.002 C 
ENDBRANCH  33  34
ENDBRANCH  30  33
ENDBRANCH  28  30
ENDBRANCH  23  28
ENDBRANCH   2  22
TORSDOF 7
ENDMDL
MODEL 9
REMARK VINA RESULT:     -10.4      7.279     11.622
REMARK  Name = 42611257
REMARK  7 active torsions:
REMARK  status: ('A' for Active; 'I' for Inactive)
REMARK    1  A    between atoms: C_2  and  C_6
REMARK    2  A    between atoms: C_2  and  C_22
REMARK    3  A    between atoms: C_10  and  C_14
REMARK    4  A    between atoms: C_23  and  N_28
REMARK    5  A    between atoms: N_28  and  S_30
REMARK    6  A    between atoms: S_30  and  C_33
REMARK    7  A    between atoms: C_33  and  C_34
REMARK                            x       y       z     vdW  Elec       q    Type
REMARK                         _______ _______ _______ _____ _____    ______ ____
ROOT
ATOM      1  O   UNL     1      33.305 -22.280 -18.972  0.00  0.00    -0.286 OA
ATOM      2  C   UNL     1      33.927 -21.989 -17.927  0.00  0.00    +0.201 C 
ENDROOT
BRANCH   2   6
ATOM      3  N   UNL     1      37.232 -20.628 -17.438  0.00  0.00    -0.297 N 
ATOM      4  N   UNL     1      37.659 -19.010 -19.170  0.00  0.00    -0.229 NA
ATOM      5  C   UNL     1      35.593 -20.307 -18.921  0.00  0.00    +0.036 C 
ATOM      6  C   UNL     1      35.176 -21.285 -17.980  0.00  0.00    +0.056 C 
ATOM      7  C   UNL     1      36.878 -19.919 -18.555  0.00  0.00    +0.132 C 
ATOM      8  C   UNL     1      35.030 -19.695 -20.053  0.00  0.00    +0.004 C 
ATOM      9  C   UNL     1      36.204 -21.462 -17.080  0.00  0.00    +0.066 C 
ATOM     10  C   UNL     1      35.796 -18.746 -20.727  0.00  0.00    +0.019 C 
ATOM     11  C   UNL     1      37.068 -18.454 -20.253  0.00  0.00    +0.100 C 
ATOM     12  H   UNL     1      38.092 -20.552 -16.966  0.00  0.00    +0.154 HD
BRANCH  10  14
ATOM     13 CL   UNL     1      33.653 -16.010 -25.565  0.00  0.00    -0.082 Cl
ATOM     14  C   UNL     1      35.275 -18.081 -21.900  0.00  0.00    +0.002 C 
ATOM     15  C   UNL     1      35.431 -16.703 -22.049  0.00  0.00    +0.001 C 
ATOM     16  C   UNL     1      34.617 -18.819 -22.884  0.00  0.00    +0.001 C 
ATOM     17  C   UNL     1      34.930 -16.062 -23.182  0.00  0.00    +0.011 C 
ATOM     18  C   UNL     1      34.115 -18.179 -24.017  0.00  0.00    +0.011 C 
ATOM     19  C   UNL     1      34.272 -16.800 -24.167  0.00  0.00    +0.058 C 
ENDBRANCH  10  14
ENDBRANCH   2   6
BRANCH   2  22
ATOM     20  F   UNL     1      35.260 -23.574 -16.010  0.00  0.00    -0.203 F 
ATOM     21  F   UNL     1      31.276 -21.292 -17.209  0.00  0.00    -0.204 F 
ATOM     22  C   UNL     1      33.284 -22.424 -16.637  0.00  0.00    +0.095 C 
ATOM     23  C   UNL     1      33.405 -23.613 -14.537  0.00  0.00    +0.092 C 
ATOM     24  C   UNL     1      34.000 -23.208 -15.732  0.00  0.00    +0.160 C 
ATOM     25  C   UNL     1      31.974 -22.045 -16.347  0.00  0.00    +0.145 C 
ATOM     26  C   UNL     1      32.094 -23.233 -14.247  0.00  0.00    +0.020 C 
ATOM     27  C   UNL     1      31.379 -22.449 -15.152  0.00  0.00    +0.031 C 
BRANCH  23  28
ATOM     28  N   UNL     1      34.135 -24.415 -13.609  0.00  0.00    -0.217 N 
ATOM     29  H   UNL     1      33.931 -25.372 -13.496  0.00  0.00    +0.173 HD
BRANCH  28  30
ATOM     30  S   UNL     1      35.384 -23.663 -12.691  0.00  0.00    +0.054 S 
ATOM     31  O   UNL     1      35.709 -22.392 -13.314  0.00  0.00    -0.154 OA
ATOM     32  O   UNL     1      35.100 -23.736 -11.272  0.00  0.00    -0.154 OA
BRANCH  30  33
ATOM     33  C   UNL     1      36.735 -24.767 -13.036  0.00  0.00    +0.172 C 
BRANCH  33  34
ATOM     34  C   UNL     1      37.887 -24.551 -12.069  0.00  0.00    +0.027 C 
ATOM     35  C   UNL     1      39.228 -24.595 -12.782  0.00  0.00    +0.002 C 
ENDBRANCH  33  34
ENDBRANCH  30  33
ENDBRANCH  28  30
ENDBRANCH  23  28
ENDBRANCH   2  22
TORSDOF 7
ENDMDL
