MODEL 1
REMARK VINA RESULT:     -11.7      0.000      0.000
REMARK  Name = 9910098
REMARK  9 active torsions:
REMARK  status: ('A' for Active; 'I' for Inactive)
REMARK    1  A    between atoms: N_1  and  C1*_12
REMARK    2  A    between atoms: C_9  and  O_25
REMARK    3  A    between atoms: C2*_11  and  O2*_15
REMARK    4  A    between atoms: C3*_13  and  O3*_17
REMARK    5  A    between atoms: C4*_14  and  C5*_19
REMARK    6  A    between atoms: C5*_19  and  O5*_20
REMARK    7  A    between atoms: O_25  and  C_26
REMARK    8  A    between atoms: C_26  and  C_27
REMARK    9  A    between atoms: C_27  and  C_29
REMARK                            x       y       z     vdW  Elec       q    Type
REMARK                         _______ _______ _______ _____ _____    ______ ____
ROOT
ATOM      1  N   UNL     1      34.910 -23.369 -14.858  0.00  0.00    -0.236 N 
ATOM      2  N   UNL     1      32.778 -23.260 -14.210  0.00  0.00    -0.240 NA
ATOM      3  N   UNL     1      34.704 -22.485 -17.113  0.00  0.00    -0.294 NA
ATOM      4  N   UNL     1      32.390 -21.905 -17.631  0.00  0.00    -0.295 NA
ATOM      5  C   UNL     1      34.216 -22.854 -15.918  0.00  0.00    +0.223 C 
ATOM      6  C   UNL     1      34.001 -23.596 -13.858  0.00  0.00    +0.224 C 
ATOM      7  C   UNL     1      32.898 -22.794 -15.496  0.00  0.00    +0.167 C 
ATOM      8  C   UNL     1      31.968 -22.297 -16.404  0.00  0.00    +0.214 C 
ATOM      9  C   UNL     1      33.712 -22.023 -17.904  0.00  0.00    +0.313 C 
ATOM     10  N   UNL     1      30.608 -22.203 -16.061  0.00  0.00    -0.331 N 
ATOM     11  H   UNL     1      29.960 -21.850 -16.712  0.00  0.00    +0.145 HD
ATOM     12  H   UNL     1      30.306 -22.490 -15.169  0.00  0.00    +0.145 HD
ENDROOT
BRANCH   1  15
ATOM     13  O4* UNL     1      36.573 -24.910 -14.154  0.00  0.00    -0.333 OA
ATOM     14  C2* UNL     1      37.137 -22.581 -14.023  0.00  0.00    +0.187 C 
ATOM     15  C1* UNL     1      36.348 -23.637 -14.798  0.00  0.00    +0.226 C 
ATOM     16  C3* UNL     1      37.407 -23.267 -12.697  0.00  0.00    +0.171 C 
ATOM     17  C4* UNL     1      37.541 -24.723 -13.109  0.00  0.00    +0.175 C 
BRANCH  14  18
ATOM     18  O2* UNL     1      38.352 -22.299 -14.716  0.00  0.00    -0.378 OA
ATOM     19  H2* UNL     1      38.853 -21.626 -14.229  0.00  0.00    +0.211 HD
ENDBRANCH  14  18
BRANCH  16  20
ATOM     20  O3* UNL     1      38.563 -22.791 -12.042  0.00  0.00    -0.379 OA
ATOM     21  H3* UNL     1      38.961 -22.079 -12.565  0.00  0.00    +0.211 HD
ENDBRANCH  16  20
BRANCH  17  22
ATOM     22  C5* UNL     1      37.272 -25.699 -11.978  0.00  0.00    +0.169 C 
BRANCH  22  23
ATOM     23  O5* UNL     1      36.813 -24.973 -10.852  0.00  0.00    -0.379 OA
ATOM     24  H5* UNL     1      36.252 -25.544 -10.304  0.00  0.00    +0.211 HD
ENDBRANCH  22  23
ENDBRANCH  17  22
ENDBRANCH   1  15
BRANCH   9  25
ATOM     25  O   UNL     1      34.098 -21.607 -19.160  0.00  0.00    -0.399 OA
BRANCH  25  26
ATOM     26  C   UNL     1      34.030 -20.212 -19.414  0.00  0.00    +0.227 C 
BRANCH  26  27
ATOM     27  C   UNL     1      35.402 -19.699 -19.838  0.00  0.00    +0.075 C 
BRANCH  27  29
ATOM     28 CL   UNL     1      35.035 -15.424 -24.034  0.00  0.00    -0.082 Cl
ATOM     29  C   UNL     1      35.312 -18.624 -20.894  0.00  0.00    -0.018 C 
ATOM     30  C   UNL     1      35.577 -17.308 -20.547  0.00  0.00    -0.003 C 
ATOM     31  C   UNL     1      34.964 -18.972 -22.189  0.00  0.00    -0.003 C 
ATOM     32  C   UNL     1      35.492 -16.315 -21.523  0.00  0.00    +0.011 C 
ATOM     33  C   UNL     1      34.878 -17.978 -23.165  0.00  0.00    +0.011 C 
ATOM     34  C   UNL     1      35.142 -16.649 -22.831  0.00  0.00    +0.058 C 
ENDBRANCH  27  29
ENDBRANCH  26  27
ENDBRANCH  25  26
ENDBRANCH   9  25
TORSDOF 9
ENDMDL
MODEL 2
REMARK VINA RESULT:     -11.6      0.787      1.617
REMARK  Name = 9910098
REMARK  9 active torsions:
REMARK  status: ('A' for Active; 'I' for Inactive)
REMARK    1  A    between atoms: N_1  and  C1*_12
REMARK    2  A    between atoms: C_9  and  O_25
REMARK    3  A    between atoms: C2*_11  and  O2*_15
REMARK    4  A    between atoms: C3*_13  and  O3*_17
REMARK    5  A    between atoms: C4*_14  and  C5*_19
REMARK    6  A    between atoms: C5*_19  and  O5*_20
REMARK    7  A    between atoms: O_25  and  C_26
REMARK    8  A    between atoms: C_26  and  C_27
REMARK    9  A    between atoms: C_27  and  C_29
REMARK                            x       y       z     vdW  Elec       q    Type
REMARK                         _______ _______ _______ _____ _____    ______ ____
ROOT
ATOM      1  N   UNL     1      34.861 -22.907 -14.495  0.00  0.00    -0.236 N 
ATOM      2  N   UNL     1      32.661 -22.932 -14.122  0.00  0.00    -0.240 NA
ATOM      3  N   UNL     1      34.878 -22.244 -16.832  0.00  0.00    -0.294 NA
ATOM      4  N   UNL     1      32.612 -21.920 -17.680  0.00  0.00    -0.295 NA
ATOM      5  C   UNL     1      34.271 -22.550 -15.676  0.00  0.00    +0.223 C 
ATOM      6  C   UNL     1      33.851 -23.126 -13.594  0.00  0.00    +0.224 C 
ATOM      7  C   UNL     1      32.909 -22.571 -15.423  0.00  0.00    +0.167 C 
ATOM      8  C   UNL     1      32.068 -22.240 -16.481  0.00  0.00    +0.214 C 
ATOM      9  C   UNL     1      33.964 -21.943 -17.779  0.00  0.00    +0.313 C 
ATOM     10  N   UNL     1      30.672 -22.238 -16.315  0.00  0.00    -0.331 N 
ATOM     11  H   UNL     1      30.088 -22.002 -17.071  0.00  0.00    +0.145 HD
ATOM     12  H   UNL     1      30.280 -22.471 -15.443  0.00  0.00    +0.145 HD
ENDROOT
BRANCH   1  15
ATOM     13  O4* UNL     1      36.804 -24.201 -14.926  0.00  0.00    -0.333 OA
ATOM     14  C2* UNL     1      36.639 -23.197 -12.752  0.00  0.00    +0.187 C 
ATOM     15  C1* UNL     1      36.295 -23.040 -14.235  0.00  0.00    +0.226 C 
ATOM     16  C3* UNL     1      36.934 -24.680 -12.630  0.00  0.00    +0.171 C 
ATOM     17  C4* UNL     1      37.539 -25.000 -13.986  0.00  0.00    +0.175 C 
BRANCH  14  18
ATOM     18  O2* UNL     1      37.793 -22.413 -12.451  0.00  0.00    -0.378 OA
ATOM     19  H2* UNL     1      38.217 -22.133 -13.277  0.00  0.00    +0.211 HD
ENDBRANCH  14  18
BRANCH  16  20
ATOM     20  O3* UNL     1      37.809 -24.994 -11.569  0.00  0.00    -0.379 OA
ATOM     21  H3* UNL     1      37.383 -24.781 -10.724  0.00  0.00    +0.211 HD
ENDBRANCH  16  20
BRANCH  17  22
ATOM     22  C5* UNL     1      37.432 -26.467 -14.364  0.00  0.00    +0.169 C 
BRANCH  22  23
ATOM     23  O5* UNL     1      37.012 -26.558 -15.714  0.00  0.00    -0.379 OA
ATOM     24  H5* UNL     1      36.570 -27.409 -15.859  0.00  0.00    +0.211 HD
ENDBRANCH  22  23
ENDBRANCH  17  22
ENDBRANCH   1  15
BRANCH   9  25
ATOM     25  O   UNL     1      34.474 -21.606 -19.014  0.00  0.00    -0.399 OA
BRANCH  25  26
ATOM     26  C   UNL     1      34.257 -20.270 -19.445  0.00  0.00    +0.227 C 
BRANCH  26  27
ATOM     27  C   UNL     1      35.585 -19.638 -19.849  0.00  0.00    +0.075 C 
BRANCH  27  29
ATOM     28 CL   UNL     1      34.929 -15.472 -24.120  0.00  0.00    -0.082 Cl
ATOM     29  C   UNL     1      35.418 -18.590 -20.922  0.00  0.00    -0.018 C 
ATOM     30  C   UNL     1      34.987 -18.972 -22.183  0.00  0.00    -0.003 C 
ATOM     31  C   UNL     1      35.701 -17.265 -20.629  0.00  0.00    -0.003 C 
ATOM     32  C   UNL     1      34.834 -18.004 -23.176  0.00  0.00    +0.011 C 
ATOM     33  C   UNL     1      35.549 -16.297 -21.621  0.00  0.00    +0.011 C 
ATOM     34  C   UNL     1      35.115 -16.667 -22.895  0.00  0.00    +0.058 C 
ENDBRANCH  27  29
ENDBRANCH  26  27
ENDBRANCH  25  26
ENDBRANCH   9  25
TORSDOF 9
ENDMDL
MODEL 3
REMARK VINA RESULT:     -11.4      1.477      1.952
REMARK  Name = 9910098
REMARK  9 active torsions:
REMARK  status: ('A' for Active; 'I' for Inactive)
REMARK    1  A    between atoms: N_1  and  C1*_12
REMARK    2  A    between atoms: C_9  and  O_25
REMARK    3  A    between atoms: C2*_11  and  O2*_15
REMARK    4  A    between atoms: C3*_13  and  O3*_17
REMARK    5  A    between atoms: C4*_14  and  C5*_19
REMARK    6  A    between atoms: C5*_19  and  O5*_20
REMARK    7  A    between atoms: O_25  and  C_26
REMARK    8  A    between atoms: C_26  and  C_27
REMARK    9  A    between atoms: C_27  and  C_29
REMARK                            x       y       z     vdW  Elec       q    Type
REMARK                         _______ _______ _______ _____ _____    ______ ____
ROOT
ATOM      1  N   UNL     1      34.565 -23.459 -13.953  0.00  0.00    -0.236 N 
ATOM      2  N   UNL     1      32.719 -23.532 -12.701  0.00  0.00    -0.240 NA
ATOM      3  N   UNL     1      33.619 -22.648 -16.039  0.00  0.00    -0.294 NA
ATOM      4  N   UNL     1      31.212 -22.296 -15.845  0.00  0.00    -0.295 NA
ATOM      5  C   UNL     1      33.543 -23.034 -14.757  0.00  0.00    +0.223 C 
ATOM      6  C   UNL     1      34.018 -23.747 -12.730  0.00  0.00    +0.224 C 
ATOM      7  C   UNL     1      32.409 -23.086 -13.962  0.00  0.00    +0.167 C 
ATOM      8  C   UNL     1      31.210 -22.698 -14.552  0.00  0.00    +0.214 C 
ATOM      9  C   UNL     1      32.399 -22.297 -16.499  0.00  0.00    +0.313 C 
ATOM     10  N   UNL     1      30.010 -22.721 -13.820  0.00  0.00    -0.331 N 
ATOM     11  H   UNL     1      29.169 -22.444 -14.248  0.00  0.00    +0.145 HD
ATOM     12  H   UNL     1      30.013 -23.014 -12.880  0.00  0.00    +0.145 HD
ENDROOT
BRANCH   1  15
ATOM     13  O4* UNL     1      36.417 -24.941 -14.055  0.00  0.00    -0.333 OA
ATOM     14  C2* UNL     1      36.902 -22.643 -13.562  0.00  0.00    +0.187 C 
ATOM     15  C1* UNL     1      35.975 -23.593 -14.322  0.00  0.00    +0.226 C 
ATOM     16  C3* UNL     1      37.547 -23.553 -12.534  0.00  0.00    +0.171 C 
ATOM     17  C4* UNL     1      37.623 -24.875 -13.278  0.00  0.00    +0.175 C 
BRANCH  14  18
ATOM     18  O2* UNL     1      37.872 -22.110 -14.462  0.00  0.00    -0.378 OA
ATOM     19  H2* UNL     1      38.628 -21.770 -13.958  0.00  0.00    +0.211 HD
ENDBRANCH  14  18
BRANCH  16  20
ATOM     20  O3* UNL     1      38.817 -23.109 -12.107  0.00  0.00    -0.379 OA
ATOM     21  H3* UNL     1      38.978 -23.413 -11.201  0.00  0.00    +0.211 HD
ENDBRANCH  16  20
BRANCH  17  22
ATOM     22  C5* UNL     1      37.710 -26.081 -12.360  0.00  0.00    +0.169 C 
BRANCH  22  23
ATOM     23  O5* UNL     1      37.282 -25.698 -11.064  0.00  0.00    -0.379 OA
ATOM     24  H5* UNL     1      36.403 -26.068 -10.890  0.00  0.00    +0.211 HD
ENDBRANCH  22  23
ENDBRANCH  17  22
ENDBRANCH   1  15
BRANCH   9  25
ATOM     25  O   UNL     1      32.355 -21.876 -17.810  0.00  0.00    -0.399 OA
BRANCH  25  26
ATOM     26  C   UNL     1      33.580 -21.428 -18.373  0.00  0.00    +0.227 C 
BRANCH  26  27
ATOM     27  C   UNL     1      33.302 -20.362 -19.427  0.00  0.00    +0.075 C 
BRANCH  27  29
ATOM     28 CL   UNL     1      38.342 -17.891 -21.553  0.00  0.00    -0.082 Cl
ATOM     29  C   UNL     1      34.569 -19.742 -19.964  0.00  0.00    -0.018 C 
ATOM     30  C   UNL     1      35.785 -20.074 -19.386  0.00  0.00    -0.003 C 
ATOM     31  C   UNL     1      34.495 -18.851 -21.022  0.00  0.00    -0.003 C 
ATOM     32  C   UNL     1      36.956 -19.500 -19.880  0.00  0.00    +0.011 C 
ATOM     33  C   UNL     1      35.666 -18.276 -21.516  0.00  0.00    +0.011 C 
ATOM     34  C   UNL     1      36.897 -18.601 -20.945  0.00  0.00    +0.058 C 
ENDBRANCH  27  29
ENDBRANCH  26  27
ENDBRANCH  25  26
ENDBRANCH   9  25
TORSDOF 9
ENDMDL
MODEL 4
REMARK VINA RESULT:     -11.0      1.316      2.229
REMARK  Name = 9910098
REMARK  9 active torsions:
REMARK  status: ('A' for Active; 'I' for Inactive)
REMARK    1  A    between atoms: N_1  and  C1*_12
REMARK    2  A    between atoms: C_9  and  O_25
REMARK    3  A    between atoms: C2*_11  and  O2*_15
REMARK    4  A    between atoms: C3*_13  and  O3*_17
REMARK    5  A    between atoms: C4*_14  and  C5*_19
REMARK    6  A    between atoms: C5*_19  and  O5*_20
REMARK    7  A    between atoms: O_25  and  C_26
REMARK    8  A    between atoms: C_26  and  C_27
REMARK    9  A    between atoms: C_27  and  C_29
REMARK                            x       y       z     vdW  Elec       q    Type
REMARK                         _______ _______ _______ _____ _____    ______ ____
ROOT
ATOM      1  N   UNL     1      33.955 -23.219 -13.668  0.00  0.00    -0.236 N 
ATOM      2  N   UNL     1      31.735 -23.009 -13.728  0.00  0.00    -0.240 NA
ATOM      3  N   UNL     1      34.485 -22.688 -15.980  0.00  0.00    -0.294 NA
ATOM      4  N   UNL     1      32.467 -22.190 -17.261  0.00  0.00    -0.295 NA
ATOM      5  C   UNL     1      33.641 -22.871 -14.953  0.00  0.00    +0.223 C 
ATOM      6  C   UNL     1      32.776 -23.290 -12.974  0.00  0.00    +0.224 C 
ATOM      7  C   UNL     1      32.261 -22.744 -14.968  0.00  0.00    +0.167 C 
ATOM      8  C   UNL     1      31.676 -22.390 -16.180  0.00  0.00    +0.214 C 
ATOM      9  C   UNL     1      33.803 -22.350 -17.095  0.00  0.00    +0.313 C 
ATOM     10  N   UNL     1      30.282 -22.242 -16.287  0.00  0.00    -0.331 N 
ATOM     11  H   UNL     1      29.879 -21.991 -17.150  0.00  0.00    +0.145 HD
ATOM     12  H   UNL     1      29.709 -22.389 -15.500  0.00  0.00    +0.145 HD
ENDROOT
BRANCH   1  15
ATOM     13  O4* UNL     1      36.175 -22.394 -13.493  0.00  0.00    -0.333 OA
ATOM     14  C2* UNL     1      35.919 -24.775 -13.644  0.00  0.00    +0.187 C 
ATOM     15  C1* UNL     1      35.292 -23.478 -13.131  0.00  0.00    +0.226 C 
ATOM     16  C3* UNL     1      36.917 -24.283 -14.675  0.00  0.00    +0.171 C 
ATOM     17  C4* UNL     1      37.356 -22.953 -14.088  0.00  0.00    +0.175 C 
BRANCH  14  18
ATOM     18  O2* UNL     1      36.576 -25.439 -12.565  0.00  0.00    -0.378 OA
ATOM     19  H2* UNL     1      36.391 -24.970 -11.736  0.00  0.00    +0.211 HD
ENDBRANCH  14  18
BRANCH  16  20
ATOM     20  O3* UNL     1      38.003 -25.163 -14.872  0.00  0.00    -0.379 OA
ATOM     21  H3* UNL     1      38.245 -25.171 -15.811  0.00  0.00    +0.211 HD
ENDBRANCH  16  20
BRANCH  17  22
ATOM     22  C5* UNL     1      37.916 -21.991 -15.121  0.00  0.00    +0.169 C 
BRANCH  22  23
ATOM     23  O5* UNL     1      37.257 -22.217 -16.355  0.00  0.00    -0.379 OA
ATOM     24  H5* UNL     1      36.796 -21.409 -16.630  0.00  0.00    +0.211 HD
ENDBRANCH  22  23
ENDBRANCH  17  22
ENDBRANCH   1  15
BRANCH   9  25
ATOM     25  O   UNL     1      34.571 -22.132 -18.219  0.00  0.00    -0.399 OA
BRANCH  25  26
ATOM     26  C   UNL     1      34.426 -20.867 -18.848  0.00  0.00    +0.227 C 
BRANCH  26  27
ATOM     27  C   UNL     1      35.789 -20.362 -19.308  0.00  0.00    +0.075 C 
BRANCH  27  29
ATOM     28 CL   UNL     1      35.347 -16.267 -23.674  0.00  0.00    -0.082 Cl
ATOM     29  C   UNL     1      35.678 -19.334 -20.407  0.00  0.00    -0.018 C 
ATOM     30  C   UNL     1      36.681 -18.388 -20.556  0.00  0.00    -0.003 C 
ATOM     31  C   UNL     1      34.576 -19.351 -21.247  0.00  0.00    -0.003 C 
ATOM     32  C   UNL     1      36.579 -17.437 -21.571  0.00  0.00    +0.011 C 
ATOM     33  C   UNL     1      34.473 -18.399 -22.261  0.00  0.00    +0.011 C 
ATOM     34  C   UNL     1      35.475 -17.442 -22.423  0.00  0.00    +0.058 C 
ENDBRANCH  27  29
ENDBRANCH  26  27
ENDBRANCH  25  26
ENDBRANCH   9  25
TORSDOF 9
ENDMDL
MODEL 5
REMARK VINA RESULT:     -10.3      4.542      6.371
REMARK  Name = 9910098
REMARK  9 active torsions:
REMARK  status: ('A' for Active; 'I' for Inactive)
REMARK    1  A    between atoms: N_1  and  C1*_12
REMARK    2  A    between atoms: C_9  and  O_25
REMARK    3  A    between atoms: C2*_11  and  O2*_15
REMARK    4  A    between atoms: C3*_13  and  O3*_17
REMARK    5  A    between atoms: C4*_14  and  C5*_19
REMARK    6  A    between atoms: C5*_19  and  O5*_20
REMARK    7  A    between atoms: O_25  and  C_26
REMARK    8  A    between atoms: C_26  and  C_27
REMARK    9  A    between atoms: C_27  and  C_29
REMARK                            x       y       z     vdW  Elec       q    Type
REMARK                         _______ _______ _______ _____ _____    ______ ____
ROOT
ATOM      1  N   UNL     1      35.843 -22.651 -14.243  0.00  0.00    -0.236 N 
ATOM      2  N   UNL     1      35.810 -22.322 -16.450  0.00  0.00    -0.240 NA
ATOM      3  N   UNL     1      33.456 -22.740 -13.801  0.00  0.00    -0.294 NA
ATOM      4  N   UNL     1      32.162 -22.447 -15.850  0.00  0.00    -0.295 NA
ATOM      5  C   UNL     1      34.524 -22.610 -14.602  0.00  0.00    +0.223 C 
ATOM      6  C   UNL     1      36.574 -22.472 -15.389  0.00  0.00    +0.224 C 
ATOM      7  C   UNL     1      34.526 -22.406 -15.973  0.00  0.00    +0.167 C 
ATOM      8  C   UNL     1      33.285 -22.325 -16.597  0.00  0.00    +0.214 C 
ATOM      9  C   UNL     1      32.315 -22.643 -14.518  0.00  0.00    +0.313 C 
ATOM     10  N   UNL     1      33.192 -22.117 -17.984  0.00  0.00    -0.331 N 
ATOM     11  H   UNL     1      32.309 -22.061 -18.415  0.00  0.00    +0.145 HD
ATOM     12  H   UNL     1      34.011 -22.028 -18.524  0.00  0.00    +0.145 HD
ENDROOT
BRANCH   1  15
ATOM     13  O4* UNL     1      37.823 -22.887 -12.954  0.00  0.00    -0.333 OA
ATOM     14  C2* UNL     1      35.904 -24.127 -12.219  0.00  0.00    +0.187 C 
ATOM     15  C1* UNL     1      36.381 -22.841 -12.895  0.00  0.00    +0.226 C 
ATOM     16  C3* UNL     1      37.109 -25.040 -12.345  0.00  0.00    +0.171 C 
ATOM     17  C4* UNL     1      38.266 -24.061 -12.254  0.00  0.00    +0.175 C 
BRANCH  14  18
ATOM     18  O2* UNL     1      35.601 -23.855 -10.852  0.00  0.00    -0.378 OA
ATOM     19  H2* UNL     1      34.759 -24.276 -10.618  0.00  0.00    +0.211 HD
ENDBRANCH  14  18
BRANCH  16  20
ATOM     20  O3* UNL     1      37.171 -26.031 -11.341  0.00  0.00    -0.379 OA
ATOM     21  H3* UNL     1      37.352 -25.613 -10.485  0.00  0.00    +0.211 HD
ENDBRANCH  16  20
BRANCH  17  22
ATOM     22  C5* UNL     1      39.548 -24.580 -12.880  0.00  0.00    +0.169 C 
BRANCH  22  23
ATOM     23  O5* UNL     1      39.317 -25.889 -13.370  0.00  0.00    -0.379 OA
ATOM     24  H5* UNL     1      38.497 -26.238 -12.987  0.00  0.00    +0.211 HD
ENDBRANCH  22  23
ENDBRANCH  17  22
ENDBRANCH   1  15
BRANCH   9  25
ATOM     25  O   UNL     1      31.147 -22.767 -13.797  0.00  0.00    -0.399 OA
BRANCH  25  26
ATOM     26  C   UNL     1      30.697 -24.090 -13.544  0.00  0.00    +0.227 C 
BRANCH  26  27
ATOM     27  C   UNL     1      29.924 -24.611 -14.751  0.00  0.00    +0.075 C 
BRANCH  27  29
ATOM     28 CL   UNL     1      26.057 -20.558 -16.907  0.00  0.00    -0.082 Cl
ATOM     29  C   UNL     1      28.953 -23.591 -15.294  0.00  0.00    -0.018 C 
ATOM     30  C   UNL     1      28.453 -22.613 -14.449  0.00  0.00    -0.003 C 
ATOM     31  C   UNL     1      28.578 -23.651 -16.627  0.00  0.00    -0.003 C 
ATOM     32  C   UNL     1      27.554 -21.671 -14.950  0.00  0.00    +0.011 C 
ATOM     33  C   UNL     1      27.679 -22.710 -17.128  0.00  0.00    +0.011 C 
ATOM     34  C   UNL     1      27.167 -21.719 -16.289  0.00  0.00    +0.058 C 
ENDBRANCH  27  29
ENDBRANCH  26  27
ENDBRANCH  25  26
ENDBRANCH   9  25
TORSDOF 9
ENDMDL
MODEL 6
REMARK VINA RESULT:     -10.0      6.080     10.985
REMARK  Name = 9910098
REMARK  9 active torsions:
REMARK  status: ('A' for Active; 'I' for Inactive)
REMARK    1  A    between atoms: N_1  and  C1*_12
REMARK    2  A    between atoms: C_9  and  O_25
REMARK    3  A    between atoms: C2*_11  and  O2*_15
REMARK    4  A    between atoms: C3*_13  and  O3*_17
REMARK    5  A    between atoms: C4*_14  and  C5*_19
REMARK    6  A    between atoms: C5*_19  and  O5*_20
REMARK    7  A    between atoms: O_25  and  C_26
REMARK    8  A    between atoms: C_26  and  C_27
REMARK    9  A    between atoms: C_27  and  C_29
REMARK                            x       y       z     vdW  Elec       q    Type
REMARK                         _______ _______ _______ _____ _____    ______ ____
ROOT
ATOM      1  N   UNL     1      34.478 -14.688 -23.426  0.00  0.00    -0.236 N 
ATOM      2  N   UNL     1      33.751 -15.983 -25.092  0.00  0.00    -0.240 NA
ATOM      3  N   UNL     1      35.454 -16.381 -21.981  0.00  0.00    -0.294 NA
ATOM      4  N   UNL     1      35.218 -18.612 -22.942  0.00  0.00    -0.295 NA
ATOM      5  C   UNL     1      34.815 -15.969 -23.087  0.00  0.00    +0.223 C 
ATOM      6  C   UNL     1      33.840 -14.751 -24.638  0.00  0.00    +0.224 C 
ATOM      7  C   UNL     1      34.357 -16.755 -24.132  0.00  0.00    +0.167 C 
ATOM      8  C   UNL     1      34.578 -18.126 -24.033  0.00  0.00    +0.214 C 
ATOM      9  C   UNL     1      35.609 -17.722 -21.998  0.00  0.00    +0.313 C 
ATOM     10  N   UNL     1      34.145 -18.998 -25.046  0.00  0.00    -0.331 N 
ATOM     11  H   UNL     1      34.307 -19.965 -24.964  0.00  0.00    +0.145 HD
ATOM     12  H   UNL     1      33.680 -18.641 -25.837  0.00  0.00    +0.145 HD
ENDROOT
BRANCH   1  15
ATOM     13  O4* UNL     1      34.342 -13.694 -21.274  0.00  0.00    -0.333 OA
ATOM     14  C2* UNL     1      33.981 -12.247 -23.154  0.00  0.00    +0.187 C 
ATOM     15  C1* UNL     1      34.736 -13.477 -22.646  0.00  0.00    +0.226 C 
ATOM     16  C3* UNL     1      32.848 -12.111 -22.155  0.00  0.00    +0.171 C 
ATOM     17  C4* UNL     1      33.488 -12.612 -20.872  0.00  0.00    +0.175 C 
BRANCH  14  18
ATOM     18  O2* UNL     1      34.847 -11.114 -23.113  0.00  0.00    -0.378 OA
ATOM     19  H2* UNL     1      34.401 -10.352 -23.515  0.00  0.00    +0.211 HD
ENDBRANCH  14  18
BRANCH  16  20
ATOM     20  O3* UNL     1      32.366 -10.790 -22.028  0.00  0.00    -0.379 OA
ATOM     21  H3* UNL     1      33.100 -10.166 -22.134  0.00  0.00    +0.211 HD
ENDBRANCH  16  20
BRANCH  17  22
ATOM     22  C5* UNL     1      32.482 -13.104 -19.847  0.00  0.00    +0.169 C 
BRANCH  22  23
ATOM     23  O5* UNL     1      31.695 -12.006 -19.420  0.00  0.00    -0.379 OA
ATOM     24  H5* UNL     1      30.764 -12.274 -19.374  0.00  0.00    +0.211 HD
ENDBRANCH  22  23
ENDBRANCH  17  22
ENDBRANCH   1  15
BRANCH   9  25
ATOM     25  O   UNL     1      36.260 -18.259 -20.909  0.00  0.00    -0.399 OA
BRANCH  25  26
ATOM     26  C   UNL     1      35.597 -19.319 -20.234  0.00  0.00    +0.227 C 
BRANCH  26  27
ATOM     27  C   UNL     1      36.613 -20.150 -19.457  0.00  0.00    +0.075 C 
BRANCH  27  29
ATOM     28 CL   UNL     1      34.086 -23.198 -14.947  0.00  0.00    -0.082 Cl
ATOM     29  C   UNL     1      35.979 -20.918 -18.324  0.00  0.00    -0.018 C 
ATOM     30  C   UNL     1      34.676 -21.374 -18.458  0.00  0.00    -0.003 C 
ATOM     31  C   UNL     1      36.708 -21.152 -17.169  0.00  0.00    -0.003 C 
ATOM     32  C   UNL     1      34.089 -22.083 -17.410  0.00  0.00    +0.011 C 
ATOM     33  C   UNL     1      36.120 -21.860 -16.120  0.00  0.00    +0.011 C 
ATOM     34  C   UNL     1      34.811 -22.325 -16.241  0.00  0.00    +0.058 C 
ENDBRANCH  27  29
ENDBRANCH  26  27
ENDBRANCH  25  26
ENDBRANCH   9  25
TORSDOF 9
ENDMDL
MODEL 7
REMARK VINA RESULT:      -9.8      6.646     11.612
REMARK  Name = 9910098
REMARK  9 active torsions:
REMARK  status: ('A' for Active; 'I' for Inactive)
REMARK    1  A    between atoms: N_1  and  C1*_12
REMARK    2  A    between atoms: C_9  and  O_25
REMARK    3  A    between atoms: C2*_11  and  O2*_15
REMARK    4  A    between atoms: C3*_13  and  O3*_17
REMARK    5  A    between atoms: C4*_14  and  C5*_19
REMARK    6  A    between atoms: C5*_19  and  O5*_20
REMARK    7  A    between atoms: O_25  and  C_26
REMARK    8  A    between atoms: C_26  and  C_27
REMARK    9  A    between atoms: C_27  and  C_29
REMARK                            x       y       z     vdW  Elec       q    Type
REMARK                         _______ _______ _______ _____ _____    ______ ____
ROOT
ATOM      1  N   UNL     1      34.203 -13.632 -23.533  0.00  0.00    -0.236 N 
ATOM      2  N   UNL     1      33.277 -14.963 -25.067  0.00  0.00    -0.240 NA
ATOM      3  N   UNL     1      35.452 -15.279 -22.256  0.00  0.00    -0.294 NA
ATOM      4  N   UNL     1      35.154 -17.523 -23.168  0.00  0.00    -0.295 NA
ATOM      5  C   UNL     1      34.636 -14.898 -23.250  0.00  0.00    +0.223 C 
ATOM      6  C   UNL     1      33.389 -13.725 -24.632  0.00  0.00    +0.224 C 
ATOM      7  C   UNL     1      34.052 -15.707 -24.212  0.00  0.00    +0.167 C 
ATOM      8  C   UNL     1      34.337 -17.067 -24.148  0.00  0.00    +0.214 C 
ATOM      9  C   UNL     1      35.653 -16.614 -22.296  0.00  0.00    +0.313 C 
ATOM     10  N   UNL     1      33.785 -17.961 -25.082  0.00  0.00    -0.331 N 
ATOM     11  H   UNL     1      33.994 -18.921 -25.026  0.00  0.00    +0.145 HD
ATOM     12  H   UNL     1      33.191 -17.626 -25.792  0.00  0.00    +0.145 HD
ENDROOT
BRANCH   1  15
ATOM     13  O4* UNL     1      33.906 -12.439 -21.502  0.00  0.00    -0.333 OA
ATOM     14  C2* UNL     1      34.074 -11.130 -23.507  0.00  0.00    +0.187 C 
ATOM     15  C1* UNL     1      34.533 -12.408 -22.803  0.00  0.00    +0.226 C 
ATOM     16  C3* UNL     1      32.840 -10.735 -22.719  0.00  0.00    +0.171 C 
ATOM     17  C4* UNL     1      33.188 -11.209 -21.318  0.00  0.00    +0.175 C 
BRANCH  14  18
ATOM     18  O2* UNL     1      35.096 -10.140 -23.398  0.00  0.00    -0.378 OA
ATOM     19  H2* UNL     1      35.535 -10.222 -22.537  0.00  0.00    +0.211 HD
ENDBRANCH  14  18
BRANCH  16  20
ATOM     20  O3* UNL     1      32.564  -9.352 -22.760  0.00  0.00    -0.379 OA
ATOM     21  H3* UNL     1      33.282  -8.866 -22.324  0.00  0.00    +0.211 HD
ENDBRANCH  16  20
BRANCH  17  22
ATOM     22  C5* UNL     1      31.972 -11.450 -20.442  0.00  0.00    +0.169 C 
BRANCH  22  23
ATOM     23  O5* UNL     1      30.806 -11.153 -21.190  0.00  0.00    -0.379 OA
ATOM     24  H5* UNL     1      30.916 -11.470 -22.100  0.00  0.00    +0.211 HD
ENDBRANCH  22  23
ENDBRANCH  17  22
ENDBRANCH   1  15
BRANCH   9  25
ATOM     25  O   UNL     1      36.483 -17.121 -21.320  0.00  0.00    -0.399 OA
BRANCH  25  26
ATOM     26  C   UNL     1      35.857 -17.828 -20.260  0.00  0.00    +0.227 C 
BRANCH  26  27
ATOM     27  C   UNL     1      36.252 -19.300 -20.319  0.00  0.00    +0.075 C 
BRANCH  27  29
ATOM     28 CL   UNL     1      32.887 -22.719 -16.713  0.00  0.00    -0.082 Cl
ATOM     29  C   UNL     1      35.405 -20.158 -19.411  0.00  0.00    -0.018 C 
ATOM     30  C   UNL     1      36.018 -20.909 -18.420  0.00  0.00    -0.003 C 
ATOM     31  C   UNL     1      34.031 -20.182 -19.586  0.00  0.00    -0.003 C 
ATOM     32  C   UNL     1      35.236 -21.703 -17.582  0.00  0.00    +0.011 C 
ATOM     33  C   UNL     1      33.248 -20.977 -18.748  0.00  0.00    +0.011 C 
ATOM     34  C   UNL     1      33.852 -21.738 -17.746  0.00  0.00    +0.058 C 
ENDBRANCH  27  29
ENDBRANCH  26  27
ENDBRANCH  25  26
ENDBRANCH   9  25
TORSDOF 9
ENDMDL
MODEL 8
REMARK VINA RESULT:      -9.7     10.236     14.777
REMARK  Name = 9910098
REMARK  9 active torsions:
REMARK  status: ('A' for Active; 'I' for Inactive)
REMARK    1  A    between atoms: N_1  and  C1*_12
REMARK    2  A    between atoms: C_9  and  O_25
REMARK    3  A    between atoms: C2*_11  and  O2*_15
REMARK    4  A    between atoms: C3*_13  and  O3*_17
REMARK    5  A    between atoms: C4*_14  and  C5*_19
REMARK    6  A    between atoms: C5*_19  and  O5*_20
REMARK    7  A    between atoms: O_25  and  C_26
REMARK    8  A    between atoms: C_26  and  C_27
REMARK    9  A    between atoms: C_27  and  C_29
REMARK                            x       y       z     vdW  Elec       q    Type
REMARK                         _______ _______ _______ _____ _____    ______ ____
ROOT
ATOM      1  N   UNL     1      33.155  -7.955 -22.263  0.00  0.00    -0.236 N 
ATOM      2  N   UNL     1      34.460  -7.459 -24.003  0.00  0.00    -0.240 NA
ATOM      3  N   UNL     1      33.208 -10.382 -22.383  0.00  0.00    -0.294 NA
ATOM      4  N   UNL     1      34.586 -11.148 -24.246  0.00  0.00    -0.295 NA
ATOM      5  C   UNL     1      33.539  -9.151 -22.803  0.00  0.00    +0.223 C 
ATOM      6  C   UNL     1      33.733  -6.970 -23.021  0.00  0.00    +0.224 C 
ATOM      7  C   UNL     1      34.348  -8.822 -23.879  0.00  0.00    +0.167 C 
ATOM      8  C   UNL     1      34.879  -9.878 -24.613  0.00  0.00    +0.214 C 
ATOM      9  C   UNL     1      33.779 -11.318 -23.170  0.00  0.00    +0.313 C 
ATOM     10  N   UNL     1      35.708  -9.635 -25.722  0.00  0.00    -0.331 N 
ATOM     11  H   UNL     1      36.078 -10.390 -26.233  0.00  0.00    +0.145 HD
ATOM     12  H   UNL     1      35.919  -8.710 -25.986  0.00  0.00    +0.145 HD
ENDROOT
BRANCH   1  15
ATOM     13  O4* UNL     1      31.423  -6.621 -21.338  0.00  0.00    -0.333 OA
ATOM     14  C2* UNL     1      33.046  -7.496 -19.802  0.00  0.00    +0.187 C 
ATOM     15  C1* UNL     1      32.284  -7.755 -21.103  0.00  0.00    +0.226 C 
ATOM     16  C3* UNL     1      32.891  -5.999 -19.614  0.00  0.00    +0.171 C 
ATOM     17  C4* UNL     1      31.518  -5.740 -20.207  0.00  0.00    +0.175 C 
BRANCH  14  18
ATOM     18  O2* UNL     1      32.422  -8.218 -18.741  0.00  0.00    -0.378 OA
ATOM     19  H2* UNL     1      31.979  -9.002 -19.100  0.00  0.00    +0.211 HD
ENDBRANCH  14  18
BRANCH  16  20
ATOM     20  O3* UNL     1      32.974  -5.590 -18.265  0.00  0.00    -0.379 OA
ATOM     21  H3* UNL     1      32.283  -4.934 -18.084  0.00  0.00    +0.211 HD
ENDBRANCH  16  20
BRANCH  17  22
ATOM     22  C5* UNL     1      31.314  -4.304 -20.656  0.00  0.00    +0.169 C 
BRANCH  22  23
ATOM     23  O5* UNL     1      32.567  -3.642 -20.644  0.00  0.00    -0.379 OA
ATOM     24  H5* UNL     1      32.488  -2.789 -21.099  0.00  0.00    +0.211 HD
ENDBRANCH  22  23
ENDBRANCH  17  22
ENDBRANCH   1  15
BRANCH   9  25
ATOM     25  O   UNL     1      33.512 -12.626 -22.829  0.00  0.00    -0.399 OA
BRANCH  25  26
ATOM     26  C   UNL     1      34.584 -13.365 -22.262  0.00  0.00    +0.227 C 
BRANCH  26  27
ATOM     27  C   UNL     1      34.968 -14.511 -23.191  0.00  0.00    +0.075 C 
BRANCH  27  29
ATOM     28 CL   UNL     1      35.713 -19.685 -20.240  0.00  0.00    -0.082 Cl
ATOM     29  C   UNL     1      35.157 -15.812 -22.449  0.00  0.00    -0.018 C 
ATOM     30  C   UNL     1      35.150 -17.004 -23.156  0.00  0.00    -0.003 C 
ATOM     31  C   UNL     1      35.332 -15.791 -21.074  0.00  0.00    -0.003 C 
ATOM     32  C   UNL     1      35.324 -18.206 -22.471  0.00  0.00    +0.011 C 
ATOM     33  C   UNL     1      35.505 -16.993 -20.388  0.00  0.00    +0.011 C 
ATOM     34  C   UNL     1      35.501 -18.201 -21.087  0.00  0.00    +0.058 C 
ENDBRANCH  27  29
ENDBRANCH  26  27
ENDBRANCH  25  26
ENDBRANCH   9  25
TORSDOF 9
ENDMDL
MODEL 9
REMARK VINA RESULT:      -9.7      4.872      8.635
REMARK  Name = 9910098
REMARK  9 active torsions:
REMARK  status: ('A' for Active; 'I' for Inactive)
REMARK    1  A    between atoms: N_1  and  C1*_12
REMARK    2  A    between atoms: C_9  and  O_25
REMARK    3  A    between atoms: C2*_11  and  O2*_15
REMARK    4  A    between atoms: C3*_13  and  O3*_17
REMARK    5  A    between atoms: C4*_14  and  C5*_19
REMARK    6  A    between atoms: C5*_19  and  O5*_20
REMARK    7  A    between atoms: O_25  and  C_26
REMARK    8  A    between atoms: C_26  and  C_27
REMARK    9  A    between atoms: C_27  and  C_29
REMARK                            x       y       z     vdW  Elec       q    Type
REMARK                         _______ _______ _______ _____ _____    ______ ____
ROOT
ATOM      1  N   UNL     1      32.871 -22.961 -15.545  0.00  0.00    -0.236 N 
ATOM      2  N   UNL     1      34.135 -22.339 -17.275  0.00  0.00    -0.240 NA
ATOM      3  N   UNL     1      34.512 -22.810 -13.758  0.00  0.00    -0.294 NA
ATOM      4  N   UNL     1      36.683 -22.087 -14.606  0.00  0.00    -0.295 NA
ATOM      5  C   UNL     1      34.115 -22.709 -15.036  0.00  0.00    +0.223 C 
ATOM      6  C   UNL     1      32.935 -22.725 -16.893  0.00  0.00    +0.224 C 
ATOM      7  C   UNL     1      34.882 -22.324 -16.124  0.00  0.00    +0.167 C 
ATOM      8  C   UNL     1      36.214 -22.006 -15.874  0.00  0.00    +0.214 C 
ATOM      9  C   UNL     1      35.816 -22.479 -13.642  0.00  0.00    +0.313 C 
ATOM     10  N   UNL     1      37.065 -21.609 -16.920  0.00  0.00    -0.331 N 
ATOM     11  H   UNL     1      38.005 -21.386 -16.731  0.00  0.00    +0.145 HD
ATOM     12  H   UNL     1      36.720 -21.552 -17.841  0.00  0.00    +0.145 HD
ENDROOT
BRANCH   1  15
ATOM     13  O4* UNL     1      30.698 -23.899 -15.723  0.00  0.00    -0.333 OA
ATOM     14  C2* UNL     1      31.041 -22.303 -13.964  0.00  0.00    +0.187 C 
ATOM     15  C1* UNL     1      31.692 -23.406 -14.800  0.00  0.00    +0.226 C 
ATOM     16  C3* UNL     1      29.825 -21.929 -14.789  0.00  0.00    +0.171 C 
ATOM     17  C4* UNL     1      29.449 -23.254 -15.428  0.00  0.00    +0.175 C 
BRANCH  14  18
ATOM     18  O2* UNL     1      30.661 -22.836 -12.696  0.00  0.00    -0.378 OA
ATOM     19  H2* UNL     1      30.206 -23.683 -12.825  0.00  0.00    +0.211 HD
ENDBRANCH  14  18
BRANCH  16  20
ATOM     20  O3* UNL     1      28.769 -21.389 -14.024  0.00  0.00    -0.379 OA
ATOM     21  H3* UNL     1      28.192 -22.105 -13.718  0.00  0.00    +0.211 HD
ENDBRANCH  16  20
BRANCH  17  22
ATOM     22  C5* UNL     1      28.635 -23.103 -16.701  0.00  0.00    +0.169 C 
BRANCH  22  23
ATOM     23  O5* UNL     1      28.225 -21.752 -16.820  0.00  0.00    -0.379 OA
ATOM     24  H5* UNL     1      28.067 -21.382 -15.937  0.00  0.00    +0.211 HD
ENDBRANCH  22  23
ENDBRANCH  17  22
ENDBRANCH   1  15
BRANCH   9  25
ATOM     25  O   UNL     1      36.334 -22.541 -12.367  0.00  0.00    -0.399 OA
BRANCH  25  26
ATOM     26  C   UNL     1      35.610 -23.321 -11.426  0.00  0.00    +0.227 C 
BRANCH  26  27
ATOM     27  C   UNL     1      36.467 -24.493 -10.960  0.00  0.00    +0.075 C 
BRANCH  27  29
ATOM     28 CL   UNL     1      40.995 -25.656 -14.724  0.00  0.00    -0.082 Cl
ATOM     29  C   UNL     1      37.605 -24.784 -11.908  0.00  0.00    -0.018 C 
ATOM     30  C   UNL     1      37.504 -25.856 -12.781  0.00  0.00    -0.003 C 
ATOM     31  C   UNL     1      38.730 -23.976 -11.887  0.00  0.00    -0.003 C 
ATOM     32  C   UNL     1      38.557 -26.126 -13.656  0.00  0.00    +0.011 C 
ATOM     33  C   UNL     1      39.783 -24.246 -12.761  0.00  0.00    +0.011 C 
ATOM     34  C   UNL     1      39.696 -25.322 -13.646  0.00  0.00    +0.058 C 
ENDBRANCH  27  29
ENDBRANCH  26  27
ENDBRANCH  25  26
ENDBRANCH   9  25
TORSDOF 9
ENDMDL
