MODEL 1
REMARK VINA RESULT:     -14.1      0.000      0.000
REMARK  Name = 89670174
REMARK  4 active torsions:
REMARK  status: ('A' for Active; 'I' for Inactive)
REMARK    1  A    between atoms: C_3  and  C_13
REMARK    2  A    between atoms: C_9  and  O_26
REMARK    3  A    between atoms: C_18  and  C_25
REMARK    4  A    between atoms: O_26  and  C_30
REMARK                            x       y       z     vdW  Elec       q    Type
REMARK                         _______ _______ _______ _____ _____    ______ ____
ROOT
ATOM      1  O   UNL     1      34.976 -18.701 -23.304  0.00  0.00    -0.479 OA
ATOM      2  C   UNL     1      35.655 -17.916 -21.091  0.00  0.00    +0.072 C 
ATOM      3  C   UNL     1      34.621 -18.987 -20.778  0.00  0.00    +0.085 C 
ATOM      4  C   UNL     1      35.507 -19.133 -21.996  0.00  0.00    +0.174 C 
ATOM      5  C   UNL     1      35.324 -16.802 -22.015  0.00  0.00    +0.018 C 
ATOM      6  C   UNL     1      34.954 -17.316 -23.264  0.00  0.00    +0.135 C 
ATOM      7  C   UNL     1      35.334 -15.429 -21.818  0.00  0.00    +0.036 C 
ATOM      8  C   UNL     1      34.587 -16.513 -24.326  0.00  0.00    +0.040 C 
ATOM      9  C   UNL     1      34.969 -14.595 -22.880  0.00  0.00    +0.145 C 
ATOM     10  C   UNL     1      34.598 -15.133 -24.125  0.00  0.00    +0.041 C 
ENDROOT
BRANCH   3  13
ATOM     11  N   UNL     1      36.005 -20.021 -18.909  0.00  0.00    -0.318 N 
ATOM     12  N   UNL     1      33.881 -20.655 -19.075  0.00  0.00    -0.318 N 
ATOM     13  C   UNL     1      34.822 -19.894 -19.584  0.00  0.00    +0.148 C 
ATOM     14  C   UNL     1      35.812 -20.924 -17.895  0.00  0.00    +0.059 C 
ATOM     15  C   UNL     1      34.479 -21.305 -18.019  0.00  0.00    +0.059 C 
ATOM     16  C   UNL     1      36.665 -21.425 -16.910  0.00  0.00    +0.019 C 
ATOM     17  C   UNL     1      33.948 -22.241 -17.115  0.00  0.00    +0.016 C 
ATOM     18  C   UNL     1      36.119 -22.356 -16.019  0.00  0.00    +0.073 C 
ATOM     19  C   UNL     1      34.785 -22.757 -16.119  0.00  0.00    +0.005 C 
ATOM     20  H   UNL     1      36.844 -19.549 -19.114  0.00  0.00    +0.148 HD
ATOM     21  H   UNL     1      32.949 -20.742 -19.380  0.00  0.00    +0.148 HD
BRANCH  18  25
ATOM     22  F   UNL     1      36.712 -22.416 -13.704  0.00  0.00    -0.166 F 
ATOM     23  F   UNL     1      36.859 -24.279 -14.804  0.00  0.00    -0.166 F 
ATOM     24  F   UNL     1      38.307 -22.696 -15.156  0.00  0.00    -0.166 F 
ATOM     25  C   UNL     1      36.980 -22.926 -14.942  0.00  0.00    +0.419 C 
ENDBRANCH  18  25
ENDBRANCH   3  13
BRANCH   9  26
ATOM     26  O   UNL     1      34.971 -13.223 -22.704  0.00  0.00    -0.454 OA
BRANCH  26  30
ATOM     27  O   UNL     1      31.911  -7.685 -23.079  0.00  0.00    -0.275 OA
ATOM     28  N   UNL     1      31.845  -9.650 -21.892  0.00  0.00    -0.270 N 
ATOM     29  N   UNL     1      31.778 -11.620 -20.584  0.00  0.00    -0.229 NA
ATOM     30  C   UNL     1      33.938 -12.673 -22.006  0.00  0.00    +0.146 C 
ATOM     31  C   UNL     1      33.449 -11.403 -22.318  0.00  0.00    +0.045 C 
ATOM     32  C   UNL     1      33.980 -10.623 -23.481  0.00  0.00    +0.042 C 
ATOM     33  C   UNL     1      33.360 -13.404 -20.975  0.00  0.00    +0.058 C 
ATOM     34  C   UNL     1      32.371 -10.917 -21.579  0.00  0.00    +0.133 C 
ATOM     35  C   UNL     1      33.818  -9.129 -23.249  0.00  0.00    +0.090 C 
ATOM     36  C   UNL     1      32.428  -8.758 -22.770  0.00  0.00    +0.227 C 
ATOM     37  C   UNL     1      32.291 -12.838 -20.304  0.00  0.00    +0.103 C 
ATOM     38  H   UNL     1      31.004  -9.381 -21.456  0.00  0.00    +0.156 HD
ENDBRANCH  26  30
ENDBRANCH   9  26
TORSDOF 4
ENDMDL
MODEL 2
REMARK VINA RESULT:     -13.6      0.840      1.423
REMARK  Name = 89670174
REMARK  4 active torsions:
REMARK  status: ('A' for Active; 'I' for Inactive)
REMARK    1  A    between atoms: C_3  and  C_13
REMARK    2  A    between atoms: C_9  and  O_26
REMARK    3  A    between atoms: C_18  and  C_25
REMARK    4  A    between atoms: O_26  and  C_30
REMARK                            x       y       z     vdW  Elec       q    Type
REMARK                         _______ _______ _______ _____ _____    ______ ____
ROOT
ATOM      1  O   UNL     1      34.940 -19.032 -23.121  0.00  0.00    -0.479 OA
ATOM      2  C   UNL     1      35.871 -18.141 -21.043  0.00  0.00    +0.072 C 
ATOM      3  C   UNL     1      34.853 -19.162 -20.559  0.00  0.00    +0.085 C 
ATOM      4  C   UNL     1      35.600 -19.403 -21.853  0.00  0.00    +0.174 C 
ATOM      5  C   UNL     1      35.466 -17.072 -21.992  0.00  0.00    +0.018 C 
ATOM      6  C   UNL     1      34.953 -17.647 -23.163  0.00  0.00    +0.135 C 
ATOM      7  C   UNL     1      35.527 -15.692 -21.881  0.00  0.00    +0.036 C 
ATOM      8  C   UNL     1      34.491 -16.896 -24.226  0.00  0.00    +0.040 C 
ATOM      9  C   UNL     1      35.068 -14.910 -22.947  0.00  0.00    +0.145 C 
ATOM     10  C   UNL     1      34.554 -15.508 -24.110  0.00  0.00    +0.041 C 
ENDROOT
BRANCH   3  13
ATOM     11  N   UNL     1      34.260 -20.837 -18.737  0.00  0.00    -0.318 N 
ATOM     12  N   UNL     1      36.328 -20.022 -18.738  0.00  0.00    -0.318 N 
ATOM     13  C   UNL     1      35.162 -20.005 -19.341  0.00  0.00    +0.148 C 
ATOM     14  C   UNL     1      34.889 -21.431 -17.672  0.00  0.00    +0.059 C 
ATOM     15  C   UNL     1      36.178 -20.907 -17.694  0.00  0.00    +0.059 C 
ATOM     16  C   UNL     1      34.453 -22.355 -16.721  0.00  0.00    +0.019 C 
ATOM     17  C   UNL     1      37.101 -21.317 -16.717  0.00  0.00    +0.016 C 
ATOM     18  C   UNL     1      35.384 -22.752 -15.756  0.00  0.00    +0.073 C 
ATOM     19  C   UNL     1      36.685 -22.243 -15.753  0.00  0.00    +0.005 C 
ATOM     20  H   UNL     1      33.328 -20.983 -19.015  0.00  0.00    +0.148 HD
ATOM     21  H   UNL     1      37.136 -19.513 -18.979  0.00  0.00    +0.148 HD
BRANCH  18  25
ATOM     22  F   UNL     1      33.626 -23.887 -14.599  0.00  0.00    -0.166 F 
ATOM     23  F   UNL     1      35.458 -24.998 -14.936  0.00  0.00    -0.166 F 
ATOM     24  F   UNL     1      35.417 -23.395 -13.468  0.00  0.00    -0.166 F 
ATOM     25  C   UNL     1      34.979 -23.740 -14.713  0.00  0.00    +0.419 C 
ENDBRANCH  18  25
ENDBRANCH   3  13
BRANCH   9  26
ATOM     26  O   UNL     1      35.118 -13.530 -22.854  0.00  0.00    -0.454 OA
BRANCH  26  30
ATOM     27  O   UNL     1      32.345  -7.854 -23.364  0.00  0.00    -0.275 OA
ATOM     28  N   UNL     1      32.195  -9.775 -22.115  0.00  0.00    -0.270 N 
ATOM     29  N   UNL     1      32.046 -11.697 -20.744  0.00  0.00    -0.229 NA
ATOM     30  C   UNL     1      34.127 -12.905 -22.160  0.00  0.00    +0.146 C 
ATOM     31  C   UNL     1      33.699 -11.622 -22.506  0.00  0.00    +0.045 C 
ATOM     32  C   UNL     1      34.252 -10.907 -23.701  0.00  0.00    +0.042 C 
ATOM     33  C   UNL     1      33.527 -13.573 -21.098  0.00  0.00    +0.058 C 
ATOM     34  C   UNL     1      32.660 -11.058 -21.768  0.00  0.00    +0.133 C 
ATOM     35  C   UNL     1      34.171  -9.400 -23.514  0.00  0.00    +0.090 C 
ATOM     36  C   UNL     1      32.810  -8.943 -23.029  0.00  0.00    +0.227 C 
ATOM     37  C   UNL     1      32.499 -12.931 -20.432  0.00  0.00    +0.103 C 
ATOM     38  H   UNL     1      31.376  -9.448 -21.676  0.00  0.00    +0.156 HD
ENDBRANCH  26  30
ENDBRANCH   9  26
TORSDOF 4
ENDMDL
MODEL 3
REMARK VINA RESULT:     -13.5      1.740      2.327
REMARK  Name = 89670174
REMARK  4 active torsions:
REMARK  status: ('A' for Active; 'I' for Inactive)
REMARK    1  A    between atoms: C_3  and  C_13
REMARK    2  A    between atoms: C_9  and  O_26
REMARK    3  A    between atoms: C_18  and  C_25
REMARK    4  A    between atoms: O_26  and  C_30
REMARK                            x       y       z     vdW  Elec       q    Type
REMARK                         _______ _______ _______ _____ _____    ______ ____
ROOT
ATOM      1  O   UNL     1      34.909 -19.024 -23.020  0.00  0.00    -0.479 OA
ATOM      2  C   UNL     1      35.205 -18.272 -20.713  0.00  0.00    +0.072 C 
ATOM      3  C   UNL     1      34.048 -19.254 -20.613  0.00  0.00    +0.085 C 
ATOM      4  C   UNL     1      35.140 -19.483 -21.636  0.00  0.00    +0.174 C 
ATOM      5  C   UNL     1      35.150 -17.145 -21.678  0.00  0.00    +0.018 C 
ATOM      6  C   UNL     1      34.990 -17.641 -22.979  0.00  0.00    +0.135 C 
ATOM      7  C   UNL     1      35.230 -15.775 -21.476  0.00  0.00    +0.036 C 
ATOM      8  C   UNL     1      34.901 -16.823 -24.088  0.00  0.00    +0.040 C 
ATOM      9  C   UNL     1      35.146 -14.926 -22.585  0.00  0.00    +0.145 C 
ATOM     10  C   UNL     1      34.983 -15.446 -23.881  0.00  0.00    +0.041 C 
ENDROOT
BRANCH   3  13
ATOM     11  N   UNL     1      32.757 -20.526 -18.826  0.00  0.00    -0.318 N 
ATOM     12  N   UNL     1      34.974 -20.693 -18.795  0.00  0.00    -0.318 N 
ATOM     13  C   UNL     1      33.940 -20.162 -19.408  0.00  0.00    +0.148 C 
ATOM     14  C   UNL     1      33.048 -21.348 -17.768  0.00  0.00    +0.059 C 
ATOM     15  C   UNL     1      34.436 -21.438 -17.769  0.00  0.00    +0.059 C 
ATOM     16  C   UNL     1      32.238 -22.001 -16.837  0.00  0.00    +0.019 C 
ATOM     17  C   UNL     1      35.074 -22.220 -16.792  0.00  0.00    +0.016 C 
ATOM     18  C   UNL     1      32.889 -22.776 -15.870  0.00  0.00    +0.073 C 
ATOM     19  C   UNL     1      34.281 -22.885 -15.847  0.00  0.00    +0.005 C 
ATOM     20  H   UNL     1      31.858 -20.248 -19.115  0.00  0.00    +0.148 HD
ATOM     21  H   UNL     1      35.926 -20.585 -19.021  0.00  0.00    +0.148 HD
BRANCH  18  25
ATOM     22  F   UNL     1      32.787 -24.441 -14.157  0.00  0.00    -0.166 F 
ATOM     23  F   UNL     1      31.543 -22.685 -13.895  0.00  0.00    -0.166 F 
ATOM     24  F   UNL     1      31.022 -24.168 -15.397  0.00  0.00    -0.166 F 
ATOM     25  C   UNL     1      32.078 -23.501 -14.849  0.00  0.00    +0.419 C 
ENDBRANCH  18  25
ENDBRANCH   3  13
BRANCH   9  26
ATOM     26  O   UNL     1      35.223 -13.556 -22.405  0.00  0.00    -0.454 OA
BRANCH  26  30
ATOM     27  O   UNL     1      32.365  -8.005 -23.497  0.00  0.00    -0.275 OA
ATOM     28  N   UNL     1      32.138  -9.865 -22.169  0.00  0.00    -0.270 N 
ATOM     29  N   UNL     1      31.899 -11.720 -20.719  0.00  0.00    -0.229 NA
ATOM     30  C   UNL     1      34.148 -12.930 -21.850  0.00  0.00    +0.146 C 
ATOM     31  C   UNL     1      33.724 -11.680 -22.305  0.00  0.00    +0.045 C 
ATOM     32  C   UNL     1      34.378 -11.008 -23.473  0.00  0.00    +0.042 C 
ATOM     33  C   UNL     1      33.459 -13.562 -20.821  0.00  0.00    +0.058 C 
ATOM     34  C   UNL     1      32.598 -11.113 -21.708  0.00  0.00    +0.133 C 
ATOM     35  C   UNL     1      34.238  -9.497 -23.377  0.00  0.00    +0.090 C 
ATOM     36  C   UNL     1      32.822  -9.061 -23.058  0.00  0.00    +0.227 C 
ATOM     37  C   UNL     1      32.350 -12.922 -20.298  0.00  0.00    +0.103 C 
ATOM     38  H   UNL     1      31.269  -9.544 -21.834  0.00  0.00    +0.156 HD
ENDBRANCH  26  30
ENDBRANCH   9  26
TORSDOF 4
ENDMDL
MODEL 4
REMARK VINA RESULT:     -13.3      5.531     11.166
REMARK  Name = 89670174
REMARK  4 active torsions:
REMARK  status: ('A' for Active; 'I' for Inactive)
REMARK    1  A    between atoms: C_3  and  C_13
REMARK    2  A    between atoms: C_9  and  O_26
REMARK    3  A    between atoms: C_18  and  C_25
REMARK    4  A    between atoms: O_26  and  C_30
REMARK                            x       y       z     vdW  Elec       q    Type
REMARK                         _______ _______ _______ _____ _____    ______ ____
ROOT
ATOM      1  O   UNL     1      37.133 -18.172 -21.013  0.00  0.00    -0.479 OA
ATOM      2  C   UNL     1      34.749 -17.754 -20.671  0.00  0.00    +0.072 C 
ATOM      3  C   UNL     1      35.394 -16.432 -20.282  0.00  0.00    +0.085 C 
ATOM      4  C   UNL     1      36.015 -17.278 -21.373  0.00  0.00    +0.174 C 
ATOM      5  C   UNL     1      35.202 -19.022 -20.043  0.00  0.00    +0.018 C 
ATOM      6  C   UNL     1      36.570 -19.207 -20.284  0.00  0.00    +0.135 C 
ATOM      7  C   UNL     1      34.504 -19.969 -19.310  0.00  0.00    +0.036 C 
ATOM      8  C   UNL     1      37.272 -20.301 -19.816  0.00  0.00    +0.040 C 
ATOM      9  C   UNL     1      35.193 -21.088 -18.828  0.00  0.00    +0.145 C 
ATOM     10  C   UNL     1      36.566 -21.252 -19.080  0.00  0.00    +0.041 C 
ENDROOT
BRANCH   3  13
ATOM     11  N   UNL     1      33.747 -14.539 -19.860  0.00  0.00    -0.318 N 
ATOM     12  N   UNL     1      34.953 -14.442 -21.725  0.00  0.00    -0.318 N 
ATOM     13  C   UNL     1      34.704 -15.133 -20.635  0.00  0.00    +0.148 C 
ATOM     14  C   UNL     1      33.353 -13.387 -20.492  0.00  0.00    +0.059 C 
ATOM     15  C   UNL     1      34.120 -13.348 -21.653  0.00  0.00    +0.059 C 
ATOM     16  C   UNL     1      32.420 -12.404 -20.157  0.00  0.00    +0.019 C 
ATOM     17  C   UNL     1      33.961 -12.275 -22.544  0.00  0.00    +0.016 C 
ATOM     18  C   UNL     1      32.273 -11.343 -21.057  0.00  0.00    +0.073 C 
ATOM     19  C   UNL     1      33.029 -11.277 -22.229  0.00  0.00    +0.005 C 
ATOM     20  H   UNL     1      33.402 -14.877 -19.002  0.00  0.00    +0.148 HD
ATOM     21  H   UNL     1      35.597 -14.659 -22.438  0.00  0.00    +0.148 HD
BRANCH  18  25
ATOM     22  F   UNL     1      30.191 -10.696 -20.074  0.00  0.00    -0.166 F 
ATOM     23  F   UNL     1      31.809  -9.254 -19.988  0.00  0.00    -0.166 F 
ATOM     24  F   UNL     1      30.815  -9.656 -21.879  0.00  0.00    -0.166 F 
ATOM     25  C   UNL     1      31.293 -10.259 -20.753  0.00  0.00    +0.419 C 
ENDBRANCH  18  25
ENDBRANCH   3  13
BRANCH   9  26
ATOM     26  O   UNL     1      34.515 -22.044 -18.093  0.00  0.00    -0.454 OA
BRANCH  26  30
ATOM     27  O   UNL     1      31.014 -23.306 -12.963  0.00  0.00    -0.275 OA
ATOM     28  N   UNL     1      33.198 -22.890 -13.538  0.00  0.00    -0.270 N 
ATOM     29  N   UNL     1      35.450 -22.389 -14.061  0.00  0.00    -0.229 NA
ATOM     30  C   UNL     1      34.799 -22.141 -16.764  0.00  0.00    +0.146 C 
ATOM     31  C   UNL     1      33.806 -22.447 -15.832  0.00  0.00    +0.045 C 
ATOM     32  C   UNL     1      32.405 -22.762 -16.255  0.00  0.00    +0.042 C 
ATOM     33  C   UNL     1      36.109 -21.942 -16.342  0.00  0.00    +0.058 C 
ATOM     34  C   UNL     1      34.178 -22.557 -14.493  0.00  0.00    +0.133 C 
ATOM     35  C   UNL     1      31.416 -22.417 -15.153  0.00  0.00    +0.090 C 
ATOM     36  C   UNL     1      31.843 -22.945 -13.798  0.00  0.00    +0.227 C 
ATOM     37  C   UNL     1      36.379 -22.080 -14.992  0.00  0.00    +0.103 C 
ATOM     38  H   UNL     1      33.499 -23.097 -12.624  0.00  0.00    +0.156 HD
ENDBRANCH  26  30
ENDBRANCH   9  26
TORSDOF 4
ENDMDL
MODEL 5
REMARK VINA RESULT:     -13.2      2.431      4.201
REMARK  Name = 89670174
REMARK  4 active torsions:
REMARK  status: ('A' for Active; 'I' for Inactive)
REMARK    1  A    between atoms: C_3  and  C_13
REMARK    2  A    between atoms: C_9  and  O_26
REMARK    3  A    between atoms: C_18  and  C_25
REMARK    4  A    between atoms: O_26  and  C_30
REMARK                            x       y       z     vdW  Elec       q    Type
REMARK                         _______ _______ _______ _____ _____    ______ ____
ROOT
ATOM      1  O   UNL     1      33.231 -21.277 -19.588  0.00  0.00    -0.479 OA
ATOM      2  C   UNL     1      35.522 -21.049 -18.763  0.00  0.00    +0.072 C 
ATOM      3  C   UNL     1      34.710 -21.232 -17.490  0.00  0.00    +0.085 C 
ATOM      4  C   UNL     1      34.273 -21.923 -18.764  0.00  0.00    +0.174 C 
ATOM      5  C   UNL     1      35.158 -19.989 -19.738  0.00  0.00    +0.018 C 
ATOM      6  C   UNL     1      33.842 -20.181 -20.178  0.00  0.00    +0.135 C 
ATOM      7  C   UNL     1      35.891 -18.920 -20.230  0.00  0.00    +0.036 C 
ATOM      8  C   UNL     1      33.226 -19.344 -21.088  0.00  0.00    +0.040 C 
ATOM      9  C   UNL     1      35.290 -18.060 -21.155  0.00  0.00    +0.145 C 
ATOM     10  C   UNL     1      33.967 -18.271 -21.581  0.00  0.00    +0.041 C 
ENDROOT
BRANCH   3  13
ATOM     11  N   UNL     1      36.582 -21.966 -15.930  0.00  0.00    -0.318 N 
ATOM     12  N   UNL     1      34.589 -22.910 -15.645  0.00  0.00    -0.318 N 
ATOM     13  C   UNL     1      35.282 -22.044 -16.349  0.00  0.00    +0.148 C 
ATOM     14  C   UNL     1      36.736 -22.840 -14.884  0.00  0.00    +0.059 C 
ATOM     15  C   UNL     1      35.480 -23.417 -14.725  0.00  0.00    +0.059 C 
ATOM     16  C   UNL     1      37.835 -23.166 -14.088  0.00  0.00    +0.019 C 
ATOM     17  C   UNL     1      35.289 -24.377 -13.718  0.00  0.00    +0.016 C 
ATOM     18  C   UNL     1      37.628 -24.124 -13.089  0.00  0.00    +0.073 C 
ATOM     19  C   UNL     1      36.378 -24.719 -12.906  0.00  0.00    +0.005 C 
ATOM     20  H   UNL     1      37.280 -21.387 -16.310  0.00  0.00    +0.148 HD
ATOM     21  H   UNL     1      33.639 -23.146 -15.751  0.00  0.00    +0.148 HD
BRANCH  18  25
ATOM     22  F   UNL     1      39.161 -23.515 -11.359  0.00  0.00    -0.166 F 
ATOM     23  F   UNL     1      38.487 -25.576 -11.394  0.00  0.00    -0.166 F 
ATOM     24  F   UNL     1      39.878 -24.865 -12.906  0.00  0.00    -0.166 F 
ATOM     25  C   UNL     1      38.764 -24.512 -12.203  0.00  0.00    +0.419 C 
ENDBRANCH  18  25
ENDBRANCH   3  13
BRANCH   9  26
ATOM     26  O   UNL     1      36.005 -16.987 -21.656  0.00  0.00    -0.454 OA
BRANCH  26  30
ATOM     27  O   UNL     1      32.757 -11.654 -20.571  0.00  0.00    -0.275 OA
ATOM     28  N   UNL     1      33.449 -12.961 -22.328  0.00  0.00    -0.270 N 
ATOM     29  N   UNL     1      34.066 -14.309 -24.171  0.00  0.00    -0.229 NA
ATOM     30  C   UNL     1      35.346 -16.109 -22.464  0.00  0.00    +0.146 C 
ATOM     31  C   UNL     1      34.707 -14.984 -21.940  0.00  0.00    +0.045 C 
ATOM     32  C   UNL     1      34.783 -14.647 -20.483  0.00  0.00    +0.042 C 
ATOM     33  C   UNL     1      35.329 -16.341 -23.835  0.00  0.00    +0.058 C 
ATOM     34  C   UNL     1      34.078 -14.115 -22.831  0.00  0.00    +0.133 C 
ATOM     35  C   UNL     1      33.563 -13.850 -20.048  0.00  0.00    +0.090 C 
ATOM     36  C   UNL     1      33.248 -12.703 -20.987  0.00  0.00    +0.227 C 
ATOM     37  C   UNL     1      34.684 -15.417 -24.637  0.00  0.00    +0.103 C 
ATOM     38  H   UNL     1      33.130 -12.291 -22.976  0.00  0.00    +0.156 HD
ENDBRANCH  26  30
ENDBRANCH   9  26
TORSDOF 4
ENDMDL
MODEL 6
REMARK VINA RESULT:     -13.2      5.888     11.489
REMARK  Name = 89670174
REMARK  4 active torsions:
REMARK  status: ('A' for Active; 'I' for Inactive)
REMARK    1  A    between atoms: C_3  and  C_13
REMARK    2  A    between atoms: C_9  and  O_26
REMARK    3  A    between atoms: C_18  and  C_25
REMARK    4  A    between atoms: O_26  and  C_30
REMARK                            x       y       z     vdW  Elec       q    Type
REMARK                         _______ _______ _______ _____ _____    ______ ____
ROOT
ATOM      1  O   UNL     1      37.295 -18.786 -20.520  0.00  0.00    -0.479 OA
ATOM      2  C   UNL     1      34.975 -18.315 -21.132  0.00  0.00    +0.072 C 
ATOM      3  C   UNL     1      35.554 -16.933 -20.874  0.00  0.00    +0.085 C 
ATOM      4  C   UNL     1      36.437 -18.020 -21.447  0.00  0.00    +0.174 C 
ATOM      5  C   UNL     1      35.089 -19.380 -20.103  0.00  0.00    +0.018 C 
ATOM      6  C   UNL     1      36.439 -19.609 -19.805  0.00  0.00    +0.135 C 
ATOM      7  C   UNL     1      34.113 -20.118 -19.452  0.00  0.00    +0.036 C 
ATOM      8  C   UNL     1      36.854 -20.543 -18.877  0.00  0.00    +0.040 C 
ATOM      9  C   UNL     1      34.509 -21.073 -18.510  0.00  0.00    +0.145 C 
ATOM     10  C   UNL     1      35.869 -21.284 -18.225  0.00  0.00    +0.041 C 
ENDROOT
BRANCH   3  13
ATOM     11  N   UNL     1      35.129 -14.466 -21.331  0.00  0.00    -0.318 N 
ATOM     12  N   UNL     1      34.713 -15.894 -22.982  0.00  0.00    -0.318 N 
ATOM     13  C   UNL     1      35.129 -15.770 -21.743  0.00  0.00    +0.148 C 
ATOM     14  C   UNL     1      34.684 -13.697 -22.377  0.00  0.00    +0.059 C 
ATOM     15  C   UNL     1      34.431 -14.611 -23.395  0.00  0.00    +0.059 C 
ATOM     16  C   UNL     1      34.488 -12.322 -22.514  0.00  0.00    +0.019 C 
ATOM     17  C   UNL     1      33.953 -14.144 -24.631  0.00  0.00    +0.016 C 
ATOM     18  C   UNL     1      34.011 -11.875 -23.751  0.00  0.00    +0.073 C 
ATOM     19  C   UNL     1      33.749 -12.768 -24.791  0.00  0.00    +0.005 C 
ATOM     20  H   UNL     1      35.400 -14.137 -20.444  0.00  0.00    +0.148 HD
ATOM     21  H   UNL     1      34.622 -16.724 -23.504  0.00  0.00    +0.148 HD
BRANCH  18  25
ATOM     22  F   UNL     1      33.363 -10.105 -25.222  0.00  0.00    -0.166 F 
ATOM     23  F   UNL     1      32.840  -9.884 -23.129  0.00  0.00    -0.166 F 
ATOM     24  F   UNL     1      34.911  -9.675 -23.756  0.00  0.00    -0.166 F 
ATOM     25  C   UNL     1      33.783 -10.415 -23.960  0.00  0.00    +0.419 C 
ENDBRANCH  18  25
ENDBRANCH   3  13
BRANCH   9  26
ATOM     26  O   UNL     1      33.550 -21.819 -17.848  0.00  0.00    -0.454 OA
BRANCH  26  30
ATOM     27  O   UNL     1      30.085 -23.842 -12.941  0.00  0.00    -0.275 OA
ATOM     28  N   UNL     1      32.284 -23.624 -13.565  0.00  0.00    -0.270 N 
ATOM     29  N   UNL     1      34.567 -23.348 -14.121  0.00  0.00    -0.229 NA
ATOM     30  C   UNL     1      33.864 -22.303 -16.613  0.00  0.00    +0.146 C 
ATOM     31  C   UNL     1      32.871 -22.690 -15.713  0.00  0.00    +0.045 C 
ATOM     32  C   UNL     1      31.421 -22.668 -16.089  0.00  0.00    +0.042 C 
ATOM     33  C   UNL     1      35.204 -22.422 -16.260  0.00  0.00    +0.058 C 
ATOM     34  C   UNL     1      33.269 -23.203 -14.479  0.00  0.00    +0.133 C 
ATOM     35  C   UNL     1      30.546 -22.480 -14.859  0.00  0.00    +0.090 C 
ATOM     36  C   UNL     1      30.931 -23.404 -13.721  0.00  0.00    +0.227 C 
ATOM     37  C   UNL     1      35.498 -22.949 -15.016  0.00  0.00    +0.103 C 
ATOM     38  H   UNL     1      32.581 -24.107 -12.760  0.00  0.00    +0.156 HD
ENDBRANCH  26  30
ENDBRANCH   9  26
TORSDOF 4
ENDMDL
MODEL 7
REMARK VINA RESULT:     -13.0      2.934      4.619
REMARK  Name = 89670174
REMARK  4 active torsions:
REMARK  status: ('A' for Active; 'I' for Inactive)
REMARK    1  A    between atoms: C_3  and  C_13
REMARK    2  A    between atoms: C_9  and  O_26
REMARK    3  A    between atoms: C_18  and  C_25
REMARK    4  A    between atoms: O_26  and  C_30
REMARK                            x       y       z     vdW  Elec       q    Type
REMARK                         _______ _______ _______ _____ _____    ______ ____
ROOT
ATOM      1  O   UNL     1      32.923 -21.630 -19.216  0.00  0.00    -0.479 OA
ATOM      2  C   UNL     1      35.180 -21.368 -18.313  0.00  0.00    +0.072 C 
ATOM      3  C   UNL     1      34.313 -21.453 -17.066  0.00  0.00    +0.085 C 
ATOM      4  C   UNL     1      33.921 -22.227 -18.305  0.00  0.00    +0.174 C 
ATOM      5  C   UNL     1      34.871 -20.376 -19.374  0.00  0.00    +0.018 C 
ATOM      6  C   UNL     1      33.572 -20.585 -19.855  0.00  0.00    +0.135 C 
ATOM      7  C   UNL     1      35.639 -19.352 -19.907  0.00  0.00    +0.036 C 
ATOM      8  C   UNL     1      33.006 -19.808 -20.847  0.00  0.00    +0.040 C 
ATOM      9  C   UNL     1      35.088 -18.554 -20.915  0.00  0.00    +0.145 C 
ATOM     10  C   UNL     1      33.782 -18.780 -21.381  0.00  0.00    +0.041 C 
ENDROOT
BRANCH   3  13
ATOM     11  N   UNL     1      36.117 -22.616 -15.698  0.00  0.00    -0.318 N 
ATOM     12  N   UNL     1      34.084 -22.493 -14.808  0.00  0.00    -0.318 N 
ATOM     13  C   UNL     1      34.827 -22.188 -15.847  0.00  0.00    +0.148 C 
ATOM     14  C   UNL     1      36.213 -23.238 -14.479  0.00  0.00    +0.059 C 
ATOM     15  C   UNL     1      34.932 -23.148 -13.943  0.00  0.00    +0.059 C 
ATOM     16  C   UNL     1      37.279 -23.853 -13.821  0.00  0.00    +0.019 C 
ATOM     17  C   UNL     1      34.680 -23.699 -12.675  0.00  0.00    +0.016 C 
ATOM     18  C   UNL     1      37.010 -24.396 -12.560  0.00  0.00    +0.073 C 
ATOM     19  C   UNL     1      35.735 -24.321 -11.996  0.00  0.00    +0.005 C 
ATOM     20  H   UNL     1      36.846 -22.499 -16.349  0.00  0.00    +0.148 HD
ATOM     21  H   UNL     1      33.129 -22.296 -14.674  0.00  0.00    +0.148 HD
BRANCH  18  25
ATOM     22  F   UNL     1      39.193 -25.372 -12.576  0.00  0.00    -0.166 F 
ATOM     23  F   UNL     1      38.605 -24.311 -10.779  0.00  0.00    -0.166 F 
ATOM     24  F   UNL     1      37.716 -26.241 -11.238  0.00  0.00    -0.166 F 
ATOM     25  C   UNL     1      38.110 -25.064 -11.804  0.00  0.00    +0.419 C 
ENDBRANCH  18  25
ENDBRANCH   3  13
BRANCH   9  26
ATOM     26  O   UNL     1      35.838 -17.526 -21.460  0.00  0.00    -0.454 OA
BRANCH  26  30
ATOM     27  O   UNL     1      33.539 -13.409 -25.695  0.00  0.00    -0.275 OA
ATOM     28  N   UNL     1      33.877 -13.593 -23.431  0.00  0.00    -0.270 N 
ATOM     29  N   UNL     1      34.275 -13.694 -21.101  0.00  0.00    -0.229 NA
ATOM     30  C   UNL     1      35.341 -16.261 -21.364  0.00  0.00    +0.146 C 
ATOM     31  C   UNL     1      34.887 -15.574 -22.492  0.00  0.00    +0.045 C 
ATOM     32  C   UNL     1      34.848 -16.223 -23.841  0.00  0.00    +0.042 C 
ATOM     33  C   UNL     1      35.279 -15.656 -20.114  0.00  0.00    +0.058 C 
ATOM     34  C   UNL     1      34.365 -14.294 -22.312  0.00  0.00    +0.133 C 
ATOM     35  C   UNL     1      34.966 -15.184 -24.945  0.00  0.00    +0.090 C 
ATOM     36  C   UNL     1      34.035 -14.005 -24.739  0.00  0.00    +0.227 C 
ATOM     37  C   UNL     1      34.739 -14.385 -20.037  0.00  0.00    +0.103 C 
ATOM     38  H   UNL     1      33.391 -12.752 -23.271  0.00  0.00    +0.156 HD
ENDBRANCH  26  30
ENDBRANCH   9  26
TORSDOF 4
ENDMDL
MODEL 8
REMARK VINA RESULT:     -12.7      5.788     11.397
REMARK  Name = 89670174
REMARK  4 active torsions:
REMARK  status: ('A' for Active; 'I' for Inactive)
REMARK    1  A    between atoms: C_3  and  C_13
REMARK    2  A    between atoms: C_9  and  O_26
REMARK    3  A    between atoms: C_18  and  C_25
REMARK    4  A    between atoms: O_26  and  C_30
REMARK                            x       y       z     vdW  Elec       q    Type
REMARK                         _______ _______ _______ _____ _____    ______ ____
ROOT
ATOM      1  O   UNL     1      37.341 -19.092 -19.234  0.00  0.00    -0.479 OA
ATOM      2  C   UNL     1      35.305 -19.070 -20.588  0.00  0.00    +0.072 C 
ATOM      3  C   UNL     1      35.499 -17.605 -20.226  0.00  0.00    +0.085 C 
ATOM      4  C   UNL     1      36.707 -18.494 -20.426  0.00  0.00    +0.174 C 
ATOM      5  C   UNL     1      35.272 -20.107 -19.525  0.00  0.00    +0.018 C 
ATOM      6  C   UNL     1      36.467 -20.075 -18.794  0.00  0.00    +0.135 C 
ATOM      7  C   UNL     1      34.293 -21.029 -19.189  0.00  0.00    +0.036 C 
ATOM      8  C   UNL     1      36.722 -20.924 -17.735  0.00  0.00    +0.040 C 
ATOM      9  C   UNL     1      34.529 -21.902 -18.122  0.00  0.00    +0.145 C 
ATOM     10  C   UNL     1      35.735 -21.850 -17.401  0.00  0.00    +0.041 C 
ENDROOT
BRANCH   3  13
ATOM     11  N   UNL     1      35.067 -15.204 -20.948  0.00  0.00    -0.318 N 
ATOM     12  N   UNL     1      34.954 -16.775 -22.516  0.00  0.00    -0.318 N 
ATOM     13  C   UNL     1      35.172 -16.535 -21.244  0.00  0.00    +0.148 C 
ATOM     14  C   UNL     1      34.761 -14.541 -22.109  0.00  0.00    +0.059 C 
ATOM     15  C   UNL     1      34.696 -15.542 -23.074  0.00  0.00    +0.059 C 
ATOM     16  C   UNL     1      34.543 -13.191 -22.390  0.00  0.00    +0.019 C 
ATOM     17  C   UNL     1      34.397 -15.196 -24.402  0.00  0.00    +0.016 C 
ATOM     18  C   UNL     1      34.245 -12.864 -23.718  0.00  0.00    +0.073 C 
ATOM     19  C   UNL     1      34.174 -13.848 -24.706  0.00  0.00    +0.005 C 
ATOM     20  H   UNL     1      35.188 -14.795 -20.061  0.00  0.00    +0.148 HD
ATOM     21  H   UNL     1      34.971 -17.646 -22.974  0.00  0.00    +0.148 HD
BRANCH  18  25
ATOM     22  F   UNL     1      35.134 -10.671 -24.058  0.00  0.00    -0.166 F 
ATOM     23  F   UNL     1      33.487 -11.272 -25.333  0.00  0.00    -0.166 F 
ATOM     24  F   UNL     1      33.126 -10.824 -23.237  0.00  0.00    -0.166 F 
ATOM     25  C   UNL     1      34.004 -11.437 -24.081  0.00  0.00    +0.419 C 
ENDBRANCH  18  25
ENDBRANCH   3  13
BRANCH   9  26
ATOM     26  O   UNL     1      33.563 -22.828 -17.770  0.00  0.00    -0.454 OA
BRANCH  26  30
ATOM     27  O   UNL     1      34.981 -23.700 -11.654  0.00  0.00    -0.275 OA
ATOM     28  N   UNL     1      33.277 -22.889 -12.963  0.00  0.00    -0.270 N 
ATOM     29  N   UNL     1      31.457 -22.116 -14.261  0.00  0.00    -0.229 NA
ATOM     30  C   UNL     1      32.880 -22.621 -16.610  0.00  0.00    +0.146 C 
ATOM     31  C   UNL     1      33.456 -22.902 -15.370  0.00  0.00    +0.045 C 
ATOM     32  C   UNL     1      34.875 -23.367 -15.253  0.00  0.00    +0.042 C 
ATOM     33  C   UNL     1      31.590 -22.106 -16.673  0.00  0.00    +0.058 C 
ATOM     34  C   UNL     1      32.707 -22.637 -14.225  0.00  0.00    +0.133 C 
ATOM     35  C   UNL     1      35.069 -24.202 -13.997  0.00  0.00    +0.090 C 
ATOM     36  C   UNL     1      34.471 -23.553 -12.765  0.00  0.00    +0.227 C 
ATOM     37  C   UNL     1      30.930 -21.871 -15.481  0.00  0.00    +0.103 C 
ATOM     38  H   UNL     1      32.792 -22.572 -12.167  0.00  0.00    +0.156 HD
ENDBRANCH  26  30
ENDBRANCH   9  26
TORSDOF 4
ENDMDL
MODEL 9
REMARK VINA RESULT:     -12.4      5.880     11.520
REMARK  Name = 89670174
REMARK  4 active torsions:
REMARK  status: ('A' for Active; 'I' for Inactive)
REMARK    1  A    between atoms: C_3  and  C_13
REMARK    2  A    between atoms: C_9  and  O_26
REMARK    3  A    between atoms: C_18  and  C_25
REMARK    4  A    between atoms: O_26  and  C_30
REMARK                            x       y       z     vdW  Elec       q    Type
REMARK                         _______ _______ _______ _____ _____    ______ ____
ROOT
ATOM      1  O   UNL     1      33.680 -14.653 -25.157  0.00  0.00    -0.479 OA
ATOM      2  C   UNL     1      33.839 -13.787 -22.876  0.00  0.00    +0.072 C 
ATOM      3  C   UNL     1      34.460 -12.679 -23.713  0.00  0.00    +0.085 C 
ATOM      4  C   UNL     1      33.333 -13.511 -24.287  0.00  0.00    +0.174 C 
ATOM      5  C   UNL     1      34.334 -15.182 -22.993  0.00  0.00    +0.018 C 
ATOM      6  C   UNL     1      34.207 -15.622 -24.317  0.00  0.00    +0.135 C 
ATOM      7  C   UNL     1      34.863 -16.038 -22.039  0.00  0.00    +0.036 C 
ATOM      8  C   UNL     1      34.593 -16.882 -24.729  0.00  0.00    +0.040 C 
ATOM      9  C   UNL     1      35.258 -17.321 -22.432  0.00  0.00    +0.145 C 
ATOM     10  C   UNL     1      35.124 -17.740 -23.767  0.00  0.00    +0.041 C 
ENDROOT
BRANCH   3  13
ATOM     11  N   UNL     1      33.179 -10.810 -22.554  0.00  0.00    -0.318 N 
ATOM     12  N   UNL     1      34.976 -10.237 -23.731  0.00  0.00    -0.318 N 
ATOM     13  C   UNL     1      34.216 -11.234 -23.339  0.00  0.00    +0.148 C 
ATOM     14  C   UNL     1      33.278  -9.448 -22.432  0.00  0.00    +0.059 C 
ATOM     15  C   UNL     1      34.406  -9.113 -23.174  0.00  0.00    +0.059 C 
ATOM     16  C   UNL     1      32.499  -8.507 -21.755  0.00  0.00    +0.019 C 
ATOM     17  C   UNL     1      34.797  -7.767 -23.258  0.00  0.00    +0.016 C 
ATOM     18  C   UNL     1      32.902  -7.171 -21.850  0.00  0.00    +0.073 C 
ATOM     19  C   UNL     1      34.030  -6.806 -22.587  0.00  0.00    +0.005 C 
ATOM     20  H   UNL     1      32.486 -11.381 -22.150  0.00  0.00    +0.148 HD
ATOM     21  H   UNL     1      35.779 -10.281 -24.299  0.00  0.00    +0.148 HD
BRANCH  18  25
ATOM     22  F   UNL     1      32.690  -4.883 -21.189  0.00  0.00    -0.166 F 
ATOM     23  F   UNL     1      30.857  -5.944 -21.656  0.00  0.00    -0.166 F 
ATOM     24  F   UNL     1      31.935  -6.396 -19.822  0.00  0.00    -0.166 F 
ATOM     25  C   UNL     1      32.111  -6.119 -21.146  0.00  0.00    +0.419 C 
ENDBRANCH  18  25
ENDBRANCH   3  13
BRANCH   9  26
ATOM     26  O   UNL     1      35.790 -18.190 -21.495  0.00  0.00    -0.454 OA
BRANCH  26  30
ATOM     27  O   UNL     1      36.436 -22.024 -16.489  0.00  0.00    -0.275 OA
ATOM     28  N   UNL     1      34.803 -21.242 -17.902  0.00  0.00    -0.270 N 
ATOM     29  N   UNL     1      33.093 -20.533 -19.375  0.00  0.00    -0.229 NA
ATOM     30  C   UNL     1      34.924 -18.980 -20.801  0.00  0.00    +0.146 C 
ATOM     31  C   UNL     1      35.350 -19.733 -19.705  0.00  0.00    +0.045 C 
ATOM     32  C   UNL     1      36.755 -19.645 -19.193  0.00  0.00    +0.042 C 
ATOM     33  C   UNL     1      33.590 -19.020 -21.191  0.00  0.00    +0.058 C 
ATOM     34  C   UNL     1      34.401 -20.495 -19.026  0.00  0.00    +0.133 C 
ATOM     35  C   UNL     1      37.160 -20.936 -18.500  0.00  0.00    +0.090 C 
ATOM     36  C   UNL     1      36.116 -21.423 -17.515  0.00  0.00    +0.227 C 
ATOM     37  C   UNL     1      32.723 -19.801 -20.449  0.00  0.00    +0.103 C 
ATOM     38  H   UNL     1      34.101 -21.664 -17.355  0.00  0.00    +0.156 HD
ENDBRANCH  26  30
ENDBRANCH   9  26
TORSDOF 4
ENDMDL
