MODEL 1
REMARK VINA RESULT:     -11.9      0.000      0.000
REMARK  Name = 2448
REMARK  7 active torsions:
REMARK  status: ('A' for Active; 'I' for Inactive)
REMARK    1  A    between atoms: N_1  and  C_17
REMARK    2  A    between atoms: C_2  and  C_9
REMARK    3  A    between atoms: C_2  and  O_15
REMARK    4  A    between atoms: C_17  and  C_18
REMARK    5  A    between atoms: C_18  and  C_19
REMARK    6  A    between atoms: C_19  and  C_21
REMARK    7  A    between atoms: C_21  and  C_23
REMARK                            x       y       z     vdW  Elec       q    Type
REMARK                         _______ _______ _______ _____ _____    ______ ____
ROOT
ATOM      1  N   UNL     1      33.428 -22.623 -14.981  0.00  0.00    +0.387 N 
ATOM      2  C   UNL     1      34.090 -21.976 -17.803  0.00  0.00    +0.103 C 
ATOM      3  C   UNL     1      35.138 -22.064 -16.672  0.00  0.00    +0.008 C 
ATOM      4  C   UNL     1      32.704 -21.710 -17.171  0.00  0.00    +0.008 C 
ATOM      5  C   UNL     1      34.726 -23.015 -15.543  0.00  0.00    -0.075 C 
ATOM      6  C   UNL     1      32.379 -22.652 -16.005  0.00  0.00    -0.075 C 
ATOM      7  H   UNL     1      33.508 -21.666 -14.639  0.00  0.00    -0.080 HD
ENDROOT
BRANCH   2   9
ATOM      8 BR   UNL     1      35.325 -17.774 -22.202  0.00  0.00    -0.049 Br
ATOM      9  C   UNL     1      34.394 -20.939 -18.886  0.00  0.00    +0.002 C 
ATOM     10  C   UNL     1      33.350 -20.308 -19.558  0.00  0.00    -0.002 C 
ATOM     11  C   UNL     1      35.717 -20.629 -19.199  0.00  0.00    -0.002 C 
ATOM     12  C   UNL     1      33.626 -19.364 -20.546  0.00  0.00    +0.006 C 
ATOM     13  C   UNL     1      35.995 -19.685 -20.188  0.00  0.00    +0.006 C 
ATOM     14  C   UNL     1      34.949 -19.052 -20.861  0.00  0.00    +0.035 C 
ENDBRANCH   2   9
BRANCH   2  15
ATOM     15  O   UNL     1      34.071 -23.241 -18.481  0.00  0.00    -0.383 OA
ATOM     16  H   UNL     1      34.910 -23.703 -18.328  0.00  0.00    +0.211 HD
ENDBRANCH   2  15
BRANCH   1  17
ATOM     17  C   UNL     1      33.073 -23.491 -13.859  0.00  0.00    -0.077 C 
BRANCH  17  18
ATOM     18  C   UNL     1      34.334 -24.091 -13.233  0.00  0.00    -0.015 C 
BRANCH  18  19
ATOM     19  C   UNL     1      34.711 -23.407 -11.916  0.00  0.00    +0.067 C 
BRANCH  19  21
ATOM     20  O   UNL     1      35.572 -24.605 -10.006  0.00  0.00    -0.291 OA
ATOM     21  C   UNL     1      35.779 -24.155 -11.130  0.00  0.00    +0.173 C 
BRANCH  21  23
ATOM     22  F   UNL     1      40.777 -24.939 -13.493  0.00  0.00    -0.204 F 
ATOM     23  C   UNL     1      37.113 -24.364 -11.762  0.00  0.00    +0.035 C 
ATOM     24  C   UNL     1      37.347 -25.540 -12.440  0.00  0.00    +0.005 C 
ATOM     25  C   UNL     1      38.064 -23.375 -11.642  0.00  0.00    +0.005 C 
ATOM     26  C   UNL     1      38.595 -25.735 -13.030  0.00  0.00    +0.030 C 
ATOM     27  C   UNL     1      39.311 -23.570 -12.232  0.00  0.00    +0.030 C 
ATOM     28  C   UNL     1      39.578 -24.750 -12.926  0.00  0.00    +0.140 C 
ENDBRANCH  21  23
ENDBRANCH  19  21
ENDBRANCH  18  19
ENDBRANCH  17  18
ENDBRANCH   1  17
TORSDOF 7
ENDMDL
MODEL 2
REMARK VINA RESULT:     -11.1      5.627     10.997
REMARK  Name = 2448
REMARK  7 active torsions:
REMARK  status: ('A' for Active; 'I' for Inactive)
REMARK    1  A    between atoms: N_1  and  C_17
REMARK    2  A    between atoms: C_2  and  C_9
REMARK    3  A    between atoms: C_2  and  O_15
REMARK    4  A    between atoms: C_17  and  C_18
REMARK    5  A    between atoms: C_18  and  C_19
REMARK    6  A    between atoms: C_19  and  C_21
REMARK    7  A    between atoms: C_21  and  C_23
REMARK                            x       y       z     vdW  Elec       q    Type
REMARK                         _______ _______ _______ _____ _____    ______ ____
ROOT
ATOM      1  N   UNL     1      35.508 -19.591 -19.516  0.00  0.00    +0.387 N 
ATOM      2  C   UNL     1      34.129 -21.801 -18.090  0.00  0.00    +0.103 C 
ATOM      3  C   UNL     1      33.394 -20.623 -18.766  0.00  0.00    +0.008 C 
ATOM      4  C   UNL     1      35.581 -21.367 -17.785  0.00  0.00    +0.008 C 
ATOM      5  C   UNL     1      34.173 -20.025 -19.943  0.00  0.00    -0.075 C 
ATOM      6  C   UNL     1      36.283 -20.717 -18.983  0.00  0.00    -0.075 C 
ATOM      7  H   UNL     1      35.395 -18.906 -18.770  0.00  0.00    -0.080 HD
ENDROOT
BRANCH   2   9
ATOM      8 BR   UNL     1      31.392 -23.995 -12.968  0.00  0.00    -0.049 Br
ATOM      9  C   UNL     1      33.454 -22.344 -16.829  0.00  0.00    +0.002 C 
ATOM     10  C   UNL     1      32.069 -22.272 -16.694  0.00  0.00    -0.002 C 
ATOM     11  C   UNL     1      34.227 -22.908 -15.814  0.00  0.00    -0.002 C 
ATOM     12  C   UNL     1      31.454 -22.764 -15.544  0.00  0.00    +0.006 C 
ATOM     13  C   UNL     1      33.613 -23.401 -14.663  0.00  0.00    +0.006 C 
ATOM     14  C   UNL     1      32.225 -23.329 -14.528  0.00  0.00    +0.035 C 
ENDBRANCH   2   9
BRANCH   2  15
ATOM     15  O   UNL     1      34.143 -22.898 -19.016  0.00  0.00    -0.383 OA
ATOM     16  H   UNL     1      34.880 -22.786 -19.638  0.00  0.00    +0.211 HD
ENDBRANCH   2  15
BRANCH   1  17
ATOM     17  C   UNL     1      36.220 -18.959 -20.626  0.00  0.00    -0.077 C 
BRANCH  17  18
ATOM     18  C   UNL     1      35.228 -18.466 -21.680  0.00  0.00    -0.015 C 
BRANCH  18  19
ATOM     19  C   UNL     1      35.811 -17.349 -22.551  0.00  0.00    +0.067 C 
BRANCH  19  21
ATOM     20  O   UNL     1      34.281 -17.556 -24.406  0.00  0.00    -0.291 OA
ATOM     21  C   UNL     1      34.832 -16.820 -23.591  0.00  0.00    +0.173 C 
BRANCH  21  23
ATOM     22  F   UNL     1      33.663 -11.362 -23.628  0.00  0.00    -0.204 F 
ATOM     23  C   UNL     1      34.520 -15.363 -23.601  0.00  0.00    +0.035 C 
ATOM     24  C   UNL     1      34.921 -14.594 -22.532  0.00  0.00    +0.005 C 
ATOM     25  C   UNL     1      33.842 -14.839 -24.680  0.00  0.00    +0.005 C 
ATOM     26  C   UNL     1      34.629 -13.230 -22.541  0.00  0.00    +0.030 C 
ATOM     27  C   UNL     1      33.551 -13.476 -24.689  0.00  0.00    +0.030 C 
ATOM     28  C   UNL     1      33.944 -12.671 -23.620  0.00  0.00    +0.140 C 
ENDBRANCH  21  23
ENDBRANCH  19  21
ENDBRANCH  18  19
ENDBRANCH  17  18
ENDBRANCH   1  17
TORSDOF 7
ENDMDL
MODEL 3
REMARK VINA RESULT:     -11.1      5.635     11.030
REMARK  Name = 2448
REMARK  7 active torsions:
REMARK  status: ('A' for Active; 'I' for Inactive)
REMARK    1  A    between atoms: N_1  and  C_17
REMARK    2  A    between atoms: C_2  and  C_9
REMARK    3  A    between atoms: C_2  and  O_15
REMARK    4  A    between atoms: C_17  and  C_18
REMARK    5  A    between atoms: C_18  and  C_19
REMARK    6  A    between atoms: C_19  and  C_21
REMARK    7  A    between atoms: C_21  and  C_23
REMARK                            x       y       z     vdW  Elec       q    Type
REMARK                         _______ _______ _______ _____ _____    ______ ____
ROOT
ATOM      1  N   UNL     1      35.522 -19.579 -19.535  0.00  0.00    +0.387 N 
ATOM      2  C   UNL     1      34.137 -21.781 -18.101  0.00  0.00    +0.103 C 
ATOM      3  C   UNL     1      33.405 -20.605 -18.782  0.00  0.00    +0.008 C 
ATOM      4  C   UNL     1      35.590 -21.348 -17.796  0.00  0.00    +0.008 C 
ATOM      5  C   UNL     1      34.187 -20.013 -19.961  0.00  0.00    -0.075 C 
ATOM      6  C   UNL     1      36.294 -20.704 -18.996  0.00  0.00    -0.075 C 
ATOM      7  H   UNL     1      35.408 -18.891 -18.791  0.00  0.00    -0.080 HD
ENDROOT
BRANCH   2   9
ATOM      8 BR   UNL     1      31.391 -23.964 -12.979  0.00  0.00    -0.049 Br
ATOM      9  C   UNL     1      33.460 -22.317 -16.838  0.00  0.00    +0.002 C 
ATOM     10  C   UNL     1      34.230 -22.875 -15.819  0.00  0.00    -0.002 C 
ATOM     11  C   UNL     1      32.074 -22.249 -16.709  0.00  0.00    -0.002 C 
ATOM     12  C   UNL     1      33.614 -23.365 -14.668  0.00  0.00    +0.006 C 
ATOM     13  C   UNL     1      31.456 -22.740 -15.558  0.00  0.00    +0.006 C 
ATOM     14  C   UNL     1      32.227 -23.297 -14.537  0.00  0.00    +0.035 C 
ENDBRANCH   2   9
BRANCH   2  15
ATOM     15  O   UNL     1      34.151 -22.882 -19.022  0.00  0.00    -0.383 OA
ATOM     16  H   UNL     1      33.454 -22.757 -19.685  0.00  0.00    +0.211 HD
ENDBRANCH   2  15
BRANCH   1  17
ATOM     17  C   UNL     1      36.236 -18.952 -20.646  0.00  0.00    -0.077 C 
BRANCH  17  18
ATOM     18  C   UNL     1      35.244 -18.450 -21.697  0.00  0.00    -0.015 C 
BRANCH  18  19
ATOM     19  C   UNL     1      35.815 -17.300 -22.532  0.00  0.00    +0.067 C 
BRANCH  19  21
ATOM     20  O   UNL     1      34.312 -17.523 -24.407  0.00  0.00    -0.291 OA
ATOM     21  C   UNL     1      34.847 -16.781 -23.587  0.00  0.00    +0.173 C 
BRANCH  21  23
ATOM     22  F   UNL     1      33.644 -11.330 -23.661  0.00  0.00    -0.204 F 
ATOM     23  C   UNL     1      34.526 -15.326 -23.606  0.00  0.00    +0.035 C 
ATOM     24  C   UNL     1      33.858 -14.811 -24.695  0.00  0.00    +0.005 C 
ATOM     25  C   UNL     1      34.910 -14.550 -22.536  0.00  0.00    +0.005 C 
ATOM     26  C   UNL     1      33.557 -13.450 -24.713  0.00  0.00    +0.030 C 
ATOM     27  C   UNL     1      34.609 -13.188 -22.554  0.00  0.00    +0.030 C 
ATOM     28  C   UNL     1      33.933 -12.637 -23.642  0.00  0.00    +0.140 C 
ENDBRANCH  21  23
ENDBRANCH  19  21
ENDBRANCH  18  19
ENDBRANCH  17  18
ENDBRANCH   1  17
TORSDOF 7
ENDMDL
MODEL 4
REMARK VINA RESULT:     -11.1      5.613     10.469
REMARK  Name = 2448
REMARK  7 active torsions:
REMARK  status: ('A' for Active; 'I' for Inactive)
REMARK    1  A    between atoms: N_1  and  C_17
REMARK    2  A    between atoms: C_2  and  C_9
REMARK    3  A    between atoms: C_2  and  O_15
REMARK    4  A    between atoms: C_17  and  C_18
REMARK    5  A    between atoms: C_18  and  C_19
REMARK    6  A    between atoms: C_19  and  C_21
REMARK    7  A    between atoms: C_21  and  C_23
REMARK                            x       y       z     vdW  Elec       q    Type
REMARK                         _______ _______ _______ _____ _____    ______ ____
ROOT
ATOM      1  N   UNL     1      35.577 -19.529 -19.558  0.00  0.00    +0.387 N 
ATOM      2  C   UNL     1      34.208 -21.753 -18.142  0.00  0.00    +0.103 C 
ATOM      3  C   UNL     1      33.469 -20.566 -18.798  0.00  0.00    +0.008 C 
ATOM      4  C   UNL     1      35.664 -21.323 -17.847  0.00  0.00    +0.008 C 
ATOM      5  C   UNL     1      34.237 -19.957 -19.977  0.00  0.00    -0.075 C 
ATOM      6  C   UNL     1      36.355 -20.661 -19.044  0.00  0.00    -0.075 C 
ATOM      7  H   UNL     1      35.471 -18.852 -18.804  0.00  0.00    -0.080 HD
ENDROOT
BRANCH   2   9
ATOM      8 BR   UNL     1      31.520 -23.999 -13.017  0.00  0.00    -0.049 Br
ATOM      9  C   UNL     1      33.546 -22.308 -16.880  0.00  0.00    +0.002 C 
ATOM     10  C   UNL     1      32.162 -22.238 -16.732  0.00  0.00    -0.002 C 
ATOM     11  C   UNL     1      34.329 -22.882 -15.879  0.00  0.00    -0.002 C 
ATOM     12  C   UNL     1      31.557 -22.743 -15.582  0.00  0.00    +0.006 C 
ATOM     13  C   UNL     1      33.724 -23.386 -14.726  0.00  0.00    +0.006 C 
ATOM     14  C   UNL     1      32.338 -23.317 -14.579  0.00  0.00    +0.035 C 
ENDBRANCH   2   9
BRANCH   2  15
ATOM     15  O   UNL     1      34.213 -22.840 -19.080  0.00  0.00    -0.383 OA
ATOM     16  H   UNL     1      33.303 -23.029 -19.359  0.00  0.00    +0.211 HD
ENDBRANCH   2  15
BRANCH   1  17
ATOM     17  C   UNL     1      36.279 -18.885 -20.668  0.00  0.00    -0.077 C 
BRANCH  17  18
ATOM     18  C   UNL     1      35.281 -18.178 -21.587  0.00  0.00    -0.015 C 
BRANCH  18  19
ATOM     19  C   UNL     1      35.686 -16.731 -21.882  0.00  0.00    +0.067 C 
BRANCH  19  21
ATOM     20  O   UNL     1      35.436 -15.967 -19.607  0.00  0.00    -0.291 OA
ATOM     21  C   UNL     1      35.253 -15.749 -20.802  0.00  0.00    +0.173 C 
BRANCH  21  23
ATOM     22  F   UNL     1      32.823 -10.969 -22.354  0.00  0.00    -0.204 F 
ATOM     23  C   UNL     1      34.604 -14.473 -21.217  0.00  0.00    +0.035 C 
ATOM     24  C   UNL     1      34.865 -13.977 -22.474  0.00  0.00    +0.005 C 
ATOM     25  C   UNL     1      33.768 -13.837 -20.326  0.00  0.00    +0.005 C 
ATOM     26  C   UNL     1      34.258 -12.783 -22.862  0.00  0.00    +0.030 C 
ATOM     27  C   UNL     1      33.161 -12.643 -20.714  0.00  0.00    +0.030 C 
ATOM     28  C   UNL     1      33.405 -12.116 -21.982  0.00  0.00    +0.140 C 
ENDBRANCH  21  23
ENDBRANCH  19  21
ENDBRANCH  18  19
ENDBRANCH  17  18
ENDBRANCH   1  17
TORSDOF 7
ENDMDL
MODEL 5
REMARK VINA RESULT:     -10.7      7.118     12.139
REMARK  Name = 2448
REMARK  7 active torsions:
REMARK  status: ('A' for Active; 'I' for Inactive)
REMARK    1  A    between atoms: N_1  and  C_17
REMARK    2  A    between atoms: C_2  and  C_9
REMARK    3  A    between atoms: C_2  and  O_15
REMARK    4  A    between atoms: C_17  and  C_18
REMARK    5  A    between atoms: C_18  and  C_19
REMARK    6  A    between atoms: C_19  and  C_21
REMARK    7  A    between atoms: C_21  and  C_23
REMARK                            x       y       z     vdW  Elec       q    Type
REMARK                         _______ _______ _______ _____ _____    ______ ____
ROOT
ATOM      1  N   UNL     1      34.778 -16.218 -22.749  0.00  0.00    +0.387 N 
ATOM      2  C   UNL     1      35.463 -18.475 -20.944  0.00  0.00    +0.103 C 
ATOM      3  C   UNL     1      34.908 -18.655 -22.374  0.00  0.00    +0.008 C 
ATOM      4  C   UNL     1      35.070 -17.068 -20.436  0.00  0.00    +0.008 C 
ATOM      5  C   UNL     1      35.257 -17.488 -23.305  0.00  0.00    -0.075 C 
ATOM      6  C   UNL     1      35.385 -15.953 -21.441  0.00  0.00    -0.075 C 
ATOM      7  H   UNL     1      33.769 -16.290 -22.619  0.00  0.00    -0.080 HD
ENDROOT
BRANCH   2   9
ATOM      8 BR   UNL     1      33.697 -22.821 -16.878  0.00  0.00    -0.049 Br
ATOM      9  C   UNL     1      35.028 -19.547 -19.943  0.00  0.00    +0.002 C 
ATOM     10  C   UNL     1      33.673 -19.807 -19.746  0.00  0.00    -0.002 C 
ATOM     11  C   UNL     1      35.988 -20.262 -19.229  0.00  0.00    -0.002 C 
ATOM     12  C   UNL     1      33.275 -20.783 -18.833  0.00  0.00    +0.006 C 
ATOM     13  C   UNL     1      35.591 -21.239 -18.314  0.00  0.00    +0.006 C 
ATOM     14  C   UNL     1      34.234 -21.499 -18.117  0.00  0.00    +0.035 C 
ENDBRANCH   2   9
BRANCH   2  15
ATOM     15  O   UNL     1      36.893 -18.576 -21.012  0.00  0.00    -0.383 OA
ATOM     16  H   UNL     1      37.254 -18.662 -20.115  0.00  0.00    +0.211 HD
ENDBRANCH   2  15
BRANCH   1  17
ATOM     17  C   UNL     1      35.051 -15.119 -23.674  0.00  0.00    -0.077 C 
BRANCH  17  18
ATOM     18  C   UNL     1      34.877 -13.774 -22.965  0.00  0.00    -0.015 C 
BRANCH  18  19
ATOM     19  C   UNL     1      33.457 -13.221 -23.109  0.00  0.00    +0.067 C 
BRANCH  19  21
ATOM     20  O   UNL     1      33.759 -10.843 -23.392  0.00  0.00    -0.291 OA
ATOM     21  C   UNL     1      33.332 -11.761 -22.695  0.00  0.00    +0.173 C 
BRANCH  21  23
ATOM     22  F   UNL     1      30.776 -10.555 -17.880  0.00  0.00    -0.204 F 
ATOM     23  C   UNL     1      32.649 -11.439 -21.410  0.00  0.00    +0.035 C 
ATOM     24  C   UNL     1      32.093 -10.189 -21.251  0.00  0.00    +0.005 C 
ATOM     25  C   UNL     1      32.601 -12.403 -20.428  0.00  0.00    +0.005 C 
ATOM     26  C   UNL     1      31.455  -9.889 -20.049  0.00  0.00    +0.030 C 
ATOM     27  C   UNL     1      31.962 -12.103 -19.225  0.00  0.00    +0.030 C 
ATOM     28  C   UNL     1      31.389 -10.845 -19.035  0.00  0.00    +0.140 C 
ENDBRANCH  21  23
ENDBRANCH  19  21
ENDBRANCH  18  19
ENDBRANCH  17  18
ENDBRANCH   1  17
TORSDOF 7
ENDMDL
MODEL 6
REMARK VINA RESULT:     -10.5      8.210     13.390
REMARK  Name = 2448
REMARK  7 active torsions:
REMARK  status: ('A' for Active; 'I' for Inactive)
REMARK    1  A    between atoms: N_1  and  C_17
REMARK    2  A    between atoms: C_2  and  C_9
REMARK    3  A    between atoms: C_2  and  O_15
REMARK    4  A    between atoms: C_17  and  C_18
REMARK    5  A    between atoms: C_18  and  C_19
REMARK    6  A    between atoms: C_19  and  C_21
REMARK    7  A    between atoms: C_21  and  C_23
REMARK                            x       y       z     vdW  Elec       q    Type
REMARK                         _______ _______ _______ _____ _____    ______ ____
ROOT
ATOM      1  N   UNL     1      34.751 -15.898 -22.826  0.00  0.00    +0.387 N 
ATOM      2  C   UNL     1      35.447 -18.244 -21.143  0.00  0.00    +0.103 C 
ATOM      3  C   UNL     1      34.805 -18.351 -22.544  0.00  0.00    +0.008 C 
ATOM      4  C   UNL     1      35.140 -16.843 -20.565  0.00  0.00    +0.008 C 
ATOM      5  C   UNL     1      35.147 -17.164 -23.453  0.00  0.00    -0.075 C 
ATOM      6  C   UNL     1      35.441 -15.704 -21.547  0.00  0.00    -0.075 C 
ATOM      7  H   UNL     1      33.749 -15.937 -22.641  0.00  0.00    -0.080 HD
ENDROOT
BRANCH   2   9
ATOM      8 BR   UNL     1      33.743 -22.667 -17.134  0.00  0.00    -0.049 Br
ATOM      9  C   UNL     1      35.027 -19.336 -20.157  0.00  0.00    +0.002 C 
ATOM     10  C   UNL     1      33.676 -19.603 -19.949  0.00  0.00    -0.002 C 
ATOM     11  C   UNL     1      35.998 -20.059 -19.466  0.00  0.00    -0.002 C 
ATOM     12  C   UNL     1      33.292 -20.597 -19.049  0.00  0.00    +0.006 C 
ATOM     13  C   UNL     1      35.615 -21.053 -18.564  0.00  0.00    +0.006 C 
ATOM     14  C   UNL     1      34.262 -21.322 -18.356  0.00  0.00    +0.035 C 
ENDBRANCH   2   9
BRANCH   2  15
ATOM     15  O   UNL     1      36.866 -18.396 -21.298  0.00  0.00    -0.383 OA
ATOM     16  H   UNL     1      37.107 -18.249 -22.226  0.00  0.00    +0.211 HD
ENDBRANCH   2  15
BRANCH   1  17
ATOM     17  C   UNL     1      35.015 -14.776 -23.727  0.00  0.00    -0.077 C 
BRANCH  17  18
ATOM     18  C   UNL     1      33.871 -13.762 -23.659  0.00  0.00    -0.015 C 
BRANCH  18  19
ATOM     19  C   UNL     1      34.294 -12.453 -22.987  0.00  0.00    +0.067 C 
BRANCH  19  21
ATOM     20  O   UNL     1      34.037 -11.303 -25.093  0.00  0.00    -0.291 OA
ATOM     21  C   UNL     1      34.089 -11.228 -23.868  0.00  0.00    +0.173 C 
BRANCH  21  23
ATOM     22  F   UNL     1      33.478  -6.247 -21.422  0.00  0.00    -0.204 F 
ATOM     23  C   UNL     1      33.926  -9.899 -23.215  0.00  0.00    +0.035 C 
ATOM     24  C   UNL     1      32.856  -9.703 -22.370  0.00  0.00    +0.005 C 
ATOM     25  C   UNL     1      34.851  -8.913 -23.480  0.00  0.00    +0.005 C 
ATOM     26  C   UNL     1      32.704  -8.460 -21.759  0.00  0.00    +0.030 C 
ATOM     27  C   UNL     1      34.699  -7.670 -22.869  0.00  0.00    +0.030 C 
ATOM     28  C   UNL     1      33.626  -7.442 -22.008  0.00  0.00    +0.140 C 
ENDBRANCH  21  23
ENDBRANCH  19  21
ENDBRANCH  18  19
ENDBRANCH  17  18
ENDBRANCH   1  17
TORSDOF 7
ENDMDL
MODEL 7
REMARK VINA RESULT:     -10.5      7.138     10.691
REMARK  Name = 2448
REMARK  7 active torsions:
REMARK  status: ('A' for Active; 'I' for Inactive)
REMARK    1  A    between atoms: N_1  and  C_17
REMARK    2  A    between atoms: C_2  and  C_9
REMARK    3  A    between atoms: C_2  and  O_15
REMARK    4  A    between atoms: C_17  and  C_18
REMARK    5  A    between atoms: C_18  and  C_19
REMARK    6  A    between atoms: C_19  and  C_21
REMARK    7  A    between atoms: C_21  and  C_23
REMARK                            x       y       z     vdW  Elec       q    Type
REMARK                         _______ _______ _______ _____ _____    ______ ____
ROOT
ATOM      1  N   UNL     1      34.975 -14.808 -23.298  0.00  0.00    +0.387 N 
ATOM      2  C   UNL     1      33.347 -12.433 -22.571  0.00  0.00    +0.103 C 
ATOM      3  C   UNL     1      33.485 -12.973 -24.012  0.00  0.00    +0.008 C 
ATOM      4  C   UNL     1      34.559 -12.919 -21.744  0.00  0.00    +0.008 C 
ATOM      5  C   UNL     1      33.768 -14.479 -24.064  0.00  0.00    -0.075 C 
ATOM      6  C   UNL     1      34.829 -14.422 -21.891  0.00  0.00    -0.075 C 
ATOM      7  H   UNL     1      35.753 -14.279 -23.691  0.00  0.00    -0.080 HD
ENDROOT
BRANCH   2   9
ATOM      8 BR   UNL     1      32.737  -6.270 -22.139  0.00  0.00    -0.049 Br
ATOM      9  C   UNL     1      33.198 -10.914 -22.464  0.00  0.00    +0.002 C 
ATOM     10  C   UNL     1      32.294 -10.366 -21.556  0.00  0.00    -0.002 C 
ATOM     11  C   UNL     1      33.966 -10.081 -23.276  0.00  0.00    -0.002 C 
ATOM     12  C   UNL     1      32.157  -8.982 -21.458  0.00  0.00    +0.006 C 
ATOM     13  C   UNL     1      33.829  -8.696 -23.179  0.00  0.00    +0.006 C 
ATOM     14  C   UNL     1      32.924  -8.147 -22.269  0.00  0.00    +0.035 C 
ENDBRANCH   2   9
BRANCH   2  15
ATOM     15  O   UNL     1      32.140 -12.975 -22.013  0.00  0.00    -0.383 OA
ATOM     16  H   UNL     1      32.363 -13.681 -21.386  0.00  0.00    +0.211 HD
ENDBRANCH   2  15
BRANCH   1  17
ATOM     17  C   UNL     1      35.280 -16.234 -23.409  0.00  0.00    -0.077 C 
BRANCH  17  18
ATOM     18  C   UNL     1      35.694 -16.796 -22.048  0.00  0.00    -0.015 C 
BRANCH  18  19
ATOM     19  C   UNL     1      35.433 -18.301 -21.936  0.00  0.00    +0.067 C 
BRANCH  19  21
ATOM     20  O   UNL     1      37.198 -18.727 -20.346  0.00  0.00    -0.291 OA
ATOM     21  C   UNL     1      36.033 -18.926 -20.684  0.00  0.00    +0.173 C 
BRANCH  21  23
ATOM     22  F   UNL     1      32.791 -22.165 -17.496  0.00  0.00    -0.204 F 
ATOM     23  C   UNL     1      35.168 -19.791 -19.833  0.00  0.00    +0.035 C 
ATOM     24  C   UNL     1      33.801 -19.696 -19.968  0.00  0.00    +0.005 C 
ATOM     25  C   UNL     1      35.767 -20.654 -18.942  0.00  0.00    +0.005 C 
ATOM     26  C   UNL     1      32.991 -20.505 -19.172  0.00  0.00    +0.030 C 
ATOM     27  C   UNL     1      34.957 -21.463 -18.146  0.00  0.00    +0.030 C 
ATOM     28  C   UNL     1      33.569 -21.389 -18.261  0.00  0.00    +0.140 C 
ENDBRANCH  21  23
ENDBRANCH  19  21
ENDBRANCH  18  19
ENDBRANCH  17  18
ENDBRANCH   1  17
TORSDOF 7
ENDMDL
MODEL 8
REMARK VINA RESULT:     -10.4      8.059     13.501
REMARK  Name = 2448
REMARK  7 active torsions:
REMARK  status: ('A' for Active; 'I' for Inactive)
REMARK    1  A    between atoms: N_1  and  C_17
REMARK    2  A    between atoms: C_2  and  C_9
REMARK    3  A    between atoms: C_2  and  O_15
REMARK    4  A    between atoms: C_17  and  C_18
REMARK    5  A    between atoms: C_18  and  C_19
REMARK    6  A    between atoms: C_19  and  C_21
REMARK    7  A    between atoms: C_21  and  C_23
REMARK                            x       y       z     vdW  Elec       q    Type
REMARK                         _______ _______ _______ _____ _____    ______ ____
ROOT
ATOM      1  N   UNL     1      34.832 -16.077 -22.868  0.00  0.00    +0.387 N 
ATOM      2  C   UNL     1      35.462 -18.375 -21.094  0.00  0.00    +0.103 C 
ATOM      3  C   UNL     1      34.863 -18.521 -22.510  0.00  0.00    +0.008 C 
ATOM      4  C   UNL     1      35.147 -16.955 -20.568  0.00  0.00    +0.008 C 
ATOM      5  C   UNL     1      35.238 -17.364 -23.443  0.00  0.00    -0.075 C 
ATOM      6  C   UNL     1      35.484 -15.848 -21.574  0.00  0.00    -0.075 C 
ATOM      7  H   UNL     1      33.824 -16.105 -22.711  0.00  0.00    -0.080 HD
ENDROOT
BRANCH   2   9
ATOM      8 BR   UNL     1      33.613 -22.675 -17.017  0.00  0.00    -0.049 Br
ATOM      9  C   UNL     1      35.007 -19.433 -20.088  0.00  0.00    +0.002 C 
ATOM     10  C   UNL     1      35.951 -20.158 -19.363  0.00  0.00    -0.002 C 
ATOM     11  C   UNL     1      33.646 -19.673 -19.899  0.00  0.00    -0.002 C 
ATOM     12  C   UNL     1      35.536 -21.123 -18.447  0.00  0.00    +0.006 C 
ATOM     13  C   UNL     1      33.230 -20.640 -18.983  0.00  0.00    +0.006 C 
ATOM     14  C   UNL     1      34.176 -21.364 -18.257  0.00  0.00    +0.035 C 
ENDBRANCH   2   9
BRANCH   2  15
ATOM     15  O   UNL     1      36.884 -18.539 -21.201  0.00  0.00    -0.383 OA
ATOM     16  H   UNL     1      37.219 -18.985 -20.407  0.00  0.00    +0.211 HD
ENDBRANCH   2  15
BRANCH   1  17
ATOM     17  C   UNL     1      35.129 -14.985 -23.793  0.00  0.00    -0.077 C 
BRANCH  17  18
ATOM     18  C   UNL     1      33.832 -14.362 -24.312  0.00  0.00    -0.015 C 
BRANCH  18  19
ATOM     19  C   UNL     1      33.650 -12.917 -23.836  0.00  0.00    +0.067 C 
BRANCH  19  21
ATOM     20  O   UNL     1      33.545 -12.114 -26.109  0.00  0.00    -0.291 OA
ATOM     21  C   UNL     1      33.849 -11.888 -24.940  0.00  0.00    +0.173 C 
BRANCH  21  23
ATOM     22  F   UNL     1      35.954  -6.895 -23.595  0.00  0.00    -0.204 F 
ATOM     23  C   UNL     1      34.411 -10.555 -24.581  0.00  0.00    +0.035 C 
ATOM     24  C   UNL     1      34.006  -9.962 -23.407  0.00  0.00    +0.005 C 
ATOM     25  C   UNL     1      35.314  -9.966 -25.438  0.00  0.00    +0.005 C 
ATOM     26  C   UNL     1      34.532  -8.715 -23.070  0.00  0.00    +0.030 C 
ATOM     27  C   UNL     1      35.840  -8.720 -25.101  0.00  0.00    +0.030 C 
ATOM     28  C   UNL     1      35.450  -8.093 -23.918  0.00  0.00    +0.140 C 
ENDBRANCH  21  23
ENDBRANCH  19  21
ENDBRANCH  18  19
ENDBRANCH  17  18
ENDBRANCH   1  17
TORSDOF 7
ENDMDL
MODEL 9
REMARK VINA RESULT:     -10.2      7.094     10.521
REMARK  Name = 2448
REMARK  7 active torsions:
REMARK  status: ('A' for Active; 'I' for Inactive)
REMARK    1  A    between atoms: N_1  and  C_17
REMARK    2  A    between atoms: C_2  and  C_9
REMARK    3  A    between atoms: C_2  and  O_15
REMARK    4  A    between atoms: C_17  and  C_18
REMARK    5  A    between atoms: C_18  and  C_19
REMARK    6  A    between atoms: C_19  and  C_21
REMARK    7  A    between atoms: C_21  and  C_23
REMARK                            x       y       z     vdW  Elec       q    Type
REMARK                         _______ _______ _______ _____ _____    ______ ____
ROOT
ATOM      1  N   UNL     1      34.948 -14.547 -21.006  0.00  0.00    +0.387 N 
ATOM      2  C   UNL     1      33.225 -12.322 -21.955  0.00  0.00    +0.103 C 
ATOM      3  C   UNL     1      34.409 -12.897 -22.763  0.00  0.00    +0.008 C 
ATOM      4  C   UNL     1      33.440 -12.654 -20.460  0.00  0.00    +0.008 C 
ATOM      5  C   UNL     1      34.697 -14.368 -22.440  0.00  0.00    -0.075 C 
ATOM      6  C   UNL     1      33.790 -14.126 -20.211  0.00  0.00    -0.075 C 
ATOM      7  H   UNL     1      35.738 -13.956 -20.747  0.00  0.00    -0.080 HD
ENDROOT
BRANCH   2   9
ATOM      8 BR   UNL     1      32.252  -6.237 -22.711  0.00  0.00    -0.049 Br
ATOM      9  C   UNL     1      32.984 -10.823 -22.143  0.00  0.00    +0.002 C 
ATOM     10  C   UNL     1      33.670 -10.126 -23.135  0.00  0.00    -0.002 C 
ATOM     11  C   UNL     1      32.078 -10.155 -21.318  0.00  0.00    -0.002 C 
ATOM     12  C   UNL     1      33.452  -8.759 -23.306  0.00  0.00    +0.006 C 
ATOM     13  C   UNL     1      31.860  -8.788 -21.488  0.00  0.00    +0.006 C 
ATOM     14  C   UNL     1      32.547  -8.090 -22.482  0.00  0.00    +0.035 C 
ENDBRANCH   2   9
BRANCH   2  15
ATOM     15  O   UNL     1      32.026 -12.961 -22.418  0.00  0.00    -0.383 OA
ATOM     16  H   UNL     1      32.089 -13.917 -22.264  0.00  0.00    +0.211 HD
ENDBRANCH   2  15
BRANCH   1  17
ATOM     17  C   UNL     1      35.292 -15.938 -20.715  0.00  0.00    -0.077 C 
BRANCH  17  18
ATOM     18  C   UNL     1      35.722 -16.656 -21.996  0.00  0.00    -0.015 C 
BRANCH  18  19
ATOM     19  C   UNL     1      35.454 -18.163 -21.936  0.00  0.00    +0.067 C 
BRANCH  19  21
ATOM     20  O   UNL     1      37.250 -18.670 -20.406  0.00  0.00    -0.291 OA
ATOM     21  C   UNL     1      36.074 -18.839 -20.721  0.00  0.00    +0.173 C 
BRANCH  21  23
ATOM     22  F   UNL     1      32.856 -22.129 -17.560  0.00  0.00    -0.204 F 
ATOM     23  C   UNL     1      35.215 -19.718 -19.878  0.00  0.00    +0.035 C 
ATOM     24  C   UNL     1      33.847 -19.620 -20.001  0.00  0.00    +0.005 C 
ATOM     25  C   UNL     1      35.821 -20.594 -19.005  0.00  0.00    +0.005 C 
ATOM     26  C   UNL     1      33.044 -20.442 -19.212  0.00  0.00    +0.030 C 
ATOM     27  C   UNL     1      35.018 -21.415 -18.216  0.00  0.00    +0.030 C 
ATOM     28  C   UNL     1      33.629 -21.340 -18.319  0.00  0.00    +0.140 C 
ENDBRANCH  21  23
ENDBRANCH  19  21
ENDBRANCH  18  19
ENDBRANCH  17  18
ENDBRANCH   1  17
TORSDOF 7
ENDMDL
