MODEL 1
REMARK VINA RESULT:     -11.6      0.000      0.000
REMARK  Name = 9823820
REMARK  6 active torsions:
REMARK  status: ('A' for Active; 'I' for Inactive)
REMARK    1  A    between atoms: O_1  and  C_4
REMARK    2  A    between atoms: O_1  and  C_23
REMARK    3  A    between atoms: C_7  and  C_14
REMARK    4  A    between atoms: C_8  and  O_17
REMARK    5  A    between atoms: C_20  and  N_28
REMARK    6  A    between atoms: N_27  and  C_32
REMARK                            x       y       z     vdW  Elec       q    Type
REMARK                         _______ _______ _______ _____ _____    ______ ____
ROOT
ATOM      1  O   UNL     1      34.017 -22.912 -17.829  0.00  0.00    -0.454 OA
ENDROOT
BRANCH   1   4
ATOM      2  N   UNL     1      32.417 -22.575 -14.019  0.00  0.00    -0.248 NA
ATOM      3  C   UNL     1      34.322 -22.988 -15.435  0.00  0.00    +0.031 C 
ATOM      4  C   UNL     1      33.513 -22.806 -16.565  0.00  0.00    +0.144 C 
ATOM      5  C   UNL     1      33.724 -22.862 -14.164  0.00  0.00    +0.066 C 
ATOM      6  C   UNL     1      35.689 -23.289 -15.549  0.00  0.00    +0.064 C 
ATOM      7  C   UNL     1      36.470 -23.465 -14.410  0.00  0.00    +0.065 C 
ATOM      8  C   UNL     1      35.888 -23.342 -13.155  0.00  0.00    +0.123 C 
ATOM      9  C   UNL     1      34.528 -23.043 -13.041  0.00  0.00    +0.109 C 
ATOM     10  C   UNL     1      32.166 -22.510 -16.419  0.00  0.00    +0.058 C 
ATOM     11  C   UNL     1      31.671 -22.406 -15.135  0.00  0.00    +0.102 C 
BRANCH   7  14
ATOM     12  O   UNL     1      38.723 -22.883 -14.769  0.00  0.00    -0.271 OA
ATOM     13  N   UNL     1      38.272 -25.104 -14.424  0.00  0.00    -0.325 N 
ATOM     14  C   UNL     1      37.885 -23.775 -14.554  0.00  0.00    +0.242 C 
ATOM     15  H   UNL     1      39.221 -25.352 -14.514  0.00  0.00    +0.145 HD
ATOM     16  H   UNL     1      37.598 -25.797 -14.240  0.00  0.00    +0.145 HD
ENDBRANCH   7  14
BRANCH   8  17
ATOM     17  O   UNL     1      36.626 -23.507 -12.021  0.00  0.00    -0.475 OA
ATOM     18  C   UNL     1      35.939 -23.986 -10.865  0.00  0.00    +0.252 C 
ENDBRANCH   8  17
ENDBRANCH   1   4
BRANCH   1  23
ATOM     19 CL   UNL     1      37.326 -19.532 -19.663  0.00  0.00    -0.081 Cl
ATOM     20  C   UNL     1      34.616 -19.398 -19.956  0.00  0.00    +0.062 C 
ATOM     21  C   UNL     1      35.708 -20.095 -19.440  0.00  0.00    +0.074 C 
ATOM     22  C   UNL     1      33.323 -19.883 -19.759  0.00  0.00    +0.019 C 
ATOM     23  C   UNL     1      34.217 -21.742 -18.539  0.00  0.00    +0.146 C 
ATOM     24  C   UNL     1      35.507 -21.276 -18.725  0.00  0.00    +0.050 C 
ATOM     25  C   UNL     1      33.122 -21.064 -19.044  0.00  0.00    +0.039 C 
BRANCH  20  28
ATOM     26  O   UNL     1      34.977 -18.946 -22.904  0.00  0.00    -0.252 OA
ATOM     27  N   UNL     1      35.084 -16.696 -22.395  0.00  0.00    -0.290 N 
ATOM     28  N   UNL     1      34.782 -18.212 -20.677  0.00  0.00    -0.268 N 
ATOM     29  C   UNL     1      34.949 -18.049 -22.064  0.00  0.00    +0.304 C 
ATOM     30  H   UNL     1      35.051 -16.028 -21.672  0.00  0.00    +0.151 HD
ATOM     31  H   UNL     1      34.783 -17.384 -20.145  0.00  0.00    +0.156 HD
BRANCH  27  32
ATOM     32  C   UNL     1      35.268 -16.241 -23.743  0.00  0.00    +0.073 C 
ATOM     33  C   UNL     1      34.549 -15.032 -24.248  0.00  0.00    +0.021 C 
ATOM     34  C   UNL     1      34.181 -16.394 -24.756  0.00  0.00    +0.021 C 
ENDBRANCH  27  32
ENDBRANCH  20  28
ENDBRANCH   1  23
TORSDOF 6
ENDMDL
MODEL 2
REMARK VINA RESULT:     -11.1      2.178      3.782
REMARK  Name = 9823820
REMARK  6 active torsions:
REMARK  status: ('A' for Active; 'I' for Inactive)
REMARK    1  A    between atoms: O_1  and  C_4
REMARK    2  A    between atoms: O_1  and  C_23
REMARK    3  A    between atoms: C_7  and  C_14
REMARK    4  A    between atoms: C_8  and  O_17
REMARK    5  A    between atoms: C_20  and  N_28
REMARK    6  A    between atoms: N_27  and  C_32
REMARK                            x       y       z     vdW  Elec       q    Type
REMARK                         _______ _______ _______ _____ _____    ______ ____
ROOT
ATOM      1  O   UNL     1      34.517 -22.419 -18.230  0.00  0.00    -0.454 OA
ENDROOT
BRANCH   1   4
ATOM      2  N   UNL     1      35.228 -22.209 -14.150  0.00  0.00    -0.248 NA
ATOM      3  C   UNL     1      33.667 -22.444 -15.970  0.00  0.00    +0.031 C 
ATOM      4  C   UNL     1      34.727 -22.352 -16.882  0.00  0.00    +0.144 C 
ATOM      5  C   UNL     1      33.967 -22.366 -14.595  0.00  0.00    +0.066 C 
ATOM      6  C   UNL     1      32.339 -22.608 -16.398  0.00  0.00    +0.064 C 
ATOM      7  C   UNL     1      31.305 -22.697 -15.470  0.00  0.00    +0.065 C 
ATOM      8  C   UNL     1      31.593 -22.621 -14.114  0.00  0.00    +0.123 C 
ATOM      9  C   UNL     1      32.914 -22.458 -13.688  0.00  0.00    +0.109 C 
ATOM     10  C   UNL     1      36.027 -22.190 -16.428  0.00  0.00    +0.058 C 
ATOM     11  C   UNL     1      36.222 -22.125 -15.064  0.00  0.00    +0.102 C 
BRANCH   7  14
ATOM     12  O   UNL     1      29.363 -21.981 -16.594  0.00  0.00    -0.271 OA
ATOM     13  N   UNL     1      29.298 -24.067 -15.644  0.00  0.00    -0.325 N 
ATOM     14  C   UNL     1      29.937 -22.868 -15.939  0.00  0.00    +0.242 C 
ATOM     15  H   UNL     1      28.373 -24.220 -15.945  0.00  0.00    +0.145 HD
ATOM     16  H   UNL     1      29.771 -24.765 -15.135  0.00  0.00    +0.145 HD
ENDBRANCH   7  14
BRANCH   8  17
ATOM     17  O   UNL     1      30.603 -22.706 -13.181  0.00  0.00    -0.475 OA
ATOM     18  C   UNL     1      30.617 -23.846 -12.323  0.00  0.00    +0.252 C 
ENDBRANCH   8  17
ENDBRANCH   1   4
BRANCH   1  23
ATOM     19 CL   UNL     1      37.610 -18.961 -20.281  0.00  0.00    -0.081 Cl
ATOM     20  C   UNL     1      34.885 -18.903 -20.406  0.00  0.00    +0.062 C 
ATOM     21  C   UNL     1      36.026 -19.566 -19.955  0.00  0.00    +0.074 C 
ATOM     22  C   UNL     1      33.621 -19.421 -20.126  0.00  0.00    +0.019 C 
ATOM     23  C   UNL     1      34.640 -21.248 -18.956  0.00  0.00    +0.146 C 
ATOM     24  C   UNL     1      35.902 -20.748 -19.224  0.00  0.00    +0.050 C 
ATOM     25  C   UNL     1      33.497 -20.603 -19.395  0.00  0.00    +0.039 C 
BRANCH  20  28
ATOM     26  O   UNL     1      34.762 -18.437 -23.371  0.00  0.00    -0.252 OA
ATOM     27  N   UNL     1      35.039 -16.197 -22.880  0.00  0.00    -0.290 N 
ATOM     28  N   UNL     1      34.972 -17.717 -21.141  0.00  0.00    -0.268 N 
ATOM     29  C   UNL     1      34.910 -17.547 -22.536  0.00  0.00    +0.304 C 
ATOM     30  H   UNL     1      35.155 -15.536 -22.160  0.00  0.00    +0.151 HD
ATOM     31  H   UNL     1      35.095 -16.894 -20.614  0.00  0.00    +0.156 HD
BRANCH  27  32
ATOM     32  C   UNL     1      35.011 -15.737 -24.239  0.00  0.00    +0.073 C 
ATOM     33  C   UNL     1      34.218 -14.530 -24.622  0.00  0.00    +0.021 C 
ATOM     34  C   UNL     1      33.782 -15.892 -25.073  0.00  0.00    +0.021 C 
ENDBRANCH  27  32
ENDBRANCH  20  28
ENDBRANCH   1  23
TORSDOF 6
ENDMDL
MODEL 3
REMARK VINA RESULT:     -11.0      1.061      1.376
REMARK  Name = 9823820
REMARK  6 active torsions:
REMARK  status: ('A' for Active; 'I' for Inactive)
REMARK    1  A    between atoms: O_1  and  C_4
REMARK    2  A    between atoms: O_1  and  C_23
REMARK    3  A    between atoms: C_7  and  C_14
REMARK    4  A    between atoms: C_8  and  O_17
REMARK    5  A    between atoms: C_20  and  N_28
REMARK    6  A    between atoms: N_27  and  C_32
REMARK                            x       y       z     vdW  Elec       q    Type
REMARK                         _______ _______ _______ _____ _____    ______ ____
ROOT
ATOM      1  O   UNL     1      34.313 -23.000 -17.617  0.00  0.00    -0.454 OA
ENDROOT
BRANCH   1   4
ATOM      2  N   UNL     1      32.592 -22.657 -13.860  0.00  0.00    -0.248 NA
ATOM      3  C   UNL     1      34.532 -23.112 -15.214  0.00  0.00    +0.031 C 
ATOM      4  C   UNL     1      33.768 -22.893 -16.370  0.00  0.00    +0.144 C 
ATOM      5  C   UNL     1      33.894 -22.982 -13.964  0.00  0.00    +0.066 C 
ATOM      6  C   UNL     1      35.893 -23.452 -15.285  0.00  0.00    +0.064 C 
ATOM      7  C   UNL     1      36.628 -23.664 -14.123  0.00  0.00    +0.065 C 
ATOM      8  C   UNL     1      36.006 -23.537 -12.886  0.00  0.00    +0.123 C 
ATOM      9  C   UNL     1      34.653 -23.199 -12.816  0.00  0.00    +0.109 C 
ATOM     10  C   UNL     1      32.426 -22.559 -16.266  0.00  0.00    +0.058 C 
ATOM     11  C   UNL     1      31.890 -22.454 -14.999  0.00  0.00    +0.102 C 
BRANCH   7  14
ATOM     12  O   UNL     1      38.877 -23.203 -14.646  0.00  0.00    -0.271 OA
ATOM     13  N   UNL     1      38.417 -25.287 -13.807  0.00  0.00    -0.325 N 
ATOM     14  C   UNL     1      38.037 -24.015 -14.222  0.00  0.00    +0.242 C 
ATOM     15  H   UNL     1      39.362 -25.560 -13.859  0.00  0.00    +0.145 HD
ATOM     16  H   UNL     1      37.742 -25.914 -13.461  0.00  0.00    +0.145 HD
ENDBRANCH   7  14
BRANCH   8  17
ATOM     17  O   UNL     1      36.699 -23.737 -11.730  0.00  0.00    -0.475 OA
ATOM     18  C   UNL     1      37.164 -22.576 -11.044  0.00  0.00    +0.252 C 
ENDBRANCH   8  17
ENDBRANCH   1   4
BRANCH   1  23
ATOM     19 CL   UNL     1      32.235 -19.413 -20.541  0.00  0.00    -0.081 Cl
ATOM     20  C   UNL     1      34.856 -19.503 -19.786  0.00  0.00    +0.062 C 
ATOM     21  C   UNL     1      33.596 -20.099 -19.727  0.00  0.00    +0.074 C 
ATOM     22  C   UNL     1      35.933 -20.083 -19.115  0.00  0.00    +0.019 C 
ATOM     23  C   UNL     1      34.493 -21.835 -18.339  0.00  0.00    +0.146 C 
ATOM     24  C   UNL     1      33.413 -21.274 -18.998  0.00  0.00    +0.050 C 
ATOM     25  C   UNL     1      35.750 -21.258 -18.386  0.00  0.00    +0.039 C 
BRANCH  20  28
ATOM     26  O   UNL     1      34.963 -19.027 -22.750  0.00  0.00    -0.252 OA
ATOM     27  N   UNL     1      35.361 -16.812 -22.229  0.00  0.00    -0.290 N 
ATOM     28  N   UNL     1      35.074 -18.326 -20.507  0.00  0.00    -0.268 N 
ATOM     29  C   UNL     1      35.117 -18.150 -21.902  0.00  0.00    +0.304 C 
ATOM     30  H   UNL     1      35.473 -16.161 -21.499  0.00  0.00    +0.151 HD
ATOM     31  H   UNL     1      35.217 -17.514 -19.968  0.00  0.00    +0.156 HD
BRANCH  27  32
ATOM     32  C   UNL     1      35.455 -16.349 -23.584  0.00  0.00    +0.073 C 
ATOM     33  C   UNL     1      34.829 -15.056 -23.996  0.00  0.00    +0.021 C 
ATOM     34  C   UNL     1      34.260 -16.357 -24.479  0.00  0.00    +0.021 C 
ENDBRANCH  27  32
ENDBRANCH  20  28
ENDBRANCH   1  23
TORSDOF 6
ENDMDL
MODEL 4
REMARK VINA RESULT:     -10.2      3.507     10.377
REMARK  Name = 9823820
REMARK  6 active torsions:
REMARK  status: ('A' for Active; 'I' for Inactive)
REMARK    1  A    between atoms: O_1  and  C_4
REMARK    2  A    between atoms: O_1  and  C_23
REMARK    3  A    between atoms: C_7  and  C_14
REMARK    4  A    between atoms: C_8  and  O_17
REMARK    5  A    between atoms: C_20  and  N_28
REMARK    6  A    between atoms: N_27  and  C_32
REMARK                            x       y       z     vdW  Elec       q    Type
REMARK                         _______ _______ _______ _____ _____    ______ ____
ROOT
ATOM      1  O   UNL     1      36.067 -18.016 -21.500  0.00  0.00    -0.454 OA
ENDROOT
BRANCH   1   4
ATOM      2  N   UNL     1      34.020 -17.745 -25.096  0.00  0.00    -0.248 NA
ATOM      3  C   UNL     1      34.858 -16.677 -23.105  0.00  0.00    +0.031 C 
ATOM      4  C   UNL     1      35.389 -17.902 -22.679  0.00  0.00    +0.144 C 
ATOM      5  C   UNL     1      34.172 -16.644 -24.337  0.00  0.00    +0.066 C 
ATOM      6  C   UNL     1      34.997 -15.508 -22.339  0.00  0.00    +0.064 C 
ATOM      7  C   UNL     1      34.460 -14.304 -22.785  0.00  0.00    +0.065 C 
ATOM      8  C   UNL     1      33.783 -14.264 -23.998  0.00  0.00    +0.123 C 
ATOM      9  C   UNL     1      33.644 -15.427 -24.760  0.00  0.00    +0.109 C 
ATOM     10  C   UNL     1      35.235 -19.039 -23.459  0.00  0.00    +0.058 C 
ATOM     11  C   UNL     1      34.548 -18.908 -24.649  0.00  0.00    +0.102 C 
BRANCH   7  14
ATOM     12  O   UNL     1      34.509 -13.145 -20.736  0.00  0.00    -0.271 OA
ATOM     13  N   UNL     1      34.914 -11.916 -22.628  0.00  0.00    -0.325 N 
ATOM     14  C   UNL     1      34.618 -13.106 -21.974  0.00  0.00    +0.242 C 
ATOM     15  H   UNL     1      35.029 -11.085 -22.113  0.00  0.00    +0.145 HD
ATOM     16  H   UNL     1      35.010 -11.904 -23.608  0.00  0.00    +0.145 HD
ENDBRANCH   7  14
BRANCH   8  17
ATOM     17  O   UNL     1      33.246 -13.100 -24.463  0.00  0.00    -0.475 OA
ATOM     18  C   UNL     1      33.751 -12.604 -25.701  0.00  0.00    +0.252 C 
ENDBRANCH   8  17
ENDBRANCH   1   4
BRANCH   1  23
ATOM     19 CL   UNL     1      37.150 -21.183 -17.688  0.00  0.00    -0.081 Cl
ATOM     20  C   UNL     1      34.664 -20.780 -18.739  0.00  0.00    +0.062 C 
ATOM     21  C   UNL     1      36.021 -20.457 -18.775  0.00  0.00    +0.074 C 
ATOM     22  C   UNL     1      33.779 -20.173 -19.630  0.00  0.00    +0.019 C 
ATOM     23  C   UNL     1      35.599 -18.936 -20.579  0.00  0.00    +0.146 C 
ATOM     24  C   UNL     1      36.492 -19.528 -19.702  0.00  0.00    +0.050 C 
ATOM     25  C   UNL     1      34.250 -19.243 -20.557  0.00  0.00    +0.039 C 
BRANCH  20  28
ATOM     26  O   UNL     1      31.905 -21.072 -17.589  0.00  0.00    -0.252 OA
ATOM     27  N   UNL     1      32.748 -22.871 -16.410  0.00  0.00    -0.290 N 
ATOM     28  N   UNL     1      34.158 -21.706 -17.822  0.00  0.00    -0.268 N 
ATOM     29  C   UNL     1      32.852 -21.804 -17.309  0.00  0.00    +0.304 C 
ATOM     30  H   UNL     1      33.547 -23.418 -16.232  0.00  0.00    +0.151 HD
ATOM     31  H   UNL     1      34.800 -22.376 -17.491  0.00  0.00    +0.156 HD
BRANCH  27  32
ATOM     32  C   UNL     1      31.525 -23.202 -15.737  0.00  0.00    +0.073 C 
ATOM     33  C   UNL     1      31.054 -22.400 -14.567  0.00  0.00    +0.021 C 
ATOM     34  C   UNL     1      31.545 -23.803 -14.369  0.00  0.00    +0.021 C 
ENDBRANCH  27  32
ENDBRANCH  20  28
ENDBRANCH   1  23
TORSDOF 6
ENDMDL
MODEL 5
REMARK VINA RESULT:     -10.1      5.140     12.406
REMARK  Name = 9823820
REMARK  6 active torsions:
REMARK  status: ('A' for Active; 'I' for Inactive)
REMARK    1  A    between atoms: O_1  and  C_4
REMARK    2  A    between atoms: O_1  and  C_23
REMARK    3  A    between atoms: C_7  and  C_14
REMARK    4  A    between atoms: C_8  and  O_17
REMARK    5  A    between atoms: C_20  and  N_28
REMARK    6  A    between atoms: N_27  and  C_32
REMARK                            x       y       z     vdW  Elec       q    Type
REMARK                         _______ _______ _______ _____ _____    ______ ____
ROOT
ATOM      1  O   UNL     1      34.709 -13.587 -22.782  0.00  0.00    -0.454 OA
ENDROOT
BRANCH   1   4
ATOM      2  N   UNL     1      31.913 -11.054 -21.061  0.00  0.00    -0.248 NA
ATOM      3  C   UNL     1      33.694 -11.400 -22.648  0.00  0.00    +0.031 C 
ATOM      4  C   UNL     1      33.797 -12.734 -22.230  0.00  0.00    +0.144 C 
ATOM      5  C   UNL     1      32.725 -10.585 -22.027  0.00  0.00    +0.066 C 
ATOM      6  C   UNL     1      34.524 -10.877 -23.653  0.00  0.00    +0.064 C 
ATOM      7  C   UNL     1      34.400  -9.548 -24.048  0.00  0.00    +0.065 C 
ATOM      8  C   UNL     1      33.448  -8.738 -23.442  0.00  0.00    +0.123 C 
ATOM      9  C   UNL     1      32.622  -9.259 -22.442  0.00  0.00    +0.109 C 
ATOM     10  C   UNL     1      32.963 -13.221 -21.236  0.00  0.00    +0.058 C 
ATOM     11  C   UNL     1      32.045 -12.348 -20.688  0.00  0.00    +0.102 C 
BRANCH   7  14
ATOM     12  O   UNL     1      35.537  -9.699 -26.105  0.00  0.00    -0.271 OA
ATOM     13  N   UNL     1      35.784  -7.747 -24.929  0.00  0.00    -0.325 N 
ATOM     14  C   UNL     1      35.271  -9.029 -25.093  0.00  0.00    +0.242 C 
ATOM     15  H   UNL     1      36.376  -7.361 -25.615  0.00  0.00    +0.145 HD
ATOM     16  H   UNL     1      35.553  -7.223 -24.127  0.00  0.00    +0.145 HD
ENDBRANCH   7  14
BRANCH   8  17
ATOM     17  O   UNL     1      33.301  -7.434 -23.808  0.00  0.00    -0.475 OA
ATOM     18  C   UNL     1      31.973  -6.912 -23.829  0.00  0.00    +0.252 C 
ENDBRANCH   8  17
ENDBRANCH   1   4
BRANCH   1  23
ATOM     19 CL   UNL     1      35.363 -18.602 -23.175  0.00  0.00    -0.081 Cl
ATOM     20  C   UNL     1      35.388 -17.191 -20.839  0.00  0.00    +0.062 C 
ATOM     21  C   UNL     1      35.253 -17.162 -22.227  0.00  0.00    +0.074 C 
ATOM     22  C   UNL     1      35.296 -16.009 -20.105  0.00  0.00    +0.019 C 
ATOM     23  C   UNL     1      34.937 -14.788 -22.135  0.00  0.00    +0.146 C 
ATOM     24  C   UNL     1      35.026 -15.951 -22.880  0.00  0.00    +0.050 C 
ATOM     25  C   UNL     1      35.068 -14.798 -20.758  0.00  0.00    +0.039 C 
BRANCH  20  28
ATOM     26  O   UNL     1      33.542 -19.491 -20.265  0.00  0.00    -0.252 OA
ATOM     27  N   UNL     1      35.335 -20.465 -19.182  0.00  0.00    -0.290 N 
ATOM     28  N   UNL     1      35.617 -18.387 -20.153  0.00  0.00    -0.268 N 
ATOM     29  C   UNL     1      34.718 -19.440 -19.907  0.00  0.00    +0.304 C 
ATOM     30  H   UNL     1      36.280 -20.360 -18.928  0.00  0.00    +0.151 HD
ATOM     31  H   UNL     1      36.527 -18.509 -19.795  0.00  0.00    +0.156 HD
BRANCH  27  32
ATOM     32  C   UNL     1      34.648 -21.663 -18.792  0.00  0.00    +0.073 C 
ATOM     33  C   UNL     1      33.344 -21.596 -18.065  0.00  0.00    +0.021 C 
ATOM     34  C   UNL     1      34.578 -22.071 -17.357  0.00  0.00    +0.021 C 
ENDBRANCH  27  32
ENDBRANCH  20  28
ENDBRANCH   1  23
TORSDOF 6
ENDMDL
MODEL 6
REMARK VINA RESULT:     -10.0      2.853     10.749
REMARK  Name = 9823820
REMARK  6 active torsions:
REMARK  status: ('A' for Active; 'I' for Inactive)
REMARK    1  A    between atoms: O_1  and  C_4
REMARK    2  A    between atoms: O_1  and  C_23
REMARK    3  A    between atoms: C_7  and  C_14
REMARK    4  A    between atoms: C_8  and  O_17
REMARK    5  A    between atoms: C_20  and  N_28
REMARK    6  A    between atoms: N_27  and  C_32
REMARK                            x       y       z     vdW  Elec       q    Type
REMARK                         _______ _______ _______ _____ _____    ______ ____
ROOT
ATOM      1  O   UNL     1      36.213 -17.520 -21.614  0.00  0.00    -0.454 OA
ENDROOT
BRANCH   1   4
ATOM      2  N   UNL     1      34.009 -17.598 -25.126  0.00  0.00    -0.248 NA
ATOM      3  C   UNL     1      34.877 -16.354 -23.254  0.00  0.00    +0.031 C 
ATOM      4  C   UNL     1      35.483 -17.521 -22.768  0.00  0.00    +0.144 C 
ATOM      5  C   UNL     1      34.140 -16.440 -24.453  0.00  0.00    +0.066 C 
ATOM      6  C   UNL     1      34.993 -15.129 -22.578  0.00  0.00    +0.064 C 
ATOM      7  C   UNL     1      34.382 -13.985 -23.083  0.00  0.00    +0.065 C 
ATOM      8  C   UNL     1      33.654 -14.061 -24.263  0.00  0.00    +0.123 C 
ATOM      9  C   UNL     1      33.539 -15.280 -24.936  0.00  0.00    +0.109 C 
ATOM     10  C   UNL     1      35.350 -18.717 -23.459  0.00  0.00    +0.058 C 
ATOM     11  C   UNL     1      34.609 -18.702 -24.623  0.00  0.00    +0.102 C 
BRANCH   7  14
ATOM     12  O   UNL     1      34.395 -12.671 -21.128  0.00  0.00    -0.271 OA
ATOM     13  N   UNL     1      34.806 -11.586 -23.106  0.00  0.00    -0.325 N 
ATOM     14  C   UNL     1      34.517 -12.726 -22.364  0.00  0.00    +0.242 C 
ATOM     15  H   UNL     1      34.906 -10.716 -22.655  0.00  0.00    +0.145 HD
ATOM     16  H   UNL     1      34.913 -11.648 -24.083  0.00  0.00    +0.145 HD
ENDBRANCH   7  14
BRANCH   8  17
ATOM     17  O   UNL     1      33.044 -12.959 -24.784  0.00  0.00    -0.475 OA
ATOM     18  C   UNL     1      33.611 -12.405 -25.971  0.00  0.00    +0.252 C 
ENDBRANCH   8  17
ENDBRANCH   1   4
BRANCH   1  23
ATOM     19 CL   UNL     1      32.762 -20.336 -19.186  0.00  0.00    -0.081 Cl
ATOM     20  C   UNL     1      35.464 -20.533 -18.859  0.00  0.00    +0.062 C 
ATOM     21  C   UNL     1      34.403 -19.898 -19.504  0.00  0.00    +0.074 C 
ATOM     22  C   UNL     1      36.777 -20.156 -19.141  0.00  0.00    +0.019 C 
ATOM     23  C   UNL     1      35.964 -18.525 -20.697  0.00  0.00    +0.146 C 
ATOM     24  C   UNL     1      34.655 -18.886 -20.430  0.00  0.00    +0.050 C 
ATOM     25  C   UNL     1      37.029 -19.144 -20.068  0.00  0.00    +0.039 C 
BRANCH  20  28
ATOM     26  O   UNL     1      36.679 -20.980 -16.148  0.00  0.00    -0.252 OA
ATOM     27  N   UNL     1      35.358 -22.871 -16.033  0.00  0.00    -0.290 N 
ATOM     28  N   UNL     1      35.248 -21.551 -17.927  0.00  0.00    -0.268 N 
ATOM     29  C   UNL     1      35.843 -21.721 -16.663  0.00  0.00    +0.304 C 
ATOM     30  H   UNL     1      34.688 -23.420 -16.503  0.00  0.00    +0.151 HD
ATOM     31  H   UNL     1      34.595 -22.240 -18.188  0.00  0.00    +0.156 HD
BRANCH  27  32
ATOM     32  C   UNL     1      35.795 -23.287 -14.731  0.00  0.00    +0.073 C 
ATOM     33  C   UNL     1      37.109 -23.974 -14.548  0.00  0.00    +0.021 C 
ATOM     34  C   UNL     1      35.829 -24.734 -14.362  0.00  0.00    +0.021 C 
ENDBRANCH  27  32
ENDBRANCH  20  28
ENDBRANCH   1  23
TORSDOF 6
ENDMDL
MODEL 7
REMARK VINA RESULT:      -9.8      6.324     12.731
REMARK  Name = 9823820
REMARK  6 active torsions:
REMARK  status: ('A' for Active; 'I' for Inactive)
REMARK    1  A    between atoms: O_1  and  C_4
REMARK    2  A    between atoms: O_1  and  C_23
REMARK    3  A    between atoms: C_7  and  C_14
REMARK    4  A    between atoms: C_8  and  O_17
REMARK    5  A    between atoms: C_20  and  N_28
REMARK    6  A    between atoms: N_27  and  C_32
REMARK                            x       y       z     vdW  Elec       q    Type
REMARK                         _______ _______ _______ _____ _____    ______ ____
ROOT
ATOM      1  O   UNL     1      33.299 -12.314 -22.430  0.00  0.00    -0.454 OA
ENDROOT
BRANCH   1   4
ATOM      2  N   UNL     1      31.256 -10.039 -19.629  0.00  0.00    -0.248 NA
ATOM      3  C   UNL     1      32.708 -10.145 -21.549  0.00  0.00    +0.031 C 
ATOM      4  C   UNL     1      32.636 -11.544 -21.519  0.00  0.00    +0.144 C 
ATOM      5  C   UNL     1      31.993  -9.422 -20.572  0.00  0.00    +0.066 C 
ATOM      6  C   UNL     1      33.467  -9.468 -22.519  0.00  0.00    +0.064 C 
ATOM      7  C   UNL     1      33.521  -8.077 -22.527  0.00  0.00    +0.065 C 
ATOM      8  C   UNL     1      32.819  -7.358 -21.567  0.00  0.00    +0.123 C 
ATOM      9  C   UNL     1      32.065  -8.032 -20.603  0.00  0.00    +0.109 C 
ATOM     10  C   UNL     1      31.878 -12.183 -20.549  0.00  0.00    +0.058 C 
ATOM     11  C   UNL     1      31.213 -11.391 -19.635  0.00  0.00    +0.102 C 
BRANCH   7  14
ATOM     12  O   UNL     1      35.466  -7.774 -23.820  0.00  0.00    -0.271 OA
ATOM     13  N   UNL     1      33.731  -6.325 -24.206  0.00  0.00    -0.325 N 
ATOM     14  C   UNL     1      34.314  -7.399 -23.542  0.00  0.00    +0.242 C 
ATOM     15  H   UNL     1      34.236  -5.842 -24.900  0.00  0.00    +0.145 HD
ATOM     16  H   UNL     1      32.812  -6.049 -23.984  0.00  0.00    +0.145 HD
ENDBRANCH   7  14
BRANCH   8  17
ATOM     17  O   UNL     1      32.851  -5.996 -21.549  0.00  0.00    -0.475 OA
ATOM     18  C   UNL     1      32.362  -5.352 -20.374  0.00  0.00    +0.252 C 
ENDBRANCH   8  17
ENDBRANCH   1   4
BRANCH   1  23
ATOM     19 CL   UNL     1      35.410 -16.795 -23.524  0.00  0.00    -0.081 Cl
ATOM     20  C   UNL     1      35.240 -15.705 -21.029  0.00  0.00    +0.062 C 
ATOM     21  C   UNL     1      34.962 -15.573 -22.389  0.00  0.00    +0.074 C 
ATOM     22  C   UNL     1      34.867 -14.697 -20.140  0.00  0.00    +0.019 C 
ATOM     23  C   UNL     1      33.947 -13.444 -21.964  0.00  0.00    +0.146 C 
ATOM     24  C   UNL     1      34.311 -14.433 -22.860  0.00  0.00    +0.050 C 
ATOM     25  C   UNL     1      34.215 -13.557 -20.611  0.00  0.00    +0.039 C 
BRANCH  20  28
ATOM     26  O   UNL     1      34.297 -18.545 -20.768  0.00  0.00    -0.252 OA
ATOM     27  N   UNL     1      36.371 -18.993 -19.856  0.00  0.00    -0.290 N 
ATOM     28  N   UNL     1      35.892 -16.833 -20.523  0.00  0.00    -0.268 N 
ATOM     29  C   UNL     1      35.408 -18.150 -20.420  0.00  0.00    +0.304 C 
ATOM     30  H   UNL     1      37.242 -18.610 -19.600  0.00  0.00    +0.151 HD
ATOM     31  H   UNL     1      36.810 -16.687 -20.196  0.00  0.00    +0.156 HD
BRANCH  27  32
ATOM     32  C   UNL     1      36.144 -20.392 -19.633  0.00  0.00    +0.073 C 
ATOM     33  C   UNL     1      34.960 -20.860 -18.850  0.00  0.00    +0.021 C 
ATOM     34  C   UNL     1      36.341 -20.993 -18.279  0.00  0.00    +0.021 C 
ENDBRANCH  27  32
ENDBRANCH  20  28
ENDBRANCH   1  23
TORSDOF 6
ENDMDL
MODEL 8
REMARK VINA RESULT:      -9.6      8.909     15.459
REMARK  Name = 9823820
REMARK  6 active torsions:
REMARK  status: ('A' for Active; 'I' for Inactive)
REMARK    1  A    between atoms: O_1  and  C_4
REMARK    2  A    between atoms: O_1  and  C_23
REMARK    3  A    between atoms: C_7  and  C_14
REMARK    4  A    between atoms: C_8  and  O_17
REMARK    5  A    between atoms: C_20  and  N_28
REMARK    6  A    between atoms: N_27  and  C_32
REMARK                            x       y       z     vdW  Elec       q    Type
REMARK                         _______ _______ _______ _____ _____    ______ ____
ROOT
ATOM      1  O   UNL     1      31.901  -8.832 -22.294  0.00  0.00    -0.454 OA
ENDROOT
BRANCH   1   4
ATOM      2  N   UNL     1      32.440  -6.138 -19.188  0.00  0.00    -0.248 NA
ATOM      3  C   UNL     1      32.082  -6.546 -21.536  0.00  0.00    +0.031 C 
ATOM      4  C   UNL     1      32.077  -7.926 -21.288  0.00  0.00    +0.144 C 
ATOM      5  C   UNL     1      32.270  -5.677 -20.441  0.00  0.00    +0.066 C 
ATOM      6  C   UNL     1      31.908  -6.030 -22.830  0.00  0.00    +0.064 C 
ATOM      7  C   UNL     1      31.918  -4.655 -23.048  0.00  0.00    +0.065 C 
ATOM      8  C   UNL     1      32.101  -3.792 -21.975  0.00  0.00    +0.123 C 
ATOM      9  C   UNL     1      32.275  -4.306 -20.687  0.00  0.00    +0.109 C 
ATOM     10  C   UNL     1      32.252  -8.404 -19.998  0.00  0.00    +0.058 C 
ATOM     11  C   UNL     1      32.428  -7.477 -18.992  0.00  0.00    +0.102 C 
BRANCH   7  14
ATOM     12  O   UNL     1      32.358  -4.623 -25.362  0.00  0.00    -0.271 OA
ATOM     13  N   UNL     1      30.821  -3.112 -24.581  0.00  0.00    -0.325 N 
ATOM     14  C   UNL     1      31.734  -4.144 -24.399  0.00  0.00    +0.242 C 
ATOM     15  H   UNL     1      30.669  -2.741 -25.480  0.00  0.00    +0.145 HD
ATOM     16  H   UNL     1      30.325  -2.752 -23.810  0.00  0.00    +0.145 HD
ENDBRANCH   7  14
BRANCH   8  17
ATOM     17  O   UNL     1      32.115  -2.442 -22.155  0.00  0.00    -0.475 OA
ATOM     18  C   UNL     1      33.379  -1.787 -22.055  0.00  0.00    +0.252 C 
ENDBRANCH   8  17
ENDBRANCH   1   4
BRANCH   1  23
ATOM     19 CL   UNL     1      32.312 -13.347 -20.020  0.00  0.00    -0.081 Cl
ATOM     20  C   UNL     1      33.941 -12.436 -22.011  0.00  0.00    +0.062 C 
ATOM     21  C   UNL     1      32.849 -12.185 -21.179  0.00  0.00    +0.074 C 
ATOM     22  C   UNL     1      34.346 -11.476 -22.938  0.00  0.00    +0.019 C 
ATOM     23  C   UNL     1      32.580 -10.033 -22.200  0.00  0.00    +0.146 C 
ATOM     24  C   UNL     1      32.163 -10.974 -21.275  0.00  0.00    +0.050 C 
ATOM     25  C   UNL     1      33.660 -10.264 -23.034  0.00  0.00    +0.039 C 
BRANCH  20  28
ATOM     26  O   UNL     1      33.925 -14.812 -23.847  0.00  0.00    -0.252 OA
ATOM     27  N   UNL     1      35.470 -15.748 -22.408  0.00  0.00    -0.290 N 
ATOM     28  N   UNL     1      34.649 -13.638 -21.942  0.00  0.00    -0.268 N 
ATOM     29  C   UNL     1      34.609 -14.729 -22.829  0.00  0.00    +0.304 C 
ATOM     30  H   UNL     1      35.990 -15.615 -21.582  0.00  0.00    +0.151 HD
ATOM     31  H   UNL     1      35.255 -13.735 -21.171  0.00  0.00    +0.156 HD
BRANCH  27  32
ATOM     32  C   UNL     1      35.627 -16.979 -23.127  0.00  0.00    +0.073 C 
ATOM     33  C   UNL     1      34.647 -18.094 -22.959  0.00  0.00    +0.021 C 
ATOM     34  C   UNL     1      36.041 -18.229 -22.422  0.00  0.00    +0.021 C 
ENDBRANCH  27  32
ENDBRANCH  20  28
ENDBRANCH   1  23
TORSDOF 6
ENDMDL
MODEL 9
REMARK VINA RESULT:      -9.6      5.561     12.363
REMARK  Name = 9823820
REMARK  6 active torsions:
REMARK  status: ('A' for Active; 'I' for Inactive)
REMARK    1  A    between atoms: O_1  and  C_4
REMARK    2  A    between atoms: O_1  and  C_23
REMARK    3  A    between atoms: C_7  and  C_14
REMARK    4  A    between atoms: C_8  and  O_17
REMARK    5  A    between atoms: C_20  and  N_28
REMARK    6  A    between atoms: N_27  and  C_32
REMARK                            x       y       z     vdW  Elec       q    Type
REMARK                         _______ _______ _______ _____ _____    ______ ____
ROOT
ATOM      1  O   UNL     1      33.071 -12.791 -23.756  0.00  0.00    -0.454 OA
ENDROOT
BRANCH   1   4
ATOM      2  N   UNL     1      34.724  -8.990 -23.878  0.00  0.00    -0.248 NA
ATOM      3  C   UNL     1      33.258 -10.576 -22.811  0.00  0.00    +0.031 C 
ATOM      4  C   UNL     1      33.602 -11.533 -23.776  0.00  0.00    +0.144 C 
ATOM      5  C   UNL     1      33.851  -9.300 -22.902  0.00  0.00    +0.066 C 
ATOM      6  C   UNL     1      32.350 -10.865 -21.779  0.00  0.00    +0.064 C 
ATOM      7  C   UNL     1      32.025  -9.895 -20.834  0.00  0.00    +0.065 C 
ATOM      8  C   UNL     1      32.606  -8.636 -20.917  0.00  0.00    +0.123 C 
ATOM      9  C   UNL     1      33.509  -8.349 -21.944  0.00  0.00    +0.109 C 
ATOM     10  C   UNL     1      34.502 -11.217 -24.782  0.00  0.00    +0.058 C 
ATOM     11  C   UNL     1      35.030  -9.942 -24.789  0.00  0.00    +0.102 C 
BRANCH   7  14
ATOM     12  O   UNL     1      30.026 -10.830 -20.011  0.00  0.00    -0.271 OA
ATOM     13  N   UNL     1      31.412  -9.838 -18.477  0.00  0.00    -0.325 N 
ATOM     14  C   UNL     1      31.082 -10.219 -19.773  0.00  0.00    +0.242 C 
ATOM     15  H   UNL     1      30.799 -10.041 -17.733  0.00  0.00    +0.145 HD
ATOM     16  H   UNL     1      32.258  -9.367 -18.303  0.00  0.00    +0.145 HD
ENDBRANCH   7  14
BRANCH   8  17
ATOM     17  O   UNL     1      32.309  -7.666 -20.006  0.00  0.00    -0.475 OA
ATOM     18  C   UNL     1      33.365  -6.779 -19.638  0.00  0.00    +0.252 C 
ENDBRANCH   8  17
ENDBRANCH   1   4
BRANCH   1  23
ATOM     19 CL   UNL     1      34.954 -14.750 -19.472  0.00  0.00    -0.081 Cl
ATOM     20  C   UNL     1      35.312 -15.792 -21.969  0.00  0.00    +0.062 C 
ATOM     21  C   UNL     1      34.747 -14.785 -21.187  0.00  0.00    +0.074 C 
ATOM     22  C   UNL     1      35.123 -15.791 -23.351  0.00  0.00    +0.019 C 
ATOM     23  C   UNL     1      33.817 -13.791 -23.160  0.00  0.00    +0.146 C 
ATOM     24  C   UNL     1      33.993 -13.776 -21.788  0.00  0.00    +0.050 C 
ATOM     25  C   UNL     1      34.369 -14.783 -23.951  0.00  0.00    +0.039 C 
BRANCH  20  28
ATOM     26  O   UNL     1      34.520 -18.565 -21.126  0.00  0.00    -0.252 OA
ATOM     27  N   UNL     1      36.721 -18.838 -20.484  0.00  0.00    -0.290 N 
ATOM     28  N   UNL     1      36.072 -16.818 -21.399  0.00  0.00    -0.268 N 
ATOM     29  C   UNL     1      35.655 -18.107 -21.019  0.00  0.00    +0.304 C 
ATOM     30  H   UNL     1      37.606 -18.410 -20.428  0.00  0.00    +0.151 HD
ATOM     31  H   UNL     1      37.022 -16.612 -21.244  0.00  0.00    +0.156 HD
BRANCH  27  32
ATOM     32  C   UNL     1      36.579 -20.186 -20.014  0.00  0.00    +0.073 C 
ATOM     33  C   UNL     1      35.430 -20.576 -19.143  0.00  0.00    +0.021 C 
ATOM     34  C   UNL     1      36.819 -20.524 -18.579  0.00  0.00    +0.021 C 
ENDBRANCH  27  32
ENDBRANCH  20  28
ENDBRANCH   1  23
TORSDOF 6
ENDMDL
