MODEL 1
REMARK VINA RESULT:     -11.9      0.000      0.000
REMARK  Name = 5288017
REMARK  6 active torsions:
REMARK  status: ('A' for Active; 'I' for Inactive)
REMARK    1  A    between atoms: C_4  and  C_15
REMARK    2  A    between atoms: C_10  and  N_22
REMARK    3  A    between atoms: C_23  and  C_25
REMARK    4  A    between atoms: C_25  and  N_26
REMARK    5  A    between atoms: C_27  and  C_33
REMARK    6  A    between atoms: C_33  and  N_34
REMARK                            x       y       z     vdW  Elec       q    Type
REMARK                         _______ _______ _______ _____ _____    ______ ____
ROOT
ATOM      1  O   UNL     1      36.278 -23.667 -15.371  0.00  0.00    -0.286 OA
ATOM      2  N   UNL     1      36.311 -24.587 -11.006  0.00  0.00    -0.280 N 
ATOM      3  N   UNL     1      35.010 -24.187 -10.938  0.00  0.00    -0.173 NA
ATOM      4  C   UNL     1      36.875 -24.504 -12.264  0.00  0.00    +0.056 A 
ATOM      5  C   UNL     1      35.872 -24.022 -13.046  0.00  0.00    +0.071 A 
ATOM      6  C   UNL     1      34.769 -23.848 -12.196  0.00  0.00    +0.105 A 
ATOM      7  C   UNL     1      35.557 -23.640 -14.396  0.00  0.00    +0.199 C 
ATOM      8  C   UNL     1      34.120 -23.203 -14.300  0.00  0.00    +0.054 C 
ATOM      9  C   UNL     1      33.670 -23.339 -12.958  0.00  0.00    +0.024 C 
ATOM     10  C   UNL     1      33.289 -22.734 -15.278  0.00  0.00    +0.053 C 
ATOM     11  C   UNL     1      32.386 -23.008 -12.591  0.00  0.00    +0.002 C 
ATOM     12  C   UNL     1      31.990 -22.393 -14.933  0.00  0.00    +0.015 C 
ATOM     13  C   UNL     1      31.541 -22.530 -13.600  0.00  0.00    +0.001 C 
ATOM     14  H   UNL     1      36.809 -24.909 -10.221  0.00  0.00    +0.189 HD
ENDROOT
BRANCH   4  15
ATOM     15  C   UNL     1      38.315 -24.904 -12.546  0.00  0.00    +0.040 C 
ATOM     16  C   UNL     1      38.409 -25.954 -13.666  0.00  0.00    +0.006 C 
ATOM     17  C   UNL     1      39.198 -23.683 -12.854  0.00  0.00    +0.006 C 
ATOM     18  C   UNL     1      39.858 -26.355 -13.936  0.00  0.00    +0.000 C 
ATOM     19  C   UNL     1      40.644 -24.095 -13.127  0.00  0.00    +0.000 C 
ATOM     20  C   UNL     1      40.732 -25.139 -14.236  0.00  0.00    +0.000 C 
ENDBRANCH   4  15
BRANCH  10  22
ATOM     21  O   UNL     1      32.068 -21.227 -17.567  0.00  0.00    -0.277 OA
ATOM     22  N   UNL     1      33.723 -22.594 -16.618  0.00  0.00    -0.286 N 
ATOM     23  C   UNL     1      33.108 -21.873 -17.639  0.00  0.00    +0.205 C 
ATOM     24  H   UNL     1      34.557 -23.060 -16.856  0.00  0.00    +0.155 HD
BRANCH  23  25
ATOM     25  C   UNL     1      33.912 -21.990 -18.922  0.00  0.00    +0.010 C 
BRANCH  25  26
ATOM     26  N   UNL     1      34.533 -20.701 -19.226  0.00  0.00    +0.393 N 
ATOM     27  C   UNL     1      35.859 -18.738 -20.955  0.00  0.00    -0.026 C 
ATOM     28  C   UNL     1      34.381 -18.625 -20.564  0.00  0.00    -0.025 C 
ATOM     29  C   UNL     1      36.616 -19.542 -19.893  0.00  0.00    -0.025 C 
ATOM     30  C   UNL     1      33.775 -19.999 -20.272  0.00  0.00    -0.077 C 
ATOM     31  C   UNL     1      35.936 -20.886 -19.624  0.00  0.00    -0.077 C 
ATOM     32  H   UNL     1      34.518 -20.124 -18.386  0.00  0.00    -0.079 HD
BRANCH  27  33
ATOM     33  C   UNL     1      36.483 -17.359 -21.148  0.00  0.00    -0.086 C 
BRANCH  33  34
ATOM     34  N   UNL     1      36.140 -16.811 -22.452  0.00  0.00    +0.380 N 
ATOM     35  H   UNL     1      36.955 -16.854 -23.063  0.00  0.00    -0.089 HD
ATOM     36  H   UNL     1      35.845 -15.840 -22.347  0.00  0.00    -0.089 HD
ATOM     37  H   UNL     1      35.380 -17.356 -22.860  0.00  0.00    -0.089 HD
ENDBRANCH  33  34
ENDBRANCH  27  33
ENDBRANCH  25  26
ENDBRANCH  23  25
ENDBRANCH  10  22
TORSDOF 6
ENDMDL
MODEL 2
REMARK VINA RESULT:     -11.7      2.974      7.347
REMARK  Name = 5288017
REMARK  6 active torsions:
REMARK  status: ('A' for Active; 'I' for Inactive)
REMARK    1  A    between atoms: C_4  and  C_15
REMARK    2  A    between atoms: C_10  and  N_22
REMARK    3  A    between atoms: C_23  and  C_25
REMARK    4  A    between atoms: C_25  and  N_26
REMARK    5  A    between atoms: C_27  and  C_33
REMARK    6  A    between atoms: C_33  and  N_34
REMARK                            x       y       z     vdW  Elec       q    Type
REMARK                         _______ _______ _______ _____ _____    ______ ____
ROOT
ATOM      1  O   UNL     1      33.500 -22.795 -16.175  0.00  0.00    -0.286 OA
ATOM      2  N   UNL     1      37.383 -20.878 -17.250  0.00  0.00    -0.280 N 
ATOM      3  N   UNL     1      37.866 -21.231 -16.027  0.00  0.00    -0.173 NA
ATOM      4  C   UNL     1      36.078 -21.261 -17.487  0.00  0.00    +0.056 A 
ATOM      5  C   UNL     1      35.706 -21.898 -16.344  0.00  0.00    +0.071 A 
ATOM      6  C   UNL     1      36.823 -21.851 -15.495  0.00  0.00    +0.105 A 
ATOM      7  C   UNL     1      34.605 -22.580 -15.721  0.00  0.00    +0.199 C 
ATOM      8  C   UNL     1      35.158 -22.962 -14.374  0.00  0.00    +0.054 C 
ATOM      9  C   UNL     1      36.502 -22.508 -14.265  0.00  0.00    +0.024 C 
ATOM     10  C   UNL     1      34.556 -23.633 -13.348  0.00  0.00    +0.053 C 
ATOM     11  C   UNL     1      37.247 -22.726 -13.130  0.00  0.00    +0.002 C 
ATOM     12  C   UNL     1      35.286 -23.866 -12.192  0.00  0.00    +0.015 C 
ATOM     13  C   UNL     1      36.622 -23.416 -12.084  0.00  0.00    +0.001 C 
ATOM     14  H   UNL     1      37.921 -20.388 -17.913  0.00  0.00    +0.189 HD
ENDROOT
BRANCH   4  15
ATOM     15  C   UNL     1      35.357 -20.960 -18.793  0.00  0.00    +0.040 C 
ATOM     16  C   UNL     1      33.859 -20.691 -18.571  0.00  0.00    +0.006 C 
ATOM     17  C   UNL     1      36.022 -19.805 -19.560  0.00  0.00    +0.006 C 
ATOM     18  C   UNL     1      33.143 -20.398 -19.889  0.00  0.00    +0.000 C 
ATOM     19  C   UNL     1      35.296 -19.518 -20.873  0.00  0.00    +0.000 C 
ATOM     20  C   UNL     1      33.810 -19.255 -20.650  0.00  0.00    +0.000 C 
ENDBRANCH   4  15
BRANCH  10  22
ATOM     21  O   UNL     1      32.040 -22.554 -12.119  0.00  0.00    -0.277 OA
ATOM     22  N   UNL     1      33.220 -24.092 -13.441  0.00  0.00    -0.286 N 
ATOM     23  C   UNL     1      32.088 -23.541 -12.845  0.00  0.00    +0.205 C 
ATOM     24  H   UNL     1      33.074 -24.893 -13.994  0.00  0.00    +0.155 HD
BRANCH  23  25
ATOM     25  C   UNL     1      30.856 -24.350 -13.210  0.00  0.00    +0.010 C 
BRANCH  25  26
ATOM     26  N   UNL     1      30.213 -23.754 -14.382  0.00  0.00    +0.393 N 
ATOM     27  C   UNL     1      27.967 -22.606 -15.877  0.00  0.00    -0.026 C 
ATOM     28  C   UNL     1      29.095 -21.746 -15.298  0.00  0.00    -0.025 C 
ATOM     29  C   UNL     1      28.475 -24.031 -16.121  0.00  0.00    -0.025 C 
ATOM     30  C   UNL     1      29.723 -22.404 -14.068  0.00  0.00    -0.077 C 
ATOM     31  C   UNL     1      29.123 -24.614 -14.864  0.00  0.00    -0.077 C 
ATOM     32  H   UNL     1      30.903 -23.673 -15.128  0.00  0.00    -0.079 HD
BRANCH  27  33
ATOM     33  C   UNL     1      27.412 -21.994 -17.160  0.00  0.00    -0.086 C 
BRANCH  33  34
ATOM     34  N   UNL     1      26.439 -20.953 -16.861  0.00  0.00    +0.380 N 
ATOM     35  H   UNL     1      25.514 -21.370 -16.767  0.00  0.00    -0.089 HD
ATOM     36  H   UNL     1      26.429 -20.269 -17.618  0.00  0.00    -0.089 HD
ATOM     37  H   UNL     1      26.694 -20.491 -15.988  0.00  0.00    -0.089 HD
ENDBRANCH  33  34
ENDBRANCH  27  33
ENDBRANCH  25  26
ENDBRANCH  23  25
ENDBRANCH  10  22
TORSDOF 6
ENDMDL
MODEL 3
REMARK VINA RESULT:     -11.3      2.103      7.231
REMARK  Name = 5288017
REMARK  6 active torsions:
REMARK  status: ('A' for Active; 'I' for Inactive)
REMARK    1  A    between atoms: C_4  and  C_15
REMARK    2  A    between atoms: C_10  and  N_22
REMARK    3  A    between atoms: C_23  and  C_25
REMARK    4  A    between atoms: C_25  and  N_26
REMARK    5  A    between atoms: C_27  and  C_33
REMARK    6  A    between atoms: C_33  and  N_34
REMARK                            x       y       z     vdW  Elec       q    Type
REMARK                         _______ _______ _______ _____ _____    ______ ____
ROOT
ATOM      1  O   UNL     1      35.158 -23.258 -15.029  0.00  0.00    -0.286 OA
ATOM      2  N   UNL     1      32.401 -21.446 -18.033  0.00  0.00    -0.280 N 
ATOM      3  N   UNL     1      31.351 -21.774 -17.229  0.00  0.00    -0.173 NA
ATOM      4  C   UNL     1      33.639 -21.811 -17.542  0.00  0.00    +0.056 A 
ATOM      5  C   UNL     1      33.361 -22.409 -16.353  0.00  0.00    +0.071 A 
ATOM      6  C   UNL     1      31.966 -22.360 -16.212  0.00  0.00    +0.105 A 
ATOM      7  C   UNL     1      33.978 -23.053 -15.225  0.00  0.00    +0.199 C 
ATOM      8  C   UNL     1      32.804 -23.407 -14.351  0.00  0.00    +0.054 C 
ATOM      9  C   UNL     1      31.600 -22.976 -14.973  0.00  0.00    +0.024 C 
ATOM     10  C   UNL     1      32.784 -24.039 -13.140  0.00  0.00    +0.053 C 
ATOM     11  C   UNL     1      30.373 -23.176 -14.385  0.00  0.00    +0.002 C 
ATOM     12  C   UNL     1      31.559 -24.252 -12.526  0.00  0.00    +0.015 C 
ATOM     13  C   UNL     1      30.362 -23.823 -13.144  0.00  0.00    +0.001 C 
ATOM     14  H   UNL     1      32.287 -20.985 -18.895  0.00  0.00    +0.189 HD
ENDROOT
BRANCH   4  15
ATOM     15  C   UNL     1      34.934 -21.533 -18.291  0.00  0.00    +0.040 C 
ATOM     16  C   UNL     1      34.742 -20.479 -19.394  0.00  0.00    +0.006 C 
ATOM     17  C   UNL     1      36.073 -21.137 -17.336  0.00  0.00    +0.006 C 
ATOM     18  C   UNL     1      36.046 -20.214 -20.145  0.00  0.00    +0.000 C 
ATOM     19  C   UNL     1      37.370 -20.869 -18.097  0.00  0.00    +0.000 C 
ATOM     20  C   UNL     1      37.175 -19.826 -19.193  0.00  0.00    +0.000 C 
ENDBRANCH   4  15
BRANCH  10  22
ATOM     21  O   UNL     1      34.702 -22.549 -11.378  0.00  0.00    -0.277 OA
ATOM     22  N   UNL     1      33.974 -24.473 -12.508  0.00  0.00    -0.286 N 
ATOM     23  C   UNL     1      34.825 -23.728 -11.694  0.00  0.00    +0.205 C 
ATOM     24  H   UNL     1      34.229 -25.412 -12.659  0.00  0.00    +0.155 HD
BRANCH  23  25
ATOM     25  C   UNL     1      35.986 -24.586 -11.223  0.00  0.00    +0.010 C 
BRANCH  25  26
ATOM     26  N   UNL     1      37.040 -24.577 -12.238  0.00  0.00    +0.393 N 
ATOM     27  C   UNL     1      39.637 -25.332 -13.370  0.00  0.00    -0.026 C 
ATOM     28  C   UNL     1      38.317 -25.930 -13.868  0.00  0.00    -0.025 C 
ATOM     29  C   UNL     1      39.380 -23.955 -12.748  0.00  0.00    -0.025 C 
ATOM     30  C   UNL     1      37.254 -25.931 -12.768  0.00  0.00    -0.077 C 
ATOM     31  C   UNL     1      38.283 -24.022 -11.684  0.00  0.00    -0.077 C 
ATOM     32  H   UNL     1      36.745 -23.980 -13.010  0.00  0.00    -0.079 HD
BRANCH  27  33
ATOM     33  C   UNL     1      40.660 -25.242 -14.499  0.00  0.00    -0.086 C 
BRANCH  33  34
ATOM     34  N   UNL     1      40.338 -24.149 -15.406  0.00  0.00    +0.380 N 
ATOM     35  H   UNL     1      41.059 -24.081 -16.123  0.00  0.00    -0.089 HD
ATOM     36  H   UNL     1      40.295 -23.274 -14.882  0.00  0.00    -0.089 HD
ATOM     37  H   UNL     1      39.436 -24.328 -15.846  0.00  0.00    -0.089 HD
ENDBRANCH  33  34
ENDBRANCH  27  33
ENDBRANCH  25  26
ENDBRANCH  23  25
ENDBRANCH  10  22
TORSDOF 6
ENDMDL
MODEL 4
REMARK VINA RESULT:     -11.0      1.607      2.249
REMARK  Name = 5288017
REMARK  6 active torsions:
REMARK  status: ('A' for Active; 'I' for Inactive)
REMARK    1  A    between atoms: C_4  and  C_15
REMARK    2  A    between atoms: C_10  and  N_22
REMARK    3  A    between atoms: C_23  and  C_25
REMARK    4  A    between atoms: C_25  and  N_26
REMARK    5  A    between atoms: C_27  and  C_33
REMARK    6  A    between atoms: C_33  and  N_34
REMARK                            x       y       z     vdW  Elec       q    Type
REMARK                         _______ _______ _______ _____ _____    ______ ____
ROOT
ATOM      1  O   UNL     1      36.198 -22.351 -16.488  0.00  0.00    -0.286 OA
ATOM      2  N   UNL     1      35.118 -24.109 -12.533  0.00  0.00    -0.280 N 
ATOM      3  N   UNL     1      33.805 -23.897 -12.826  0.00  0.00    -0.173 NA
ATOM      4  C   UNL     1      36.000 -23.708 -13.516  0.00  0.00    +0.056 A 
ATOM      5  C   UNL     1      35.201 -23.209 -14.496  0.00  0.00    +0.071 A 
ATOM      6  C   UNL     1      33.885 -23.346 -14.028  0.00  0.00    +0.105 A 
ATOM      7  C   UNL     1      35.232 -22.609 -15.802  0.00  0.00    +0.199 C 
ATOM      8  C   UNL     1      33.775 -22.382 -16.107  0.00  0.00    +0.054 C 
ATOM      9  C   UNL     1      32.984 -22.838 -15.016  0.00  0.00    +0.024 C 
ATOM     10  C   UNL     1      33.196 -21.835 -17.217  0.00  0.00    +0.053 C 
ATOM     11  C   UNL     1      31.611 -22.748 -15.035  0.00  0.00    +0.002 C 
ATOM     12  C   UNL     1      31.814 -21.734 -17.260  0.00  0.00    +0.015 C 
ATOM     13  C   UNL     1      31.027 -22.188 -16.177  0.00  0.00    +0.001 C 
ATOM     14  H   UNL     1      35.414 -24.517 -11.688  0.00  0.00    +0.189 HD
ENDROOT
BRANCH   4  15
ATOM     15  C   UNL     1      37.508 -23.861 -13.379  0.00  0.00    +0.040 C 
ATOM     16  C   UNL     1      37.900 -25.273 -12.912  0.00  0.00    +0.006 C 
ATOM     17  C   UNL     1      38.242 -23.480 -14.676  0.00  0.00    +0.006 C 
ATOM     18  C   UNL     1      39.415 -25.414 -12.769  0.00  0.00    +0.000 C 
ATOM     19  C   UNL     1      39.755 -23.629 -14.524  0.00  0.00    +0.000 C 
ATOM     20  C   UNL     1      40.140 -25.030 -14.057  0.00  0.00    +0.000 C 
ENDBRANCH   4  15
BRANCH  10  22
ATOM     21  O   UNL     1      32.557 -19.811 -19.339  0.00  0.00    -0.277 OA
ATOM     22  N   UNL     1      33.970 -21.378 -18.311  0.00  0.00    -0.286 N 
ATOM     23  C   UNL     1      33.615 -20.427 -19.265  0.00  0.00    +0.205 C 
ATOM     24  H   UNL     1      34.865 -21.777 -18.407  0.00  0.00    +0.155 HD
BRANCH  23  25
ATOM     25  C   UNL     1      34.745 -20.236 -20.262  0.00  0.00    +0.010 C 
BRANCH  25  26
ATOM     26  N   UNL     1      34.635 -18.912 -20.874  0.00  0.00    +0.393 N 
ATOM     27  C   UNL     1      35.638 -16.570 -22.325  0.00  0.00    -0.026 C 
ATOM     28  C   UNL     1      34.737 -17.621 -22.982  0.00  0.00    -0.025 C 
ATOM     29  C   UNL     1      35.404 -16.561 -20.810  0.00  0.00    -0.025 C 
ATOM     30  C   UNL     1      34.900 -18.989 -22.317  0.00  0.00    -0.077 C 
ATOM     31  C   UNL     1      35.547 -17.964 -20.218  0.00  0.00    -0.077 C 
ATOM     32  H   UNL     1      33.683 -18.571 -20.747  0.00  0.00    -0.079 HD
BRANCH  27  33
ATOM     33  C   UNL     1      35.397 -15.188 -22.925  0.00  0.00    -0.086 C 
BRANCH  33  34
ATOM     34  N   UNL     1      34.829 -14.283 -21.937  0.00  0.00    +0.380 N 
ATOM     35  H   UNL     1      34.287 -14.818 -21.259  0.00  0.00    -0.089 HD
ATOM     36  H   UNL     1      34.222 -13.608 -22.402  0.00  0.00    -0.089 HD
ATOM     37  H   UNL     1      35.581 -13.790 -21.456  0.00  0.00    -0.089 HD
ENDBRANCH  33  34
ENDBRANCH  27  33
ENDBRANCH  25  26
ENDBRANCH  23  25
ENDBRANCH  10  22
TORSDOF 6
ENDMDL
MODEL 5
REMARK VINA RESULT:     -10.8      2.371      5.947
REMARK  Name = 5288017
REMARK  6 active torsions:
REMARK  status: ('A' for Active; 'I' for Inactive)
REMARK    1  A    between atoms: C_4  and  C_15
REMARK    2  A    between atoms: C_10  and  N_22
REMARK    3  A    between atoms: C_23  and  C_25
REMARK    4  A    between atoms: C_25  and  N_26
REMARK    5  A    between atoms: C_27  and  C_33
REMARK    6  A    between atoms: C_33  and  N_34
REMARK                            x       y       z     vdW  Elec       q    Type
REMARK                         _______ _______ _______ _____ _____    ______ ____
ROOT
ATOM      1  O   UNL     1      32.464 -22.369 -16.727  0.00  0.00    -0.286 OA
ATOM      2  N   UNL     1      31.001 -23.553 -12.682  0.00  0.00    -0.280 N 
ATOM      3  N   UNL     1      32.292 -23.565 -12.247  0.00  0.00    -0.173 NA
ATOM      4  C   UNL     1      30.844 -23.214 -14.011  0.00  0.00    +0.056 A 
ATOM      5  C   UNL     1      32.112 -22.998 -14.451  0.00  0.00    +0.071 A 
ATOM      6  C   UNL     1      32.948 -23.224 -13.346  0.00  0.00    +0.105 A 
ATOM      7  C   UNL     1      32.872 -22.631 -15.615  0.00  0.00    +0.199 C 
ATOM      8  C   UNL     1      34.292 -22.650 -15.115  0.00  0.00    +0.054 C 
ATOM      9  C   UNL     1      34.307 -23.012 -13.739  0.00  0.00    +0.024 C 
ATOM     10  C   UNL     1      35.451 -22.382 -15.786  0.00  0.00    +0.053 C 
ATOM     11  C   UNL     1      35.483 -23.105 -13.032  0.00  0.00    +0.002 C 
ATOM     12  C   UNL     1      36.650 -22.469 -15.094  0.00  0.00    +0.015 C 
ATOM     13  C   UNL     1      36.666 -22.828 -13.727  0.00  0.00    +0.001 C 
ATOM     14  H   UNL     1      30.240 -23.768 -12.095  0.00  0.00    +0.189 HD
ENDROOT
BRANCH   4  15
ATOM     15  C   UNL     1      29.481 -23.144 -14.685  0.00  0.00    +0.040 C 
ATOM     16  C   UNL     1      28.950 -21.703 -14.753  0.00  0.00    +0.006 C 
ATOM     17  C   UNL     1      29.498 -23.796 -16.078  0.00  0.00    +0.006 C 
ATOM     18  C   UNL     1      27.579 -21.644 -15.424  0.00  0.00    +0.000 C 
ATOM     19  C   UNL     1      28.124 -23.728 -16.742  0.00  0.00    +0.000 C 
ATOM     20  C   UNL     1      27.598 -22.297 -16.804  0.00  0.00    +0.000 C 
ENDBRANCH   4  15
BRANCH  10  22
ATOM     21  O   UNL     1      37.081 -20.332 -17.252  0.00  0.00    -0.277 OA
ATOM     22  N   UNL     1      35.452 -22.019 -17.154  0.00  0.00    -0.286 N 
ATOM     23  C   UNL     1      36.240 -21.055 -17.778  0.00  0.00    +0.205 C 
ATOM     24  H   UNL     1      34.823 -22.507 -17.733  0.00  0.00    +0.155 HD
BRANCH  23  25
ATOM     25  C   UNL     1      35.919 -20.992 -19.260  0.00  0.00    +0.010 C 
BRANCH  25  26
ATOM     26  N   UNL     1      35.843 -19.593 -19.683  0.00  0.00    +0.393 N 
ATOM     27  C   UNL     1      35.570 -17.424 -21.637  0.00  0.00    -0.026 C 
ATOM     28  C   UNL     1      34.427 -17.841 -20.706  0.00  0.00    -0.025 C 
ATOM     29  C   UNL     1      36.916 -17.797 -21.005  0.00  0.00    -0.025 C 
ATOM     30  C   UNL     1      34.542 -19.314 -20.306  0.00  0.00    -0.077 C 
ATOM     31  C   UNL     1      36.948 -19.271 -20.596  0.00  0.00    -0.077 C 
ATOM     32  H   UNL     1      35.932 -18.998 -18.860  0.00  0.00    -0.079 HD
BRANCH  27  33
ATOM     33  C   UNL     1      35.506 -15.932 -21.951  0.00  0.00    -0.086 C 
BRANCH  33  34
ATOM     34  N   UNL     1      35.643 -15.696 -23.381  0.00  0.00    +0.380 N 
ATOM     35  H   UNL     1      34.784 -15.975 -23.854  0.00  0.00    -0.089 HD
ATOM     36  H   UNL     1      36.424 -16.242 -23.743  0.00  0.00    -0.089 HD
ATOM     37  H   UNL     1      35.815 -14.704 -23.546  0.00  0.00    -0.089 HD
ENDBRANCH  33  34
ENDBRANCH  27  33
ENDBRANCH  25  26
ENDBRANCH  23  25
ENDBRANCH  10  22
TORSDOF 6
ENDMDL
MODEL 6
REMARK VINA RESULT:     -10.7      2.618      5.957
REMARK  Name = 5288017
REMARK  6 active torsions:
REMARK  status: ('A' for Active; 'I' for Inactive)
REMARK    1  A    between atoms: C_4  and  C_15
REMARK    2  A    between atoms: C_10  and  N_22
REMARK    3  A    between atoms: C_23  and  C_25
REMARK    4  A    between atoms: C_25  and  N_26
REMARK    5  A    between atoms: C_27  and  C_33
REMARK    6  A    between atoms: C_33  and  N_34
REMARK                            x       y       z     vdW  Elec       q    Type
REMARK                         _______ _______ _______ _____ _____    ______ ____
ROOT
ATOM      1  O   UNL     1      32.614 -21.908 -17.268  0.00  0.00    -0.286 OA
ATOM      2  N   UNL     1      32.547 -23.579 -13.132  0.00  0.00    -0.280 N 
ATOM      3  N   UNL     1      33.900 -23.433 -13.079  0.00  0.00    -0.173 NA
ATOM      4  C   UNL     1      31.970 -23.173 -14.319  0.00  0.00    +0.056 A 
ATOM      5  C   UNL     1      33.020 -22.743 -15.068  0.00  0.00    +0.071 A 
ATOM      6  C   UNL     1      34.161 -22.921 -14.273  0.00  0.00    +0.105 A 
ATOM      7  C   UNL     1      33.357 -22.186 -16.350  0.00  0.00    +0.199 C 
ATOM      8  C   UNL     1      34.853 -22.032 -16.272  0.00  0.00    +0.054 C 
ATOM      9  C   UNL     1      35.312 -22.485 -15.004  0.00  0.00    +0.024 C 
ATOM     10  C   UNL     1      35.725 -21.550 -17.205  0.00  0.00    +0.053 C 
ATOM     11  C   UNL     1      36.645 -22.455 -14.667  0.00  0.00    +0.002 C 
ATOM     12  C   UNL     1      37.075 -21.509 -16.890  0.00  0.00    +0.015 C 
ATOM     13  C   UNL     1      37.531 -21.958 -15.629  0.00  0.00    +0.001 C 
ATOM     14  H   UNL     1      32.022 -23.944 -12.384  0.00  0.00    +0.189 HD
ENDROOT
BRANCH   4  15
ATOM     15  C   UNL     1      30.472 -23.256 -14.574  0.00  0.00    +0.040 C 
ATOM     16  C   UNL     1      29.828 -21.862 -14.659  0.00  0.00    +0.006 C 
ATOM     17  C   UNL     1      30.150 -24.094 -15.824  0.00  0.00    +0.006 C 
ATOM     18  C   UNL     1      28.324 -21.956 -14.907  0.00  0.00    +0.000 C 
ATOM     19  C   UNL     1      28.644 -24.177 -16.065  0.00  0.00    +0.000 C 
ATOM     20  C   UNL     1      28.008 -22.792 -16.145  0.00  0.00    +0.000 C 
ENDBRANCH   4  15
BRANCH  10  22
ATOM     21  O   UNL     1      36.923 -19.525 -19.068  0.00  0.00    -0.277 OA
ATOM     22  N   UNL     1      35.284 -21.095 -18.471  0.00  0.00    -0.286 N 
ATOM     23  C   UNL     1      35.891 -20.148 -19.293  0.00  0.00    +0.205 C 
ATOM     24  H   UNL     1      34.451 -21.496 -18.811  0.00  0.00    +0.155 HD
BRANCH  23  25
ATOM     25  C   UNL     1      35.081 -19.960 -20.564  0.00  0.00    +0.010 C 
BRANCH  25  26
ATOM     26  N   UNL     1      35.451 -18.692 -21.193  0.00  0.00    +0.393 N 
ATOM     27  C   UNL     1      34.912 -16.074 -22.399  0.00  0.00    -0.026 C 
ATOM     28  C   UNL     1      35.454 -16.227 -20.974  0.00  0.00    -0.025 C 
ATOM     29  C   UNL     1      35.295 -17.301 -23.234  0.00  0.00    -0.025 C 
ATOM     30  C   UNL     1      35.028 -17.561 -20.356  0.00  0.00    -0.077 C 
ATOM     31  C   UNL     1      34.873 -18.598 -22.541  0.00  0.00    -0.077 C 
ATOM     32  H   UNL     1      36.466 -18.655 -21.283  0.00  0.00    -0.079 HD
BRANCH  27  33
ATOM     33  C   UNL     1      35.423 -14.789 -23.045  0.00  0.00    -0.086 C 
BRANCH  33  34
ATOM     34  N   UNL     1      34.755 -13.624 -22.484  0.00  0.00    +0.380 N 
ATOM     35  H   UNL     1      34.893 -12.824 -23.100  0.00  0.00    -0.089 HD
ATOM     36  H   UNL     1      35.147 -13.417 -21.564  0.00  0.00    -0.089 HD
ATOM     37  H   UNL     1      33.757 -13.815 -22.393  0.00  0.00    -0.089 HD
ENDBRANCH  33  34
ENDBRANCH  27  33
ENDBRANCH  25  26
ENDBRANCH  23  25
ENDBRANCH  10  22
TORSDOF 6
ENDMDL
MODEL 7
REMARK VINA RESULT:     -10.5     10.167     15.829
REMARK  Name = 5288017
REMARK  6 active torsions:
REMARK  status: ('A' for Active; 'I' for Inactive)
REMARK    1  A    between atoms: C_4  and  C_15
REMARK    2  A    between atoms: C_10  and  N_22
REMARK    3  A    between atoms: C_23  and  C_25
REMARK    4  A    between atoms: C_25  and  N_26
REMARK    5  A    between atoms: C_27  and  C_33
REMARK    6  A    between atoms: C_33  and  N_34
REMARK                            x       y       z     vdW  Elec       q    Type
REMARK                         _______ _______ _______ _____ _____    ______ ____
ROOT
ATOM      1  O   UNL     1      32.706  -9.194 -23.105  0.00  0.00    -0.286 OA
ATOM      2  N   UNL     1      32.061  -5.995 -20.063  0.00  0.00    -0.280 N 
ATOM      3  N   UNL     1      31.883  -6.963 -19.121  0.00  0.00    -0.173 NA
ATOM      4  C   UNL     1      32.321  -6.468 -21.333  0.00  0.00    +0.056 A 
ATOM      5  C   UNL     1      32.307  -7.821 -21.193  0.00  0.00    +0.071 A 
ATOM      6  C   UNL     1      32.039  -8.066 -19.838  0.00  0.00    +0.105 A 
ATOM      7  C   UNL     1      32.467  -9.048 -21.924  0.00  0.00    +0.199 C 
ATOM      8  C   UNL     1      32.268 -10.103 -20.869  0.00  0.00    +0.054 C 
ATOM      9  C   UNL     1      32.010  -9.479 -19.616  0.00  0.00    +0.024 C 
ATOM     10  C   UNL     1      32.305 -11.463 -20.984  0.00  0.00    +0.053 C 
ATOM     11  C   UNL     1      31.790 -10.216 -18.476  0.00  0.00    +0.002 C 
ATOM     12  C   UNL     1      32.086 -12.229 -19.848  0.00  0.00    +0.015 C 
ATOM     13  C   UNL     1      31.831 -11.610 -18.603  0.00  0.00    +0.001 C 
ATOM     14  H   UNL     1      32.009  -5.035 -19.854  0.00  0.00    +0.189 HD
ENDROOT
BRANCH   4  15
ATOM     15  C   UNL     1      32.549  -5.547 -22.523  0.00  0.00    +0.040 C 
ATOM     16  C   UNL     1      31.809  -6.039 -23.778  0.00  0.00    +0.006 C 
ATOM     17  C   UNL     1      32.182  -4.089 -22.196  0.00  0.00    +0.006 C 
ATOM     18  C   UNL     1      32.052  -5.112 -24.968  0.00  0.00    +0.000 C 
ATOM     19  C   UNL     1      32.423  -3.172 -23.394  0.00  0.00    +0.000 C 
ATOM     20  C   UNL     1      31.691  -3.665 -24.638  0.00  0.00    +0.000 C 
ENDBRANCH   4  15
BRANCH  10  22
ATOM     21  O   UNL     1      34.855 -11.721 -22.544  0.00  0.00    -0.277 OA
ATOM     22  N   UNL     1      32.561 -12.098 -22.223  0.00  0.00    -0.286 N 
ATOM     23  C   UNL     1      33.777 -12.186 -22.897  0.00  0.00    +0.205 C 
ATOM     24  H   UNL     1      31.790 -12.530 -22.657  0.00  0.00    +0.155 HD
BRANCH  23  25
ATOM     25  C   UNL     1      33.603 -12.959 -24.193  0.00  0.00    +0.010 C 
BRANCH  25  26
ATOM     26  N   UNL     1      33.663 -14.394 -23.916  0.00  0.00    +0.393 N 
ATOM     27  C   UNL     1      34.859 -17.069 -24.027  0.00  0.00    -0.026 C 
ATOM     28  C   UNL     1      34.897 -16.202 -22.763  0.00  0.00    -0.025 C 
ATOM     29  C   UNL     1      33.663 -16.666 -24.896  0.00  0.00    -0.025 C 
ATOM     30  C   UNL     1      34.847 -14.712 -23.107  0.00  0.00    -0.077 C 
ATOM     31  C   UNL     1      33.656 -15.161 -25.170  0.00  0.00    -0.077 C 
ATOM     32  H   UNL     1      32.836 -14.658 -23.381  0.00  0.00    -0.079 HD
BRANCH  27  33
ATOM     33  C   UNL     1      34.807 -18.552 -23.674  0.00  0.00    -0.086 C 
BRANCH  33  34
ATOM     34  N   UNL     1      34.865 -18.746 -22.232  0.00  0.00    +0.380 N 
ATOM     35  H   UNL     1      34.478 -19.659 -21.997  0.00  0.00    -0.089 HD
ATOM     36  H   UNL     1      34.322 -18.017 -21.769  0.00  0.00    -0.089 HD
ATOM     37  H   UNL     1      35.835 -18.697 -21.922  0.00  0.00    -0.089 HD
ENDBRANCH  33  34
ENDBRANCH  27  33
ENDBRANCH  25  26
ENDBRANCH  23  25
ENDBRANCH  10  22
TORSDOF 6
ENDMDL
MODEL 8
REMARK VINA RESULT:     -10.3      8.558     15.339
REMARK  Name = 5288017
REMARK  6 active torsions:
REMARK  status: ('A' for Active; 'I' for Inactive)
REMARK    1  A    between atoms: C_4  and  C_15
REMARK    2  A    between atoms: C_10  and  N_22
REMARK    3  A    between atoms: C_23  and  C_25
REMARK    4  A    between atoms: C_25  and  N_26
REMARK    5  A    between atoms: C_27  and  C_33
REMARK    6  A    between atoms: C_33  and  N_34
REMARK                            x       y       z     vdW  Elec       q    Type
REMARK                         _______ _______ _______ _____ _____    ______ ____
ROOT
ATOM      1  O   UNL     1      33.570 -10.382 -23.561  0.00  0.00    -0.286 OA
ATOM      2  N   UNL     1      32.319  -6.406 -21.973  0.00  0.00    -0.280 N 
ATOM      3  N   UNL     1      31.864  -7.027 -20.849  0.00  0.00    -0.173 NA
ATOM      4  C   UNL     1      32.871  -7.250 -22.914  0.00  0.00    +0.056 A 
ATOM      5  C   UNL     1      32.761  -8.486 -22.357  0.00  0.00    +0.071 A 
ATOM      6  C   UNL     1      32.146  -8.294 -21.111  0.00  0.00    +0.105 A 
ATOM      7  C   UNL     1      33.046  -9.875 -22.592  0.00  0.00    +0.199 C 
ATOM      8  C   UNL     1      32.538 -10.543 -21.342  0.00  0.00    +0.054 C 
ATOM      9  C   UNL     1      31.998  -9.562 -20.464  0.00  0.00    +0.024 C 
ATOM     10  C   UNL     1      32.541 -11.866 -21.002  0.00  0.00    +0.053 C 
ATOM     11  C   UNL     1      31.463  -9.903 -19.243  0.00  0.00    +0.002 C 
ATOM     12  C   UNL     1      32.007 -12.235 -19.777  0.00  0.00    +0.015 C 
ATOM     13  C   UNL     1      31.472 -11.261 -18.904  0.00  0.00    +0.001 C 
ATOM     14  H   UNL     1      32.259  -5.432 -22.103  0.00  0.00    +0.189 HD
ENDROOT
BRANCH   4  15
ATOM     15  C   UNL     1      33.435  -6.750 -24.236  0.00  0.00    +0.040 C 
ATOM     16  C   UNL     1      33.072  -5.278 -24.493  0.00  0.00    +0.006 C 
ATOM     17  C   UNL     1      34.955  -6.972 -24.330  0.00  0.00    +0.006 C 
ATOM     18  C   UNL     1      33.636  -4.789 -25.826  0.00  0.00    +0.000 C 
ATOM     19  C   UNL     1      35.509  -6.475 -25.664  0.00  0.00    +0.000 C 
ATOM     20  C   UNL     1      35.143  -5.015 -25.918  0.00  0.00    +0.000 C 
ENDBRANCH   4  15
BRANCH  10  22
ATOM     21  O   UNL     1      35.305 -13.027 -21.152  0.00  0.00    -0.277 OA
ATOM     22  N   UNL     1      33.075 -12.854 -21.864  0.00  0.00    -0.286 N 
ATOM     23  C   UNL     1      34.375 -13.355 -21.881  0.00  0.00    +0.205 C 
ATOM     24  H   UNL     1      32.455 -13.232 -22.528  0.00  0.00    +0.155 HD
BRANCH  23  25
ATOM     25  C   UNL     1      34.518 -14.405 -22.969  0.00  0.00    +0.010 C 
BRANCH  25  26
ATOM     26  N   UNL     1      35.216 -15.573 -22.429  0.00  0.00    +0.393 N 
ATOM     27  C   UNL     1      35.380 -18.239 -21.219  0.00  0.00    -0.026 C 
ATOM     28  C   UNL     1      35.669 -17.990 -22.703  0.00  0.00    -0.025 C 
ATOM     29  C   UNL     1      35.632 -16.956 -20.419  0.00  0.00    -0.025 C 
ATOM     30  C   UNL     1      34.906 -16.770 -23.223  0.00  0.00    -0.077 C 
ATOM     31  C   UNL     1      34.869 -15.771 -21.014  0.00  0.00    -0.077 C 
ATOM     32  H   UNL     1      36.220 -15.408 -22.486  0.00  0.00    -0.079 HD
BRANCH  27  33
ATOM     33  C   UNL     1      36.220 -19.394 -20.682  0.00  0.00    -0.086 C 
BRANCH  33  34
ATOM     34  N   UNL     1      36.569 -19.178 -19.286  0.00  0.00    +0.380 N 
ATOM     35  H   UNL     1      37.448 -19.651 -19.078  0.00  0.00    -0.089 HD
ATOM     36  H   UNL     1      35.832 -19.554 -18.689  0.00  0.00    -0.089 HD
ATOM     37  H   UNL     1      36.672 -18.178 -19.112  0.00  0.00    -0.089 HD
ENDBRANCH  33  34
ENDBRANCH  27  33
ENDBRANCH  25  26
ENDBRANCH  23  25
ENDBRANCH  10  22
TORSDOF 6
ENDMDL
MODEL 9
REMARK VINA RESULT:     -10.0      7.991     13.183
REMARK  Name = 5288017
REMARK  6 active torsions:
REMARK  status: ('A' for Active; 'I' for Inactive)
REMARK    1  A    between atoms: C_4  and  C_15
REMARK    2  A    between atoms: C_10  and  N_22
REMARK    3  A    between atoms: C_23  and  C_25
REMARK    4  A    between atoms: C_25  and  N_26
REMARK    5  A    between atoms: C_27  and  C_33
REMARK    6  A    between atoms: C_33  and  N_34
REMARK                            x       y       z     vdW  Elec       q    Type
REMARK                         _______ _______ _______ _____ _____    ______ ____
ROOT
ATOM      1  O   UNL     1      34.289 -13.786 -21.099  0.00  0.00    -0.286 OA
ATOM      2  N   UNL     1      35.102 -16.974 -24.113  0.00  0.00    -0.280 N 
ATOM      3  N   UNL     1      34.849 -16.069 -25.099  0.00  0.00    -0.173 NA
ATOM      4  C   UNL     1      34.985 -16.475 -22.830  0.00  0.00    +0.056 A 
ATOM      5  C   UNL     1      34.635 -15.174 -23.011  0.00  0.00    +0.071 A 
ATOM      6  C   UNL     1      34.566 -14.981 -24.399  0.00  0.00    +0.105 A 
ATOM      7  C   UNL     1      34.321 -13.965 -22.299  0.00  0.00    +0.199 C 
ATOM      8  C   UNL     1      34.044 -12.981 -23.404  0.00  0.00    +0.054 C 
ATOM      9  C   UNL     1      34.200 -13.623 -24.663  0.00  0.00    +0.024 C 
ATOM     10  C   UNL     1      33.692 -11.664 -23.323  0.00  0.00    +0.053 C 
ATOM     11  C   UNL     1      34.005 -12.948 -25.846  0.00  0.00    +0.002 C 
ATOM     12  C   UNL     1      33.490 -10.961 -24.502  0.00  0.00    +0.015 C 
ATOM     13  C   UNL     1      33.646 -11.598 -25.754  0.00  0.00    +0.001 C 
ATOM     14  H   UNL     1      35.350 -17.908 -24.299  0.00  0.00    +0.189 HD
ENDROOT
BRANCH   4  15
ATOM     15  C   UNL     1      35.229 -17.327 -21.593  0.00  0.00    +0.040 C 
ATOM     16  C   UNL     1      34.323 -18.569 -21.566  0.00  0.00    +0.006 C 
ATOM     17  C   UNL     1      36.710 -17.716 -21.448  0.00  0.00    +0.006 C 
ATOM     18  C   UNL     1      34.569 -19.413 -20.316  0.00  0.00    +0.000 C 
ATOM     19  C   UNL     1      36.944 -18.562 -20.198  0.00  0.00    +0.000 C 
ATOM     20  C   UNL     1      36.041 -19.792 -20.173  0.00  0.00    +0.000 C 
ENDBRANCH   4  15
BRANCH  10  22
ATOM     21  O   UNL     1      31.226 -11.168 -21.687  0.00  0.00    -0.277 OA
ATOM     22  N   UNL     1      33.535 -11.010 -22.078  0.00  0.00    -0.286 N 
ATOM     23  C   UNL     1      32.355 -10.814 -21.364  0.00  0.00    +0.205 C 
ATOM     24  H   UNL     1      34.356 -10.654 -21.667  0.00  0.00    +0.155 HD
BRANCH  23  25
ATOM     25  C   UNL     1      32.640 -10.066 -20.073  0.00  0.00    +0.010 C 
BRANCH  25  26
ATOM     26  N   UNL     1      32.200  -8.677 -20.209  0.00  0.00    +0.393 N 
ATOM     27  C   UNL     1      32.590  -5.796 -20.590  0.00  0.00    -0.026 C 
ATOM     28  C   UNL     1      32.072  -6.711 -21.705  0.00  0.00    -0.025 C 
ATOM     29  C   UNL     1      32.262  -6.408 -19.224  0.00  0.00    -0.025 C 
ATOM     30  C   UNL     1      32.572  -8.146 -21.527  0.00  0.00    -0.077 C 
ATOM     31  C   UNL     1      32.758  -7.852 -19.128  0.00  0.00    -0.077 C 
ATOM     32  H   UNL     1      31.183  -8.648 -20.134  0.00  0.00    -0.079 HD
BRANCH  27  33
ATOM     33  C   UNL     1      32.008  -4.392 -20.717  0.00  0.00    -0.086 C 
BRANCH  33  34
ATOM     34  N   UNL     1      30.554  -4.425 -20.661  0.00  0.00    +0.380 N 
ATOM     35  H   UNL     1      30.179  -4.495 -21.607  0.00  0.00    -0.089 HD
ATOM     36  H   UNL     1      30.210  -3.571 -20.221  0.00  0.00    -0.089 HD
ATOM     37  H   UNL     1      30.253  -5.233 -20.117  0.00  0.00    -0.089 HD
ENDBRANCH  33  34
ENDBRANCH  27  33
ENDBRANCH  25  26
ENDBRANCH  23  25
ENDBRANCH  10  22
TORSDOF 6
ENDMDL
