MODEL 1
REMARK VINA RESULT:     -12.0      0.000      0.000
REMARK  Name = 11691242
REMARK  5 active torsions:
REMARK  status: ('A' for Active; 'I' for Inactive)
REMARK    1  A    between atoms: N_1  and  C_25
REMARK    2  A    between atoms: C_5  and  N_11
REMARK    3  A    between atoms: N_12  and  C_17
REMARK    4  A    between atoms: C_18  and  O_23
REMARK    5  A    between atoms: C_25  and  C_28
REMARK                            x       y       z     vdW  Elec       q    Type
REMARK                         _______ _______ _______ _____ _____    ______ ____
ROOT
ATOM      1  N   UNL     1      35.591 -16.263 -21.477  0.00  0.00    -0.282 N 
ATOM      2  C   UNL     1      34.994 -15.577 -22.510  0.00  0.00    +0.053 C 
ATOM      3  C   UNL     1      34.331 -14.483 -21.949  0.00  0.00    +0.028 C 
ATOM      4  C   UNL     1      35.329 -15.643 -20.285  0.00  0.00    +0.066 C 
ATOM      5  C   UNL     1      33.628 -13.606 -22.798  0.00  0.00    +0.053 C 
ATOM      6  C   UNL     1      34.550 -14.538 -20.543  0.00  0.00    +0.019 C 
ATOM      7  C   UNL     1      34.990 -15.838 -23.885  0.00  0.00    +0.015 C 
ATOM      8  C   UNL     1      33.615 -13.855 -24.176  0.00  0.00    +0.015 C 
ATOM      9  C   UNL     1      34.286 -14.953 -24.709  0.00  0.00    +0.003 C 
ENDROOT
BRANCH   5  11
ATOM     10  O   UNL     1      34.262 -10.695 -23.003  0.00  0.00    -0.252 OA
ATOM     11  N   UNL     1      32.948 -12.499 -22.290  0.00  0.00    -0.268 N 
ATOM     12  N   UNL     1      32.323 -10.344 -21.744  0.00  0.00    -0.266 N 
ATOM     13  C   UNL     1      33.280 -11.127 -22.407  0.00  0.00    +0.308 C 
ATOM     14  H   UNL     1      32.128 -12.697 -21.781  0.00  0.00    +0.156 HD
ATOM     15  H   UNL     1      31.588 -10.835 -21.310  0.00  0.00    +0.157 HD
BRANCH  12  17
ATOM     16 BR   UNL     1      31.910  -5.720 -24.218  0.00  0.00    -0.049 Br
ATOM     17  C   UNL     1      32.284  -8.934 -21.623  0.00  0.00    +0.086 C 
ATOM     18  C   UNL     1      32.389  -8.344 -20.373  0.00  0.00    +0.152 C 
ATOM     19  C   UNL     1      32.139  -8.171 -22.770  0.00  0.00    +0.024 C 
ATOM     20  C   UNL     1      32.348  -6.954 -20.269  0.00  0.00    +0.039 C 
ATOM     21  C   UNL     1      32.099  -6.780 -22.665  0.00  0.00    +0.036 C 
ATOM     22  C   UNL     1      32.203  -6.172 -21.415  0.00  0.00    +0.010 C 
BRANCH  18  23
ATOM     23  O   UNL     1      32.532  -9.090 -19.242  0.00  0.00    -0.470 OA
ATOM     24  C   UNL     1      31.342  -9.621 -18.660  0.00  0.00    +0.253 C 
ENDBRANCH  18  23
ENDBRANCH  12  17
ENDBRANCH   5  11
BRANCH   1  25
ATOM     25  C   UNL     1      36.381 -17.468 -21.613  0.00  0.00    +0.122 C 
BRANCH  25  28
ATOM     26  N   UNL     1      34.894 -20.609 -19.105  0.00  0.00    -0.230 NA
ATOM     27  N   UNL     1      32.692 -20.194 -19.915  0.00  0.00    -0.343 N 
ATOM     28  C   UNL     1      35.858 -18.570 -20.732  0.00  0.00    +0.002 C 
ATOM     29  C   UNL     1      34.507 -18.867 -20.736  0.00  0.00    +0.031 C 
ATOM     30  C   UNL     1      36.735 -19.276 -19.928  0.00  0.00    +0.018 C 
ATOM     31  C   UNL     1      34.076 -19.891 -19.908  0.00  0.00    +0.125 C 
ATOM     32  C   UNL     1      36.205 -20.282 -19.136  0.00  0.00    +0.100 C 
ATOM     33  H   UNL     1      32.343 -20.914 -19.343  0.00  0.00    +0.144 HD
ATOM     34  H   UNL     1      32.080 -19.683 -20.494  0.00  0.00    +0.144 HD
ENDBRANCH  25  28
ENDBRANCH   1  25
TORSDOF 5
ENDMDL
MODEL 2
REMARK VINA RESULT:     -11.7      6.993     12.563
REMARK  Name = 11691242
REMARK  5 active torsions:
REMARK  status: ('A' for Active; 'I' for Inactive)
REMARK    1  A    between atoms: N_1  and  C_25
REMARK    2  A    between atoms: C_5  and  N_11
REMARK    3  A    between atoms: N_12  and  C_17
REMARK    4  A    between atoms: C_18  and  O_23
REMARK    5  A    between atoms: C_25  and  C_28
REMARK                            x       y       z     vdW  Elec       q    Type
REMARK                         _______ _______ _______ _____ _____    ______ ____
ROOT
ATOM      1  N   UNL     1      35.982 -18.667 -20.915  0.00  0.00    -0.282 N 
ATOM      2  C   UNL     1      35.313 -19.529 -20.076  0.00  0.00    +0.053 C 
ATOM      3  C   UNL     1      36.244 -20.010 -19.153  0.00  0.00    +0.028 C 
ATOM      4  C   UNL     1      37.300 -18.587 -20.555  0.00  0.00    +0.066 C 
ATOM      5  C   UNL     1      35.815 -20.922 -18.169  0.00  0.00    +0.053 C 
ATOM      6  C   UNL     1      37.494 -19.407 -19.468  0.00  0.00    +0.019 C 
ATOM      7  C   UNL     1      33.968 -19.916 -20.064  0.00  0.00    +0.015 C 
ATOM      8  C   UNL     1      34.472 -21.318 -18.144  0.00  0.00    +0.015 C 
ATOM      9  C   UNL     1      33.565 -20.822 -19.077  0.00  0.00    +0.003 C 
ENDROOT
BRANCH   5  11
ATOM     10  O   UNL     1      35.289 -22.482 -15.676  0.00  0.00    -0.252 OA
ATOM     11  N   UNL     1      36.704 -21.434 -17.222  0.00  0.00    -0.268 N 
ATOM     12  N   UNL     1      37.609 -22.491 -15.379  0.00  0.00    -0.266 N 
ATOM     13  C   UNL     1      36.416 -22.171 -16.048  0.00  0.00    +0.308 C 
ATOM     14  H   UNL     1      37.658 -21.259 -17.393  0.00  0.00    +0.156 HD
ATOM     15  H   UNL     1      38.439 -22.172 -15.801  0.00  0.00    +0.157 HD
BRANCH  12  17
ATOM     16 BR   UNL     1      35.571 -23.722 -10.689  0.00  0.00    -0.049 Br
ATOM     17  C   UNL     1      37.763 -23.215 -14.173  0.00  0.00    +0.086 C 
ATOM     18  C   UNL     1      38.892 -23.995 -13.974  0.00  0.00    +0.152 C 
ATOM     19  C   UNL     1      36.771 -23.127 -13.211  0.00  0.00    +0.024 C 
ATOM     20  C   UNL     1      39.031 -24.703 -12.781  0.00  0.00    +0.039 C 
ATOM     21  C   UNL     1      36.910 -23.835 -12.017  0.00  0.00    +0.036 C 
ATOM     22  C   UNL     1      38.040 -24.624 -11.803  0.00  0.00    +0.010 C 
BRANCH  18  23
ATOM     23  O   UNL     1      39.872 -24.085 -14.917  0.00  0.00    -0.470 OA
ATOM     24  C   UNL     1      40.796 -25.164 -14.792  0.00  0.00    +0.253 C 
ENDBRANCH  18  23
ENDBRANCH  12  17
ENDBRANCH   5  11
BRANCH   1  25
ATOM     25  C   UNL     1      35.394 -17.946 -22.023  0.00  0.00    +0.122 C 
BRANCH  25  28
ATOM     26  N   UNL     1      34.722 -13.831 -21.033  0.00  0.00    -0.230 NA
ATOM     27  N   UNL     1      34.539 -13.317 -23.352  0.00  0.00    -0.343 N 
ATOM     28  C   UNL     1      35.159 -16.501 -21.676  0.00  0.00    +0.002 C 
ATOM     29  C   UNL     1      34.959 -15.577 -22.687  0.00  0.00    +0.031 C 
ATOM     30  C   UNL     1      35.144 -16.111 -20.349  0.00  0.00    +0.018 C 
ATOM     31  C   UNL     1      34.745 -14.260 -22.314  0.00  0.00    +0.125 C 
ATOM     32  C   UNL     1      34.923 -14.770 -20.081  0.00  0.00    +0.100 C 
ATOM     33  H   UNL     1      34.383 -12.371 -23.132  0.00  0.00    +0.144 HD
ATOM     34  H   UNL     1      34.551 -13.610 -24.292  0.00  0.00    +0.144 HD
ENDBRANCH  25  28
ENDBRANCH   1  25
TORSDOF 5
ENDMDL
MODEL 3
REMARK VINA RESULT:     -11.5      5.842      9.444
REMARK  Name = 11691242
REMARK  5 active torsions:
REMARK  status: ('A' for Active; 'I' for Inactive)
REMARK    1  A    between atoms: N_1  and  C_25
REMARK    2  A    between atoms: C_5  and  N_11
REMARK    3  A    between atoms: N_12  and  C_17
REMARK    4  A    between atoms: C_18  and  O_23
REMARK    5  A    between atoms: C_25  and  C_28
REMARK                            x       y       z     vdW  Elec       q    Type
REMARK                         _______ _______ _______ _____ _____    ______ ____
ROOT
ATOM      1  N   UNL     1      36.523 -22.033 -15.275  0.00  0.00    -0.282 N 
ATOM      2  C   UNL     1      35.479 -22.050 -16.171  0.00  0.00    +0.053 C 
ATOM      3  C   UNL     1      35.884 -21.316 -17.289  0.00  0.00    +0.028 C 
ATOM      4  C   UNL     1      37.572 -21.315 -15.785  0.00  0.00    +0.066 C 
ATOM      5  C   UNL     1      34.990 -21.174 -18.368  0.00  0.00    +0.053 C 
ATOM      6  C   UNL     1      37.207 -20.858 -17.030  0.00  0.00    +0.019 C 
ATOM      7  C   UNL     1      34.220 -22.652 -16.080  0.00  0.00    +0.015 C 
ATOM      8  C   UNL     1      33.726 -21.771 -18.291  0.00  0.00    +0.015 C 
ATOM      9  C   UNL     1      33.349 -22.499 -17.164  0.00  0.00    +0.003 C 
ENDROOT
BRANCH   5  11
ATOM     10  O   UNL     1      33.335 -19.415 -20.126  0.00  0.00    -0.252 OA
ATOM     11  N   UNL     1      35.344 -20.451 -19.508  0.00  0.00    -0.268 N 
ATOM     12  N   UNL     1      35.288 -19.085 -21.370  0.00  0.00    -0.266 N 
ATOM     13  C   UNL     1      34.529 -19.624 -20.319  0.00  0.00    +0.308 C 
ATOM     14  H   UNL     1      36.286 -20.525 -19.786  0.00  0.00    +0.156 HD
ATOM     15  H   UNL     1      36.237 -19.345 -21.394  0.00  0.00    +0.157 HD
BRANCH  12  17
ATOM     16 BR   UNL     1      32.504 -18.536 -25.799  0.00  0.00    -0.049 Br
ATOM     17  C   UNL     1      34.856 -18.213 -22.397  0.00  0.00    +0.086 C 
ATOM     18  C   UNL     1      35.249 -16.884 -22.388  0.00  0.00    +0.152 C 
ATOM     19  C   UNL     1      34.042 -18.716 -23.400  0.00  0.00    +0.024 C 
ATOM     20  C   UNL     1      34.816 -16.037 -23.407  0.00  0.00    +0.039 C 
ATOM     21  C   UNL     1      33.609 -17.869 -24.419  0.00  0.00    +0.036 C 
ATOM     22  C   UNL     1      33.996 -16.529 -24.423  0.00  0.00    +0.010 C 
BRANCH  18  23
ATOM     23  O   UNL     1      36.050 -16.385 -21.405  0.00  0.00    -0.470 OA
ATOM     24  C   UNL     1      35.406 -15.731 -20.313  0.00  0.00    +0.253 C 
ENDBRANCH  18  23
ENDBRANCH  12  17
ENDBRANCH   5  11
BRANCH   1  25
ATOM     25  C   UNL     1      36.528 -22.672 -13.977  0.00  0.00    +0.122 C 
BRANCH  25  28
ATOM     26  N   UNL     1      38.450 -26.500 -14.119  0.00  0.00    -0.230 NA
ATOM     27  N   UNL     1      40.521 -25.464 -13.559  0.00  0.00    -0.343 N 
ATOM     28  C   UNL     1      37.203 -24.015 -14.027  0.00  0.00    +0.002 C 
ATOM     29  C   UNL     1      38.559 -24.111 -13.768  0.00  0.00    +0.031 C 
ATOM     30  C   UNL     1      36.461 -25.142 -14.331  0.00  0.00    +0.018 C 
ATOM     31  C   UNL     1      39.133 -25.370 -13.826  0.00  0.00    +0.125 C 
ATOM     32  C   UNL     1      37.128 -26.356 -14.364  0.00  0.00    +0.100 C 
ATOM     33  H   UNL     1      40.969 -26.340 -13.589  0.00  0.00    +0.144 HD
ATOM     34  H   UNL     1      41.037 -24.653 -13.343  0.00  0.00    +0.144 HD
ENDBRANCH  25  28
ENDBRANCH   1  25
TORSDOF 5
ENDMDL
MODEL 4
REMARK VINA RESULT:     -11.4      0.657      1.309
REMARK  Name = 11691242
REMARK  5 active torsions:
REMARK  status: ('A' for Active; 'I' for Inactive)
REMARK    1  A    between atoms: N_1  and  C_25
REMARK    2  A    between atoms: C_5  and  N_11
REMARK    3  A    between atoms: N_12  and  C_17
REMARK    4  A    between atoms: C_18  and  O_23
REMARK    5  A    between atoms: C_25  and  C_28
REMARK                            x       y       z     vdW  Elec       q    Type
REMARK                         _______ _______ _______ _____ _____    ______ ____
ROOT
ATOM      1  N   UNL     1      35.622 -16.437 -21.414  0.00  0.00    -0.282 N 
ATOM      2  C   UNL     1      35.059 -15.783 -22.486  0.00  0.00    +0.053 C 
ATOM      3  C   UNL     1      34.400 -14.660 -21.981  0.00  0.00    +0.028 C 
ATOM      4  C   UNL     1      35.342 -15.769 -20.252  0.00  0.00    +0.066 C 
ATOM      5  C   UNL     1      33.730 -13.806 -22.879  0.00  0.00    +0.053 C 
ATOM      6  C   UNL     1      34.586 -14.665 -20.570  0.00  0.00    +0.019 C 
ATOM      7  C   UNL     1      35.083 -16.095 -23.849  0.00  0.00    +0.015 C 
ATOM      8  C   UNL     1      33.745 -14.106 -24.247  0.00  0.00    +0.015 C 
ATOM      9  C   UNL     1      34.412 -15.233 -24.722  0.00  0.00    +0.003 C 
ENDROOT
BRANCH   5  11
ATOM     10  O   UNL     1      34.463 -10.918 -23.087  0.00  0.00    -0.252 OA
ATOM     11  N   UNL     1      33.054 -12.671 -22.429  0.00  0.00    -0.268 N 
ATOM     12  N   UNL     1      32.463 -10.490 -21.953  0.00  0.00    -0.266 N 
ATOM     13  C   UNL     1      33.434 -11.312 -22.546  0.00  0.00    +0.308 C 
ATOM     14  H   UNL     1      32.200 -12.836 -21.968  0.00  0.00    +0.156 HD
ATOM     15  H   UNL     1      31.689 -10.952 -21.557  0.00  0.00    +0.157 HD
BRANCH  12  17
ATOM     16 BR   UNL     1      33.356  -5.904 -24.370  0.00  0.00    -0.049 Br
ATOM     17  C   UNL     1      32.459  -9.078 -21.854  0.00  0.00    +0.086 C 
ATOM     18  C   UNL     1      32.083  -8.467 -20.668  0.00  0.00    +0.152 C 
ATOM     19  C   UNL     1      32.837  -8.332 -22.959  0.00  0.00    +0.024 C 
ATOM     20  C   UNL     1      32.084  -7.076 -20.586  0.00  0.00    +0.039 C 
ATOM     21  C   UNL     1      32.838  -6.939 -22.876  0.00  0.00    +0.036 C 
ATOM     22  C   UNL     1      32.461  -6.311 -21.690  0.00  0.00    +0.010 C 
BRANCH  18  23
ATOM     23  O   UNL     1      31.712  -9.197 -19.578  0.00  0.00    -0.470 OA
ATOM     24  C   UNL     1      32.583  -9.163 -18.448  0.00  0.00    +0.253 C 
ENDBRANCH  18  23
ENDBRANCH  12  17
ENDBRANCH   5  11
BRANCH   1  25
ATOM     25  C   UNL     1      36.397 -17.657 -21.486  0.00  0.00    +0.122 C 
BRANCH  25  28
ATOM     26  N   UNL     1      34.717 -20.724 -19.008  0.00  0.00    -0.230 NA
ATOM     27  N   UNL     1      36.852 -21.064 -18.006  0.00  0.00    -0.343 N 
ATOM     28  C   UNL     1      35.808 -18.735 -20.616  0.00  0.00    +0.002 C 
ATOM     29  C   UNL     1      36.614 -19.402 -19.711  0.00  0.00    +0.031 C 
ATOM     30  C   UNL     1      34.466 -19.046 -20.731  0.00  0.00    +0.018 C 
ATOM     31  C   UNL     1      36.023 -20.384 -18.933  0.00  0.00    +0.125 C 
ATOM     32  C   UNL     1      33.970 -20.045 -19.907  0.00  0.00    +0.100 C 
ATOM     33  H   UNL     1      36.473 -21.769 -17.433  0.00  0.00    +0.144 HD
ATOM     34  H   UNL     1      37.806 -20.831 -17.935  0.00  0.00    +0.144 HD
ENDBRANCH  25  28
ENDBRANCH   1  25
TORSDOF 5
ENDMDL
MODEL 5
REMARK VINA RESULT:     -11.4      5.478      9.344
REMARK  Name = 11691242
REMARK  5 active torsions:
REMARK  status: ('A' for Active; 'I' for Inactive)
REMARK    1  A    between atoms: N_1  and  C_25
REMARK    2  A    between atoms: C_5  and  N_11
REMARK    3  A    between atoms: N_12  and  C_17
REMARK    4  A    between atoms: C_18  and  O_23
REMARK    5  A    between atoms: C_25  and  C_28
REMARK                            x       y       z     vdW  Elec       q    Type
REMARK                         _______ _______ _______ _____ _____    ______ ____
ROOT
ATOM      1  N   UNL     1      36.472 -22.091 -15.215  0.00  0.00    -0.282 N 
ATOM      2  C   UNL     1      35.528 -22.076 -16.217  0.00  0.00    +0.053 C 
ATOM      3  C   UNL     1      35.996 -21.212 -17.209  0.00  0.00    +0.028 C 
ATOM      4  C   UNL     1      37.516 -21.267 -15.538  0.00  0.00    +0.066 C 
ATOM      5  C   UNL     1      35.210 -21.013 -18.362  0.00  0.00    +0.053 C 
ATOM      6  C   UNL     1      37.252 -20.708 -16.766  0.00  0.00    +0.019 C 
ATOM      7  C   UNL     1      34.310 -22.755 -16.321  0.00  0.00    +0.015 C 
ATOM      8  C   UNL     1      33.988 -21.686 -18.479  0.00  0.00    +0.015 C 
ATOM      9  C   UNL     1      33.547 -22.543 -17.473  0.00  0.00    +0.003 C 
ENDROOT
BRANCH   5  11
ATOM     10  O   UNL     1      33.687 -18.961 -19.907  0.00  0.00    -0.252 OA
ATOM     11  N   UNL     1      35.630 -20.160 -19.383  0.00  0.00    -0.268 N 
ATOM     12  N   UNL     1      35.690 -18.555 -21.043  0.00  0.00    -0.266 N 
ATOM     13  C   UNL     1      34.876 -19.196 -20.095  0.00  0.00    +0.308 C 
ATOM     14  H   UNL     1      36.577 -20.239 -19.644  0.00  0.00    +0.156 HD
ATOM     15  H   UNL     1      36.628 -18.852 -21.078  0.00  0.00    +0.157 HD
BRANCH  12  17
ATOM     16 BR   UNL     1      34.805 -13.423 -21.782  0.00  0.00    -0.049 Br
ATOM     17  C   UNL     1      35.329 -17.534 -21.954  0.00  0.00    +0.086 C 
ATOM     18  C   UNL     1      35.048 -17.852 -23.274  0.00  0.00    +0.152 C 
ATOM     19  C   UNL     1      35.263 -16.228 -21.498  0.00  0.00    +0.024 C 
ATOM     20  C   UNL     1      34.694 -16.836 -24.160  0.00  0.00    +0.039 C 
ATOM     21  C   UNL     1      34.907 -15.211 -22.385  0.00  0.00    +0.036 C 
ATOM     22  C   UNL     1      34.623 -15.515 -23.716  0.00  0.00    +0.010 C 
BRANCH  18  23
ATOM     23  O   UNL     1      35.110 -19.136 -23.726  0.00  0.00    -0.470 OA
ATOM     24  C   UNL     1      34.406 -19.434 -24.930  0.00  0.00    +0.253 C 
ENDBRANCH  18  23
ENDBRANCH  12  17
ENDBRANCH   5  11
BRANCH   1  25
ATOM     25  C   UNL     1      36.385 -22.856 -13.989  0.00  0.00    +0.122 C 
BRANCH  25  28
ATOM     26  N   UNL     1      38.522 -26.558 -14.298  0.00  0.00    -0.230 NA
ATOM     27  N   UNL     1      40.509 -25.454 -13.582  0.00  0.00    -0.343 N 
ATOM     28  C   UNL     1      37.136 -24.155 -14.098  0.00  0.00    +0.002 C 
ATOM     29  C   UNL     1      38.484 -24.196 -13.787  0.00  0.00    +0.031 C 
ATOM     30  C   UNL     1      36.471 -25.296 -14.507  0.00  0.00    +0.018 C 
ATOM     31  C   UNL     1      39.129 -25.416 -13.902  0.00  0.00    +0.125 C 
ATOM     32  C   UNL     1      37.206 -26.468 -14.590  0.00  0.00    +0.100 C 
ATOM     33  H   UNL     1      41.006 -26.301 -13.649  0.00  0.00    +0.144 HD
ATOM     34  H   UNL     1      40.969 -24.634 -13.290  0.00  0.00    +0.144 HD
ENDBRANCH  25  28
ENDBRANCH   1  25
TORSDOF 5
ENDMDL
MODEL 6
REMARK VINA RESULT:     -11.2      6.663     11.745
REMARK  Name = 11691242
REMARK  5 active torsions:
REMARK  status: ('A' for Active; 'I' for Inactive)
REMARK    1  A    between atoms: N_1  and  C_25
REMARK    2  A    between atoms: C_5  and  N_11
REMARK    3  A    between atoms: N_12  and  C_17
REMARK    4  A    between atoms: C_18  and  O_23
REMARK    5  A    between atoms: C_25  and  C_28
REMARK                            x       y       z     vdW  Elec       q    Type
REMARK                         _______ _______ _______ _____ _____    ______ ____
ROOT
ATOM      1  N   UNL     1      35.828 -18.234 -22.053  0.00  0.00    -0.282 N 
ATOM      2  C   UNL     1      35.049 -18.943 -21.168  0.00  0.00    +0.053 C 
ATOM      3  C   UNL     1      35.869 -19.303 -20.095  0.00  0.00    +0.028 C 
ATOM      4  C   UNL     1      37.109 -18.133 -21.580  0.00  0.00    +0.066 C 
ATOM      5  C   UNL     1      35.313 -20.047 -19.036  0.00  0.00    +0.053 C 
ATOM      6  C   UNL     1      37.166 -18.786 -20.370  0.00  0.00    +0.019 C 
ATOM      7  C   UNL     1      33.696 -19.291 -21.233  0.00  0.00    +0.015 C 
ATOM      8  C   UNL     1      33.960 -20.402 -19.087  0.00  0.00    +0.015 C 
ATOM      9  C   UNL     1      33.165 -20.029 -20.169  0.00  0.00    +0.003 C 
ENDROOT
BRANCH   5  11
ATOM     10  O   UNL     1      35.062 -22.419 -17.238  0.00  0.00    -0.252 OA
ATOM     11  N   UNL     1      36.087 -20.432 -17.941  0.00  0.00    -0.268 N 
ATOM     12  N   UNL     1      36.935 -21.574 -16.121  0.00  0.00    -0.266 N 
ATOM     13  C   UNL     1      35.938 -21.568 -17.109  0.00  0.00    +0.308 C 
ATOM     14  H   UNL     1      36.838 -19.835 -17.716  0.00  0.00    +0.156 HD
ATOM     15  H   UNL     1      37.570 -20.822 -16.144  0.00  0.00    +0.157 HD
BRANCH  12  17
ATOM     16 BR   UNL     1      40.280 -24.926 -13.831  0.00  0.00    -0.049 Br
ATOM     17  C   UNL     1      37.141 -22.528 -15.096  0.00  0.00    +0.086 C 
ATOM     18  C   UNL     1      36.111 -22.837 -14.221  0.00  0.00    +0.152 C 
ATOM     19  C   UNL     1      38.381 -23.137 -14.992  0.00  0.00    +0.024 C 
ATOM     20  C   UNL     1      36.328 -23.778 -13.216  0.00  0.00    +0.039 C 
ATOM     21  C   UNL     1      38.598 -24.079 -13.986  0.00  0.00    +0.036 C 
ATOM     22  C   UNL     1      37.571 -24.400 -13.098  0.00  0.00    +0.010 C 
BRANCH  18  23
ATOM     23  O   UNL     1      34.889 -22.242 -14.320  0.00  0.00    -0.470 OA
ATOM     24  C   UNL     1      33.751 -23.038 -13.993  0.00  0.00    +0.253 C 
ENDBRANCH  18  23
ENDBRANCH  12  17
ENDBRANCH   5  11
BRANCH   1  25
ATOM     25  C   UNL     1      35.377 -17.673 -23.308  0.00  0.00    +0.122 C 
BRANCH  25  28
ATOM     26  N   UNL     1      34.129 -13.599 -22.841  0.00  0.00    -0.230 NA
ATOM     27  N   UNL     1      33.195 -13.649 -25.033  0.00  0.00    -0.343 N 
ATOM     28  C   UNL     1      34.939 -16.243 -23.145  0.00  0.00    +0.002 C 
ATOM     29  C   UNL     1      34.267 -15.610 -24.176  0.00  0.00    +0.031 C 
ATOM     30  C   UNL     1      35.213 -15.575 -21.965  0.00  0.00    +0.018 C 
ATOM     31  C   UNL     1      33.884 -14.294 -23.975  0.00  0.00    +0.125 C 
ATOM     32  C   UNL     1      34.789 -14.260 -21.864  0.00  0.00    +0.100 C 
ATOM     33  H   UNL     1      32.904 -12.715 -24.932  0.00  0.00    +0.144 HD
ATOM     34  H   UNL     1      33.006 -14.138 -25.867  0.00  0.00    +0.144 HD
ENDBRANCH  25  28
ENDBRANCH   1  25
TORSDOF 5
ENDMDL
MODEL 7
REMARK VINA RESULT:     -11.1      1.490      2.119
REMARK  Name = 11691242
REMARK  5 active torsions:
REMARK  status: ('A' for Active; 'I' for Inactive)
REMARK    1  A    between atoms: N_1  and  C_25
REMARK    2  A    between atoms: C_5  and  N_11
REMARK    3  A    between atoms: N_12  and  C_17
REMARK    4  A    between atoms: C_18  and  O_23
REMARK    5  A    between atoms: C_25  and  C_28
REMARK                            x       y       z     vdW  Elec       q    Type
REMARK                         _______ _______ _______ _____ _____    ______ ____
ROOT
ATOM      1  N   UNL     1      35.652 -16.416 -21.717  0.00  0.00    -0.282 N 
ATOM      2  C   UNL     1      35.038 -15.806 -22.787  0.00  0.00    +0.053 C 
ATOM      3  C   UNL     1      34.424 -14.648 -22.303  0.00  0.00    +0.028 C 
ATOM      4  C   UNL     1      35.449 -15.687 -20.577  0.00  0.00    +0.066 C 
ATOM      5  C   UNL     1      33.716 -13.828 -23.202  0.00  0.00    +0.053 C 
ATOM      6  C   UNL     1      34.692 -14.587 -20.906  0.00  0.00    +0.019 C 
ATOM      7  C   UNL     1      34.978 -16.185 -24.132  0.00  0.00    +0.015 C 
ATOM      8  C   UNL     1      33.648 -14.195 -24.552  0.00  0.00    +0.015 C 
ATOM      9  C   UNL     1      34.270 -15.355 -25.008  0.00  0.00    +0.003 C 
ENDROOT
BRANCH   5  11
ATOM     10  O   UNL     1      34.755 -11.035 -23.004  0.00  0.00    -0.252 OA
ATOM     11  N   UNL     1      33.084 -12.661 -22.771  0.00  0.00    -0.268 N 
ATOM     12  N   UNL     1      32.633 -10.469 -22.201  0.00  0.00    -0.266 N 
ATOM     13  C   UNL     1      33.611 -11.349 -22.691  0.00  0.00    +0.308 C 
ATOM     14  H   UNL     1      32.147 -12.762 -22.485  0.00  0.00    +0.156 HD
ATOM     15  H   UNL     1      31.758 -10.868 -21.993  0.00  0.00    +0.157 HD
BRANCH  12  17
ATOM     16 BR   UNL     1      32.188  -6.522 -18.753  0.00  0.00    -0.049 Br
ATOM     17  C   UNL     1      32.750  -9.077 -21.972  0.00  0.00    +0.086 C 
ATOM     18  C   UNL     1      33.142  -8.236 -23.002  0.00  0.00    +0.152 C 
ATOM     19  C   UNL     1      32.466  -8.584 -20.708  0.00  0.00    +0.024 C 
ATOM     20  C   UNL     1      33.253  -6.867 -22.761  0.00  0.00    +0.039 C 
ATOM     21  C   UNL     1      32.577  -7.215 -20.467  0.00  0.00    +0.036 C 
ATOM     22  C   UNL     1      32.971  -6.356 -21.493  0.00  0.00    +0.010 C 
BRANCH  18  23
ATOM     23  O   UNL     1      33.420  -8.716 -24.246  0.00  0.00    -0.470 OA
ATOM     24  C   UNL     1      34.732  -8.478 -24.754  0.00  0.00    +0.253 C 
ENDBRANCH  18  23
ENDBRANCH  12  17
ENDBRANCH   5  11
BRANCH   1  25
ATOM     25  C   UNL     1      36.404 -17.652 -21.772  0.00  0.00    +0.122 C 
BRANCH  25  28
ATOM     26  N   UNL     1      34.824 -20.572 -19.063  0.00  0.00    -0.230 NA
ATOM     27  N   UNL     1      32.637 -20.155 -19.912  0.00  0.00    -0.343 N 
ATOM     28  C   UNL     1      35.849 -18.676 -20.821  0.00  0.00    +0.002 C 
ATOM     29  C   UNL     1      34.490 -18.937 -20.812  0.00  0.00    +0.031 C 
ATOM     30  C   UNL     1      36.703 -19.348 -19.966  0.00  0.00    +0.018 C 
ATOM     31  C   UNL     1      34.029 -19.890 -19.918  0.00  0.00    +0.125 C 
ATOM     32  C   UNL     1      36.144 -20.283 -19.110  0.00  0.00    +0.100 C 
ATOM     33  H   UNL     1      32.267 -20.825 -19.294  0.00  0.00    +0.144 HD
ATOM     34  H   UNL     1      32.041 -19.670 -20.528  0.00  0.00    +0.144 HD
ENDBRANCH  25  28
ENDBRANCH   1  25
TORSDOF 5
ENDMDL
MODEL 8
REMARK VINA RESULT:     -10.8      2.694      4.503
REMARK  Name = 11691242
REMARK  5 active torsions:
REMARK  status: ('A' for Active; 'I' for Inactive)
REMARK    1  A    between atoms: N_1  and  C_25
REMARK    2  A    between atoms: C_5  and  N_11
REMARK    3  A    between atoms: N_12  and  C_17
REMARK    4  A    between atoms: C_18  and  O_23
REMARK    5  A    between atoms: C_25  and  C_28
REMARK                            x       y       z     vdW  Elec       q    Type
REMARK                         _______ _______ _______ _____ _____    ______ ____
ROOT
ATOM      1  N   UNL     1      34.306 -12.968 -22.267  0.00  0.00    -0.282 N 
ATOM      2  C   UNL     1      33.350 -12.475 -21.408  0.00  0.00    +0.053 C 
ATOM      3  C   UNL     1      32.929 -11.246 -21.922  0.00  0.00    +0.028 C 
ATOM      4  C   UNL     1      34.504 -12.096 -23.303  0.00  0.00    +0.066 C 
ATOM      5  C   UNL     1      31.943 -10.521 -21.225  0.00  0.00    +0.053 C 
ATOM      6  C   UNL     1      33.668 -11.019 -23.118  0.00  0.00    +0.019 C 
ATOM      7  C   UNL     1      32.830 -13.017 -20.228  0.00  0.00    +0.015 C 
ATOM      8  C   UNL     1      31.414 -11.051 -20.043  0.00  0.00    +0.015 C 
ATOM      9  C   UNL     1      31.851 -12.280 -19.553  0.00  0.00    +0.003 C 
ENDROOT
BRANCH   5  11
ATOM     10  O   UNL     1      33.363  -7.904 -21.460  0.00  0.00    -0.252 OA
ATOM     11  N   UNL     1      31.487  -9.289 -21.695  0.00  0.00    -0.268 N 
ATOM     12  N   UNL     1      31.354  -7.069 -22.319  0.00  0.00    -0.266 N 
ATOM     13  C   UNL     1      32.192  -8.064 -21.791  0.00  0.00    +0.308 C 
ATOM     14  H   UNL     1      30.551  -9.267 -21.999  0.00  0.00    +0.156 HD
ATOM     15  H   UNL     1      30.436  -7.349 -22.539  0.00  0.00    +0.157 HD
BRANCH  12  17
ATOM     16 BR   UNL     1      32.819  -3.485 -25.880  0.00  0.00    -0.049 Br
ATOM     17  C   UNL     1      31.667  -5.713 -22.576  0.00  0.00    +0.086 C 
ATOM     18  C   UNL     1      31.618  -4.785 -21.548  0.00  0.00    +0.152 C 
ATOM     19  C   UNL     1      32.019  -5.343 -23.864  0.00  0.00    +0.024 C 
ATOM     20  C   UNL     1      31.928  -3.452 -21.815  0.00  0.00    +0.039 C 
ATOM     21  C   UNL     1      32.330  -4.009 -24.131  0.00  0.00    +0.036 C 
ATOM     22  C   UNL     1      32.284  -3.064 -23.107  0.00  0.00    +0.010 C 
BRANCH  18  23
ATOM     23  O   UNL     1      31.274  -5.144 -20.279  0.00  0.00    -0.470 OA
ATOM     24  C   UNL     1      32.311  -5.141 -19.300  0.00  0.00    +0.253 C 
ENDBRANCH  18  23
ENDBRANCH  12  17
ENDBRANCH   5  11
BRANCH   1  25
ATOM     25  C   UNL     1      35.012 -14.222 -22.110  0.00  0.00    +0.122 C 
BRANCH  25  28
ATOM     26  N   UNL     1      33.874 -17.044 -25.128  0.00  0.00    -0.230 NA
ATOM     27  N   UNL     1      34.828 -18.797 -23.827  0.00  0.00    -0.343 N 
ATOM     28  C   UNL     1      34.614 -15.213 -23.170  0.00  0.00    +0.002 C 
ATOM     29  C   UNL     1      34.911 -16.553 -23.001  0.00  0.00    +0.031 C 
ATOM     30  C   UNL     1      33.952 -14.773 -24.302  0.00  0.00    +0.018 C 
ATOM     31  C   UNL     1      34.522 -17.425 -24.004  0.00  0.00    +0.125 C 
ATOM     32  C   UNL     1      33.606 -15.724 -25.248  0.00  0.00    +0.100 C 
ATOM     33  H   UNL     1      34.569 -19.452 -24.515  0.00  0.00    +0.144 HD
ATOM     34  H   UNL     1      35.298 -19.096 -23.015  0.00  0.00    +0.144 HD
ENDBRANCH  25  28
ENDBRANCH   1  25
TORSDOF 5
ENDMDL
MODEL 9
REMARK VINA RESULT:     -10.7      2.198      3.386
REMARK  Name = 11691242
REMARK  5 active torsions:
REMARK  status: ('A' for Active; 'I' for Inactive)
REMARK    1  A    between atoms: N_1  and  C_25
REMARK    2  A    between atoms: C_5  and  N_11
REMARK    3  A    between atoms: N_12  and  C_17
REMARK    4  A    between atoms: C_18  and  O_23
REMARK    5  A    between atoms: C_25  and  C_28
REMARK                            x       y       z     vdW  Elec       q    Type
REMARK                         _______ _______ _______ _____ _____    ______ ____
ROOT
ATOM      1  N   UNL     1      35.754 -18.158 -21.192  0.00  0.00    -0.282 N 
ATOM      2  C   UNL     1      35.228 -17.837 -22.422  0.00  0.00    +0.053 C 
ATOM      3  C   UNL     1      35.132 -16.445 -22.478  0.00  0.00    +0.028 C 
ATOM      4  C   UNL     1      35.994 -17.021 -20.469  0.00  0.00    +0.066 C 
ATOM      5  C   UNL     1      34.618 -15.846 -23.645  0.00  0.00    +0.053 C 
ATOM      6  C   UNL     1      35.619 -15.943 -21.238  0.00  0.00    +0.019 C 
ATOM      7  C   UNL     1      34.833 -18.664 -23.480  0.00  0.00    +0.015 C 
ATOM      8  C   UNL     1      34.218 -16.660 -24.711  0.00  0.00    +0.015 C 
ATOM      9  C   UNL     1      34.325 -18.047 -24.628  0.00  0.00    +0.003 C 
ENDROOT
BRANCH   5  11
ATOM     10  O   UNL     1      33.215 -13.886 -21.880  0.00  0.00    -0.252 OA
ATOM     11  N   UNL     1      34.501 -14.460 -23.753  0.00  0.00    -0.268 N 
ATOM     12  N   UNL     1      33.957 -12.247 -23.374  0.00  0.00    -0.266 N 
ATOM     13  C   UNL     1      33.825 -13.560 -22.893  0.00  0.00    +0.308 C 
ATOM     14  H   UNL     1      34.947 -14.052 -24.531  0.00  0.00    +0.156 HD
ATOM     15  H   UNL     1      34.478 -12.141 -24.202  0.00  0.00    +0.157 HD
BRANCH  12  17
ATOM     16 BR   UNL     1      31.230 -10.060 -19.444  0.00  0.00    -0.049 Br
ATOM     17  C   UNL     1      33.435 -11.058 -22.812  0.00  0.00    +0.086 C 
ATOM     18  C   UNL     1      33.638  -9.844 -23.451  0.00  0.00    +0.152 C 
ATOM     19  C   UNL     1      32.727 -11.137 -21.624  0.00  0.00    +0.024 C 
ATOM     20  C   UNL     1      33.118  -8.680 -22.886  0.00  0.00    +0.039 C 
ATOM     21  C   UNL     1      32.206  -9.972 -21.060  0.00  0.00    +0.036 C 
ATOM     22  C   UNL     1      32.402  -8.744 -21.690  0.00  0.00    +0.010 C 
BRANCH  18  23
ATOM     23  O   UNL     1      34.333  -9.761 -24.620  0.00  0.00    -0.470 OA
ATOM     24  C   UNL     1      35.643  -9.199 -24.556  0.00  0.00    +0.253 C 
ENDBRANCH  18  23
ENDBRANCH  12  17
ENDBRANCH   5  11
BRANCH   1  25
ATOM     25  C   UNL     1      36.017 -19.499 -20.714  0.00  0.00    +0.122 C 
BRANCH  25  28
ATOM     26  N   UNL     1      32.755 -20.992 -18.370  0.00  0.00    -0.230 NA
ATOM     27  N   UNL     1      34.288 -22.288 -17.088  0.00  0.00    -0.343 N 
ATOM     28  C   UNL     1      34.873 -20.024 -19.891  0.00  0.00    +0.002 C 
ATOM     29  C   UNL     1      35.119 -20.919 -18.866  0.00  0.00    +0.031 C 
ATOM     30  C   UNL     1      33.584 -19.604 -20.168  0.00  0.00    +0.018 C 
ATOM     31  C   UNL     1      34.031 -21.372 -18.138  0.00  0.00    +0.125 C 
ATOM     32  C   UNL     1      32.564 -20.116 -19.382  0.00  0.00    +0.100 C 
ATOM     33  H   UNL     1      33.544 -22.635 -16.545  0.00  0.00    +0.144 HD
ATOM     34  H   UNL     1      35.211 -22.577 -16.901  0.00  0.00    +0.144 HD
ENDBRANCH  25  28
ENDBRANCH   1  25
TORSDOF 5
ENDMDL
