MODEL 1
REMARK VINA RESULT:     -12.1      0.000      0.000
REMARK  Name = 11653652
REMARK  5 active torsions:
REMARK  status: ('A' for Active; 'I' for Inactive)
REMARK    1  A    between atoms: N_1  and  C_19
REMARK    2  A    between atoms: C_4  and  C_7
REMARK    3  A    between atoms: C_5  and  C_27
REMARK    4  A    between atoms: N_6  and  C_13
REMARK    5  A    between atoms: N_6  and  O_16
REMARK                            x       y       z     vdW  Elec       q    Type
REMARK                         _______ _______ _______ _____ _____    ______ ____
ROOT
ATOM      1  N   UNL     1      33.925 -21.653 -17.844  0.00  0.00    -0.212 N 
ATOM      2  N   UNL     1      32.642 -21.979 -17.618  0.00  0.00    -0.178 NA
ATOM      3  C   UNL     1      34.763 -21.956 -16.811  0.00  0.00    +0.085 C 
ATOM      4  C   UNL     1      33.970 -22.519 -15.845  0.00  0.00    +0.032 C 
ATOM      5  C   UNL     1      32.675 -22.509 -16.392  0.00  0.00    +0.100 C 
ENDROOT
BRANCH   4   6
ATOM      6  C   UNL     1      34.471 -22.983 -14.582  0.00  0.00    -0.015 C 
ATOM      7  C   UNL     1      36.225 -23.952 -13.272  0.00  0.00    -0.016 C 
ATOM      8  C   UNL     1      37.564 -24.546 -12.965  0.00  0.00    -0.002 C 
ATOM      9  C   UNL     1      35.403 -23.863 -12.154  0.00  0.00    +0.016 C 
ATOM     10  C   UNL     1      37.507 -24.842 -11.457  0.00  0.00    +0.021 C 
ATOM     11  C   UNL     1      35.765 -23.509 -14.502  0.00  0.00    +0.053 C 
ATOM     12  C   UNL     1      36.137 -24.392 -11.024  0.00  0.00    +0.107 C 
ATOM     13  C   UNL     1      33.656 -22.903 -13.440  0.00  0.00    -0.004 C 
ATOM     14  C   UNL     1      34.121 -23.348 -12.202  0.00  0.00    +0.001 C 
BRANCH  12  15
ATOM     15  N   UNL     1      35.724 -24.487  -9.808  0.00  0.00    -0.135 NA
BRANCH  15  16
ATOM     16  O   UNL     1      36.446 -23.583  -9.024  0.00  0.00    -0.265 OA
ATOM     17  H   UNL     1      36.283 -23.528  -8.103  0.00  0.00    +0.247 HD
ENDBRANCH  15  16
ENDBRANCH  12  15
ENDBRANCH   4   6
BRANCH   1  19
ATOM     18  N   UNL     1      35.084 -18.768 -20.795  0.00  0.00    +0.384 N 
ATOM     19  C   UNL     1      34.304 -21.030 -19.118  0.00  0.00    +0.092 C 
ATOM     20  C   UNL     1      33.294 -19.970 -19.584  0.00  0.00    -0.002 C 
ATOM     21  C   UNL     1      35.725 -20.446 -19.093  0.00  0.00    -0.002 C 
ATOM     22  C   UNL     1      33.738 -19.333 -20.899  0.00  0.00    -0.080 C 
ATOM     23  C   UNL     1      36.068 -19.789 -20.430  0.00  0.00    -0.080 C 
ATOM     24  H   UNL     1      35.083 -18.039 -20.081  0.00  0.00    -0.085 HD
ATOM     25  H   UNL     1      35.343 -18.386 -21.704  0.00  0.00    -0.085 HD
ENDBRANCH   1  19
BRANCH   5  27
ATOM     26  N   UNL     1      29.117 -23.925 -14.594  0.00  0.00    -0.242 NA
ATOM     27  C   UNL     1      31.463 -22.991 -15.780  0.00  0.00    +0.022 C 
ATOM     28  C   UNL     1      31.369 -24.316 -15.380  0.00  0.00    +0.022 C 
ATOM     29  C   UNL     1      30.392 -22.129 -15.591  0.00  0.00    +0.022 C 
ATOM     30  C   UNL     1      30.183 -24.732 -14.797  0.00  0.00    +0.099 C 
ATOM     31  C   UNL     1      29.250 -22.641 -14.998  0.00  0.00    +0.099 C 
ENDBRANCH   5  27
TORSDOF 5
ENDMDL
MODEL 2
REMARK VINA RESULT:     -10.8      2.200      5.352
REMARK  Name = 11653652
REMARK  5 active torsions:
REMARK  status: ('A' for Active; 'I' for Inactive)
REMARK    1  A    between atoms: N_1  and  C_19
REMARK    2  A    between atoms: C_4  and  C_7
REMARK    3  A    between atoms: C_5  and  C_27
REMARK    4  A    between atoms: N_6  and  C_13
REMARK    5  A    between atoms: N_6  and  O_16
REMARK                            x       y       z     vdW  Elec       q    Type
REMARK                         _______ _______ _______ _____ _____    ______ ____
ROOT
ATOM      1  N   UNL     1      31.671 -22.876 -15.453  0.00  0.00    -0.212 N 
ATOM      2  N   UNL     1      32.217 -22.244 -16.505  0.00  0.00    -0.178 NA
ATOM      3  C   UNL     1      32.585 -23.436 -14.609  0.00  0.00    +0.085 C 
ATOM      4  C   UNL     1      33.811 -23.149 -15.149  0.00  0.00    +0.032 C 
ATOM      5  C   UNL     1      33.529 -22.414 -16.314  0.00  0.00    +0.100 C 
ENDROOT
BRANCH   4   6
ATOM      6  C   UNL     1      35.053 -23.564 -14.557  0.00  0.00    -0.015 C 
ATOM      7  C   UNL     1      36.769 -23.278 -12.914  0.00  0.00    -0.016 C 
ATOM      8  C   UNL     1      37.495 -22.671 -11.753  0.00  0.00    -0.002 C 
ATOM      9  C   UNL     1      37.426 -24.381 -13.447  0.00  0.00    +0.016 C 
ATOM     10  C   UNL     1      38.748 -23.548 -11.595  0.00  0.00    +0.021 C 
ATOM     11  C   UNL     1      35.569 -22.858 -13.466  0.00  0.00    +0.053 C 
ATOM     12  C   UNL     1      38.637 -24.586 -12.680  0.00  0.00    +0.107 C 
ATOM     13  C   UNL     1      35.734 -24.676 -15.082  0.00  0.00    -0.004 C 
ATOM     14  C   UNL     1      36.940 -25.098 -14.524  0.00  0.00    +0.001 C 
BRANCH  12  15
ATOM     15  N   UNL     1      39.521 -25.506 -12.859  0.00  0.00    -0.135 NA
BRANCH  15  16
ATOM     16  O   UNL     1      40.645 -24.927 -13.454  0.00  0.00    -0.265 OA
ATOM     17  H   UNL     1      40.693 -24.848 -14.386  0.00  0.00    +0.247 HD
ENDBRANCH  15  16
ENDBRANCH  12  15
ENDBRANCH   4   6
BRANCH   1  19
ATOM     18  N   UNL     1      27.512 -21.876 -15.730  0.00  0.00    +0.384 N 
ATOM     19  C   UNL     1      30.212 -22.910 -15.303  0.00  0.00    +0.092 C 
ATOM     20  C   UNL     1      29.666 -21.700 -14.527  0.00  0.00    -0.002 C 
ATOM     21  C   UNL     1      29.481 -23.061 -16.646  0.00  0.00    -0.002 C 
ATOM     22  C   UNL     1      28.144 -21.765 -14.415  0.00  0.00    -0.080 C 
ATOM     23  C   UNL     1      27.966 -23.070 -16.446  0.00  0.00    -0.080 C 
ATOM     24  H   UNL     1      27.749 -21.050 -16.282  0.00  0.00    -0.085 HD
ATOM     25  H   UNL     1      26.504 -21.947 -15.597  0.00  0.00    -0.085 HD
ENDBRANCH   1  19
BRANCH   5  27
ATOM     26  N   UNL     1      36.304 -20.809 -19.074  0.00  0.00    -0.242 NA
ATOM     27  C   UNL     1      34.474 -21.868 -17.254  0.00  0.00    +0.022 C 
ATOM     28  C   UNL     1      35.760 -21.553 -16.839  0.00  0.00    +0.022 C 
ATOM     29  C   UNL     1      34.096 -21.657 -18.573  0.00  0.00    +0.022 C 
ATOM     30  C   UNL     1      36.631 -21.029 -17.780  0.00  0.00    +0.099 C 
ATOM     31  C   UNL     1      35.041 -21.129 -19.437  0.00  0.00    +0.099 C 
ENDBRANCH   5  27
TORSDOF 5
ENDMDL
MODEL 3
REMARK VINA RESULT:     -10.5      1.415      1.767
REMARK  Name = 11653652
REMARK  5 active torsions:
REMARK  status: ('A' for Active; 'I' for Inactive)
REMARK    1  A    between atoms: N_1  and  C_19
REMARK    2  A    between atoms: C_4  and  C_7
REMARK    3  A    between atoms: C_5  and  C_27
REMARK    4  A    between atoms: N_6  and  C_13
REMARK    5  A    between atoms: N_6  and  O_16
REMARK                            x       y       z     vdW  Elec       q    Type
REMARK                         _______ _______ _______ _____ _____    ______ ____
ROOT
ATOM      1  N   UNL     1      34.114 -21.548 -17.989  0.00  0.00    -0.212 N 
ATOM      2  N   UNL     1      32.923 -21.767 -17.408  0.00  0.00    -0.178 NA
ATOM      3  C   UNL     1      35.176 -21.998 -17.260  0.00  0.00    +0.085 C 
ATOM      4  C   UNL     1      34.639 -22.548 -16.125  0.00  0.00    +0.032 C 
ATOM      5  C   UNL     1      33.251 -22.380 -16.266  0.00  0.00    +0.100 C 
ENDROOT
BRANCH   4   6
ATOM      6  C   UNL     1      35.430 -23.142 -15.083  0.00  0.00    -0.015 C 
ATOM      7  C   UNL     1      36.776 -22.923 -13.117  0.00  0.00    -0.016 C 
ATOM      8  C   UNL     1      37.488 -22.245 -11.988  0.00  0.00    -0.002 C 
ATOM      9  C   UNL     1      36.936 -24.305 -13.106  0.00  0.00    +0.016 C 
ATOM     10  C   UNL     1      38.153 -23.397 -11.216  0.00  0.00    +0.021 C 
ATOM     11  C   UNL     1      36.016 -22.327 -14.110  0.00  0.00    +0.053 C 
ATOM     12  C   UNL     1      37.767 -24.643 -11.969  0.00  0.00    +0.107 C 
ATOM     13  C   UNL     1      35.605 -24.536 -15.055  0.00  0.00    -0.004 C 
ATOM     14  C   UNL     1      36.369 -25.135 -14.054  0.00  0.00    +0.001 C 
BRANCH  12  15
ATOM     15  N   UNL     1      38.148 -25.820 -11.611  0.00  0.00    -0.135 NA
BRANCH  15  16
ATOM     16  O   UNL     1      37.072 -26.466 -10.998  0.00  0.00    -0.265 OA
ATOM     17  H   UNL     1      36.218 -26.081 -11.024  0.00  0.00    +0.247 HD
ENDBRANCH  15  16
ENDBRANCH  12  15
ENDBRANCH   4   6
BRANCH   1  19
ATOM     18  N   UNL     1      34.354 -18.531 -21.024  0.00  0.00    +0.384 N 
ATOM     19  C   UNL     1      34.175 -20.879 -19.293  0.00  0.00    +0.092 C 
ATOM     20  C   UNL     1      32.975 -19.950 -19.540  0.00  0.00    -0.002 C 
ATOM     21  C   UNL     1      35.494 -20.123 -19.511  0.00  0.00    -0.002 C 
ATOM     22  C   UNL     1      33.091 -19.258 -20.897  0.00  0.00    -0.080 C 
ATOM     23  C   UNL     1      35.505 -19.424 -20.871  0.00  0.00    -0.080 C 
ATOM     24  H   UNL     1      34.396 -17.810 -20.304  0.00  0.00    -0.085 HD
ATOM     25  H   UNL     1      34.394 -18.117 -21.955  0.00  0.00    -0.085 HD
ENDBRANCH   1  19
BRANCH   5  27
ATOM     26  N   UNL     1      30.231 -23.575 -13.556  0.00  0.00    -0.242 NA
ATOM     27  C   UNL     1      32.222 -22.787 -15.343  0.00  0.00    +0.022 C 
ATOM     28  C   UNL     1      31.108 -23.472 -15.806  0.00  0.00    +0.022 C 
ATOM     29  C   UNL     1      32.348 -22.492 -13.992  0.00  0.00    +0.022 C 
ATOM     30  C   UNL     1      30.147 -23.842 -14.879  0.00  0.00    +0.099 C 
ATOM     31  C   UNL     1      31.332 -22.905 -13.147  0.00  0.00    +0.099 C 
ENDBRANCH   5  27
TORSDOF 5
ENDMDL
MODEL 4
REMARK VINA RESULT:     -10.2      3.357      7.323
REMARK  Name = 11653652
REMARK  5 active torsions:
REMARK  status: ('A' for Active; 'I' for Inactive)
REMARK    1  A    between atoms: N_1  and  C_19
REMARK    2  A    between atoms: C_4  and  C_7
REMARK    3  A    between atoms: C_5  and  C_27
REMARK    4  A    between atoms: N_6  and  C_13
REMARK    5  A    between atoms: N_6  and  O_16
REMARK                            x       y       z     vdW  Elec       q    Type
REMARK                         _______ _______ _______ _____ _____    ______ ____
ROOT
ATOM      1  N   UNL     1      35.493 -23.874 -14.434  0.00  0.00    -0.212 N 
ATOM      2  N   UNL     1      34.186 -23.814 -14.131  0.00  0.00    -0.178 NA
ATOM      3  C   UNL     1      35.832 -23.178 -15.558  0.00  0.00    +0.085 C 
ATOM      4  C   UNL     1      34.664 -22.628 -16.018  0.00  0.00    +0.032 C 
ATOM      5  C   UNL     1      33.683 -23.050 -15.105  0.00  0.00    +0.100 C 
ENDROOT
BRANCH   4   6
ATOM      6  C   UNL     1      34.586 -21.810 -17.197  0.00  0.00    -0.015 C 
ATOM      7  C   UNL     1      35.648 -20.449 -18.854  0.00  0.00    -0.016 C 
ATOM      8  C   UNL     1      36.756 -19.743 -19.571  0.00  0.00    -0.002 C 
ATOM      9  C   UNL     1      34.407 -20.252 -19.449  0.00  0.00    +0.016 C 
ATOM     10  C   UNL     1      36.056 -19.039 -20.746  0.00  0.00    +0.021 C 
ATOM     11  C   UNL     1      35.750 -21.235 -17.718  0.00  0.00    +0.053 C 
ATOM     12  C   UNL     1      34.601 -19.401 -20.604  0.00  0.00    +0.107 C 
ATOM     13  C   UNL     1      33.341 -21.598 -17.813  0.00  0.00    -0.004 C 
ATOM     14  C   UNL     1      33.240 -20.808 -18.958  0.00  0.00    +0.001 C 
BRANCH  12  15
ATOM     15  N   UNL     1      33.696 -18.984 -21.421  0.00  0.00    -0.135 NA
BRANCH  15  16
ATOM     16  O   UNL     1      34.320 -18.593 -22.608  0.00  0.00    -0.265 OA
ATOM     17  H   UNL     1      35.226 -18.352 -22.604  0.00  0.00    +0.247 HD
ENDBRANCH  15  16
ENDBRANCH  12  15
ENDBRANCH   4   6
BRANCH   1  19
ATOM     18  N   UNL     1      39.048 -25.509 -12.684  0.00  0.00    +0.384 N 
ATOM     19  C   UNL     1      36.404 -24.639 -13.576  0.00  0.00    +0.092 C 
ATOM     20  C   UNL     1      37.237 -25.666 -14.362  0.00  0.00    -0.002 C 
ATOM     21  C   UNL     1      37.318 -23.740 -12.730  0.00  0.00    -0.002 C 
ATOM     22  C   UNL     1      38.186 -26.423 -13.434  0.00  0.00    -0.080 C 
ATOM     23  C   UNL     1      38.264 -24.578 -11.870  0.00  0.00    -0.080 C 
ATOM     24  H   UNL     1      39.616 -24.975 -13.342  0.00  0.00    -0.085 HD
ATOM     25  H   UNL     1      39.636 -26.061 -12.062  0.00  0.00    -0.085 HD
ENDBRANCH   1  19
BRANCH   5  27
ATOM     26  N   UNL     1      29.548 -22.159 -15.184  0.00  0.00    -0.242 NA
ATOM     27  C   UNL     1      32.275 -22.747 -15.132  0.00  0.00    +0.022 C 
ATOM     28  C   UNL     1      31.696 -22.052 -14.080  0.00  0.00    +0.022 C 
ATOM     29  C   UNL     1      31.500 -23.151 -16.211  0.00  0.00    +0.022 C 
ATOM     30  C   UNL     1      30.339 -21.785 -14.152  0.00  0.00    +0.099 C 
ATOM     31  C   UNL     1      30.151 -22.834 -16.188  0.00  0.00    +0.099 C 
ENDBRANCH   5  27
TORSDOF 5
ENDMDL
MODEL 5
REMARK VINA RESULT:      -9.8      3.345      7.923
REMARK  Name = 11653652
REMARK  5 active torsions:
REMARK  status: ('A' for Active; 'I' for Inactive)
REMARK    1  A    between atoms: N_1  and  C_19
REMARK    2  A    between atoms: C_4  and  C_7
REMARK    3  A    between atoms: C_5  and  C_27
REMARK    4  A    between atoms: N_6  and  C_13
REMARK    5  A    between atoms: N_6  and  O_16
REMARK                            x       y       z     vdW  Elec       q    Type
REMARK                         _______ _______ _______ _____ _____    ______ ____
ROOT
ATOM      1  N   UNL     1      32.288 -23.211 -15.899  0.00  0.00    -0.212 N 
ATOM      2  N   UNL     1      33.324 -23.521 -15.101  0.00  0.00    -0.178 NA
ATOM      3  C   UNL     1      32.622 -22.411 -16.952  0.00  0.00    +0.085 C 
ATOM      4  C   UNL     1      33.968 -22.184 -16.832  0.00  0.00    +0.032 C 
ATOM      5  C   UNL     1      34.350 -22.889 -15.678  0.00  0.00    +0.100 C 
ENDROOT
BRANCH   4   6
ATOM      6  C   UNL     1      34.720 -21.379 -17.755  0.00  0.00    -0.015 C 
ATOM      7  C   UNL     1      34.807 -19.959 -19.679  0.00  0.00    -0.016 C 
ATOM      8  C   UNL     1      34.308 -19.187 -20.860  0.00  0.00    -0.002 C 
ATOM      9  C   UNL     1      36.182 -19.848 -19.501  0.00  0.00    +0.016 C 
ATOM     10  C   UNL     1      35.573 -18.537 -21.447  0.00  0.00    +0.021 C 
ATOM     11  C   UNL     1      34.060 -20.729 -18.802  0.00  0.00    +0.053 C 
ATOM     12  C   UNL     1      36.694 -18.993 -20.551  0.00  0.00    +0.107 C 
ATOM     13  C   UNL     1      36.110 -21.254 -17.592  0.00  0.00    -0.004 C 
ATOM     14  C   UNL     1      36.861 -20.477 -18.475  0.00  0.00    +0.001 C 
BRANCH  12  15
ATOM     15  N   UNL     1      37.920 -18.643 -20.737  0.00  0.00    -0.135 NA
BRANCH  15  16
ATOM     16  O   UNL     1      37.973 -17.787 -21.840  0.00  0.00    -0.265 OA
ATOM     17  H   UNL     1      38.398 -16.955 -21.767  0.00  0.00    +0.247 HD
ENDBRANCH  15  16
ENDBRANCH  12  15
ENDBRANCH   4   6
BRANCH   1  19
ATOM     18  N   UNL     1      28.519 -23.906 -13.980  0.00  0.00    +0.384 N 
ATOM     19  C   UNL     1      30.952 -23.731 -15.590  0.00  0.00    +0.092 C 
ATOM     20  C   UNL     1      30.905 -24.494 -14.256  0.00  0.00    -0.002 C 
ATOM     21  C   UNL     1      29.869 -22.642 -15.624  0.00  0.00    -0.002 C 
ATOM     22  C   UNL     1      29.493 -24.998 -13.965  0.00  0.00    -0.080 C 
ATOM     23  C   UNL     1      28.498 -23.223 -15.275  0.00  0.00    -0.080 C 
ATOM     24  H   UNL     1      28.765 -23.232 -13.255  0.00  0.00    -0.085 HD
ATOM     25  H   UNL     1      27.593 -24.299 -13.812  0.00  0.00    -0.085 HD
ENDBRANCH   1  19
BRANCH   5  27
ATOM     26  N   UNL     1      38.223 -23.156 -13.996  0.00  0.00    -0.242 NA
ATOM     27  C   UNL     1      35.669 -22.980 -15.105  0.00  0.00    +0.022 C 
ATOM     28  C   UNL     1      36.301 -21.837 -14.638  0.00  0.00    +0.022 C 
ATOM     29  C   UNL     1      36.305 -24.211 -15.022  0.00  0.00    +0.022 C 
ATOM     30  C   UNL     1      37.569 -21.976 -14.096  0.00  0.00    +0.099 C 
ATOM     31  C   UNL     1      37.572 -24.245 -14.464  0.00  0.00    +0.099 C 
ENDBRANCH   5  27
TORSDOF 5
ENDMDL
MODEL 6
REMARK VINA RESULT:      -9.6     10.396     14.784
REMARK  Name = 11653652
REMARK  5 active torsions:
REMARK  status: ('A' for Active; 'I' for Inactive)
REMARK    1  A    between atoms: N_1  and  C_19
REMARK    2  A    between atoms: C_4  and  C_7
REMARK    3  A    between atoms: C_5  and  C_27
REMARK    4  A    between atoms: N_6  and  C_13
REMARK    5  A    between atoms: N_6  and  O_16
REMARK                            x       y       z     vdW  Elec       q    Type
REMARK                         _______ _______ _______ _____ _____    ______ ____
ROOT
ATOM      1  N   UNL     1      32.739  -9.161 -21.973  0.00  0.00    -0.212 N 
ATOM      2  N   UNL     1      33.264  -8.879 -23.177  0.00  0.00    -0.178 NA
ATOM      3  C   UNL     1      32.911 -10.457 -21.585  0.00  0.00    +0.085 C 
ATOM      4  C   UNL     1      33.594 -11.062 -22.607  0.00  0.00    +0.032 C 
ATOM      5  C   UNL     1      33.786 -10.048 -23.561  0.00  0.00    +0.100 C 
ENDROOT
BRANCH   4   6
ATOM      6  C   UNL     1      33.978 -12.447 -22.591  0.00  0.00    -0.015 C 
ATOM      7  C   UNL     1      34.170 -14.562 -23.694  0.00  0.00    -0.016 C 
ATOM      8  C   UNL     1      34.059 -15.570 -24.795  0.00  0.00    -0.002 C 
ATOM      9  C   UNL     1      34.720 -15.088 -22.531  0.00  0.00    +0.016 C 
ATOM     10  C   UNL     1      34.627 -16.861 -24.181  0.00  0.00    +0.021 C 
ATOM     11  C   UNL     1      33.793 -13.229 -23.735  0.00  0.00    +0.053 C 
ATOM     12  C   UNL     1      35.015 -16.484 -22.775  0.00  0.00    +0.107 C 
ATOM     13  C   UNL     1      34.535 -12.998 -21.425  0.00  0.00    -0.004 C 
ATOM     14  C   UNL     1      34.916 -14.339 -21.386  0.00  0.00    +0.001 C 
BRANCH  12  15
ATOM     15  N   UNL     1      35.533 -17.324 -21.947  0.00  0.00    -0.135 NA
BRANCH  15  16
ATOM     16  O   UNL     1      36.878 -17.501 -22.279  0.00  0.00    -0.265 OA
ATOM     17  H   UNL     1      37.480 -16.787 -22.193  0.00  0.00    +0.247 HD
ENDBRANCH  15  16
ENDBRANCH  12  15
ENDBRANCH   4   6
BRANCH   1  19
ATOM     18  N   UNL     1      31.930  -5.498 -19.898  0.00  0.00    +0.384 N 
ATOM     19  C   UNL     1      32.061  -8.106 -21.211  0.00  0.00    +0.092 C 
ATOM     20  C   UNL     1      32.719  -7.842 -19.847  0.00  0.00    -0.002 C 
ATOM     21  C   UNL     1      31.924  -6.797 -22.004  0.00  0.00    -0.002 C 
ATOM     22  C   UNL     1      31.996  -6.723 -19.100  0.00  0.00    -0.080 C 
ATOM     23  C   UNL     1      31.233  -5.721 -21.167  0.00  0.00    -0.080 C 
ATOM     24  H   UNL     1      32.879  -5.179 -20.094  0.00  0.00    -0.085 HD
ATOM     25  H   UNL     1      31.413  -4.798 -19.368  0.00  0.00    -0.085 HD
ENDBRANCH   1  19
BRANCH   5  27
ATOM     26  N   UNL     1      35.750 -10.373 -27.294  0.00  0.00    -0.242 NA
ATOM     27  C   UNL     1      34.455 -10.159 -24.832  0.00  0.00    +0.022 C 
ATOM     28  C   UNL     1      35.544  -9.347 -25.115  0.00  0.00    +0.022 C 
ATOM     29  C   UNL     1      34.008 -11.077 -25.772  0.00  0.00    +0.022 C 
ATOM     30  C   UNL     1      36.153  -9.492 -26.351  0.00  0.00    +0.099 C 
ATOM     31  C   UNL     1      34.685 -11.144 -26.979  0.00  0.00    +0.099 C 
ENDBRANCH   5  27
TORSDOF 5
ENDMDL
MODEL 7
REMARK VINA RESULT:      -9.5      3.409      7.622
REMARK  Name = 11653652
REMARK  5 active torsions:
REMARK  status: ('A' for Active; 'I' for Inactive)
REMARK    1  A    between atoms: N_1  and  C_19
REMARK    2  A    between atoms: C_4  and  C_7
REMARK    3  A    between atoms: C_5  and  C_27
REMARK    4  A    between atoms: N_6  and  C_13
REMARK    5  A    between atoms: N_6  and  O_16
REMARK                            x       y       z     vdW  Elec       q    Type
REMARK                         _______ _______ _______ _____ _____    ______ ____
ROOT
ATOM      1  N   UNL     1      36.455 -23.242 -14.486  0.00  0.00    -0.212 N 
ATOM      2  N   UNL     1      35.144 -23.333 -14.208  0.00  0.00    -0.178 NA
ATOM      3  C   UNL     1      36.730 -22.562 -15.637  0.00  0.00    +0.085 C 
ATOM      4  C   UNL     1      35.513 -22.185 -16.143  0.00  0.00    +0.032 C 
ATOM      5  C   UNL     1      34.572 -22.684 -15.226  0.00  0.00    +0.100 C 
ENDROOT
BRANCH   4   6
ATOM      6  C   UNL     1      35.361 -21.439 -17.361  0.00  0.00    -0.015 C 
ATOM      7  C   UNL     1      33.962 -20.504 -19.063  0.00  0.00    -0.016 C 
ATOM      8  C   UNL     1      32.700 -20.165 -19.794  0.00  0.00    -0.002 C 
ATOM      9  C   UNL     1      35.100 -20.009 -19.689  0.00  0.00    +0.016 C 
ATOM     10  C   UNL     1      33.178 -19.359 -21.014  0.00  0.00    +0.021 C 
ATOM     11  C   UNL     1      34.082 -21.226 -17.887  0.00  0.00    +0.053 C 
ATOM     12  C   UNL     1      34.677 -19.305 -20.881  0.00  0.00    +0.107 C 
ATOM     13  C   UNL     1      36.499 -20.930 -18.010  0.00  0.00    -0.004 C 
ATOM     14  C   UNL     1      36.376 -20.202 -19.193  0.00  0.00    +0.001 C 
BRANCH  12  15
ATOM     15  N   UNL     1      35.431 -18.704 -21.735  0.00  0.00    -0.135 NA
BRANCH  15  16
ATOM     16  O   UNL     1      34.615 -18.052 -22.663  0.00  0.00    -0.265 OA
ATOM     17  H   UNL     1      33.689 -18.015 -22.528  0.00  0.00    +0.247 HD
ENDBRANCH  15  16
ENDBRANCH  12  15
ENDBRANCH   4   6
BRANCH   1  19
ATOM     18  N   UNL     1      39.297 -25.945 -12.758  0.00  0.00    +0.384 N 
ATOM     19  C   UNL     1      37.435 -23.847 -13.577  0.00  0.00    +0.092 C 
ATOM     20  C   UNL     1      36.955 -25.186 -12.993  0.00  0.00    -0.002 C 
ATOM     21  C   UNL     1      38.820 -24.008 -14.221  0.00  0.00    -0.002 C 
ATOM     22  C   UNL     1      38.013 -25.790 -12.073  0.00  0.00    -0.080 C 
ATOM     23  C   UNL     1      39.802 -24.661 -13.249  0.00  0.00    -0.080 C 
ATOM     24  H   UNL     1      39.176 -26.577 -13.550  0.00  0.00    -0.085 HD
ATOM     25  H   UNL     1      39.972 -26.321 -12.093  0.00  0.00    -0.085 HD
ENDBRANCH   1  19
BRANCH   5  27
ATOM     26  N   UNL     1      30.361 -22.321 -15.416  0.00  0.00    -0.242 NA
ATOM     27  C   UNL     1      33.138 -22.560 -15.291  0.00  0.00    +0.022 C 
ATOM     28  C   UNL     1      32.420 -22.219 -14.153  0.00  0.00    +0.022 C 
ATOM     29  C   UNL     1      32.477 -22.783 -16.491  0.00  0.00    +0.022 C 
ATOM     30  C   UNL     1      31.043 -22.113 -14.267  0.00  0.00    +0.099 C 
ATOM     31  C   UNL     1      31.098 -22.652 -16.500  0.00  0.00    +0.099 C 
ENDBRANCH   5  27
TORSDOF 5
ENDMDL
MODEL 8
REMARK VINA RESULT:      -9.5      9.535     14.519
REMARK  Name = 11653652
REMARK  5 active torsions:
REMARK  status: ('A' for Active; 'I' for Inactive)
REMARK    1  A    between atoms: N_1  and  C_19
REMARK    2  A    between atoms: C_4  and  C_7
REMARK    3  A    between atoms: C_5  and  C_27
REMARK    4  A    between atoms: N_6  and  C_13
REMARK    5  A    between atoms: N_6  and  O_16
REMARK                            x       y       z     vdW  Elec       q    Type
REMARK                         _______ _______ _______ _____ _____    ______ ____
ROOT
ATOM      1  N   UNL     1      32.706  -9.114 -21.919  0.00  0.00    -0.212 N 
ATOM      2  N   UNL     1      33.195  -8.888 -23.150  0.00  0.00    -0.178 NA
ATOM      3  C   UNL     1      32.907 -10.387 -21.470  0.00  0.00    +0.085 C 
ATOM      4  C   UNL     1      33.573 -11.034 -22.479  0.00  0.00    +0.032 C 
ATOM      5  C   UNL     1      33.724 -10.067 -23.488  0.00  0.00    +0.100 C 
ENDROOT
BRANCH   4   6
ATOM      6  C   UNL     1      33.979 -12.410 -22.403  0.00  0.00    -0.015 C 
ATOM      7  C   UNL     1      34.661 -14.306 -21.112  0.00  0.00    -0.016 C 
ATOM      8  C   UNL     1      35.020 -15.105 -19.898  0.00  0.00    -0.002 C 
ATOM      9  C   UNL     1      34.750 -15.041 -22.290  0.00  0.00    +0.016 C 
ATOM     10  C   UNL     1      35.364 -16.497 -20.452  0.00  0.00    +0.021 C 
ATOM     11  C   UNL     1      34.271 -12.978 -21.159  0.00  0.00    +0.053 C 
ATOM     12  C   UNL     1      35.175 -16.381 -21.942  0.00  0.00    +0.107 C 
ATOM     13  C   UNL     1      34.076 -13.170 -23.581  0.00  0.00    -0.004 C 
ATOM     14  C   UNL     1      34.467 -14.508 -23.533  0.00  0.00    +0.001 C 
BRANCH  12  15
ATOM     15  N   UNL     1      35.376 -17.365 -22.749  0.00  0.00    -0.135 NA
BRANCH  15  16
ATOM     16  O   UNL     1      34.889 -18.531 -22.153  0.00  0.00    -0.265 OA
ATOM     17  H   UNL     1      34.044 -18.860 -22.389  0.00  0.00    +0.247 HD
ENDBRANCH  15  16
ENDBRANCH  12  15
ENDBRANCH   4   6
BRANCH   1  19
ATOM     18  N   UNL     1      31.895  -5.363 -20.011  0.00  0.00    +0.384 N 
ATOM     19  C   UNL     1      32.032  -8.032 -21.194  0.00  0.00    +0.092 C 
ATOM     20  C   UNL     1      32.720  -7.690 -19.863  0.00  0.00    -0.002 C 
ATOM     21  C   UNL     1      31.855  -6.767 -22.048  0.00  0.00    -0.002 C 
ATOM     22  C   UNL     1      31.999  -6.545 -19.154  0.00  0.00    -0.080 C 
ATOM     23  C   UNL     1      31.169  -5.660 -21.248  0.00  0.00    -0.080 C 
ATOM     24  H   UNL     1      32.834  -5.041 -20.247  0.00  0.00    -0.085 HD
ATOM     25  H   UNL     1      31.381  -4.644 -19.504  0.00  0.00    -0.085 HD
ENDBRANCH   1  19
BRANCH   5  27
ATOM     26  N   UNL     1      35.595 -10.555 -27.251  0.00  0.00    -0.242 NA
ATOM     27  C   UNL     1      34.361 -10.233 -24.769  0.00  0.00    +0.022 C 
ATOM     28  C   UNL     1      33.853 -11.147 -25.682  0.00  0.00    +0.022 C 
ATOM     29  C   UNL     1      35.483  -9.480 -25.088  0.00  0.00    +0.022 C 
ATOM     30  C   UNL     1      34.501 -11.270 -26.900  0.00  0.00    +0.099 C 
ATOM     31  C   UNL     1      36.058  -9.677 -26.333  0.00  0.00    +0.099 C 
ENDBRANCH   5  27
TORSDOF 5
ENDMDL
MODEL 9
REMARK VINA RESULT:      -9.4     12.005     15.809
REMARK  Name = 11653652
REMARK  5 active torsions:
REMARK  status: ('A' for Active; 'I' for Inactive)
REMARK    1  A    between atoms: N_1  and  C_19
REMARK    2  A    between atoms: C_4  and  C_7
REMARK    3  A    between atoms: C_5  and  C_27
REMARK    4  A    between atoms: N_6  and  C_13
REMARK    5  A    between atoms: N_6  and  O_16
REMARK                            x       y       z     vdW  Elec       q    Type
REMARK                         _______ _______ _______ _____ _____    ______ ____
ROOT
ATOM      1  N   UNL     1      32.736  -6.836 -22.975  0.00  0.00    -0.212 N 
ATOM      2  N   UNL     1      32.244  -7.201 -21.780  0.00  0.00    -0.178 NA
ATOM      3  C   UNL     1      33.209  -7.878 -23.719  0.00  0.00    +0.085 C 
ATOM      4  C   UNL     1      33.011  -8.998 -22.955  0.00  0.00    +0.032 C 
ATOM      5  C   UNL     1      32.415  -8.526 -21.773  0.00  0.00    +0.100 C 
ENDROOT
BRANCH   4   6
ATOM      6  C   UNL     1      33.376 -10.321 -23.381  0.00  0.00    -0.015 C 
ATOM      7  C   UNL     1      33.978 -12.578 -22.862  0.00  0.00    -0.016 C 
ATOM      8  C   UNL     1      34.289 -13.775 -22.018  0.00  0.00    -0.002 C 
ATOM      9  C   UNL     1      34.072 -12.838 -24.225  0.00  0.00    +0.016 C 
ATOM     10  C   UNL     1      34.606 -14.882 -23.037  0.00  0.00    +0.021 C 
ATOM     11  C   UNL     1      33.627 -11.311 -22.426  0.00  0.00    +0.053 C 
ATOM     12  C   UNL     1      34.451 -14.226 -24.384  0.00  0.00    +0.107 C 
ATOM     13  C   UNL     1      33.477 -10.604 -24.754  0.00  0.00    -0.004 C 
ATOM     14  C   UNL     1      33.830 -11.880 -25.192  0.00  0.00    +0.001 C 
BRANCH  12  15
ATOM     15  N   UNL     1      34.642 -14.855 -25.491  0.00  0.00    -0.135 NA
BRANCH  15  16
ATOM     16  O   UNL     1      33.466 -15.534 -25.822  0.00  0.00    -0.265 OA
ATOM     17  H   UNL     1      33.218 -15.631 -26.720  0.00  0.00    +0.247 HD
ENDBRANCH  15  16
ENDBRANCH  12  15
ENDBRANCH   4   6
BRANCH   1  19
ATOM     18  N   UNL     1      31.405  -2.900 -24.027  0.00  0.00    +0.384 N 
ATOM     19  C   UNL     1      32.725  -5.422 -23.365  0.00  0.00    +0.092 C 
ATOM     20  C   UNL     1      32.044  -5.186 -24.723  0.00  0.00    -0.002 C 
ATOM     21  C   UNL     1      32.109  -4.515 -22.289  0.00  0.00    -0.002 C 
ATOM     22  C   UNL     1      32.034  -3.700 -25.078  0.00  0.00    -0.080 C 
ATOM     23  C   UNL     1      32.097  -3.056 -22.746  0.00  0.00    -0.080 C 
ATOM     24  H   UNL     1      30.436  -3.200 -23.918  0.00  0.00    -0.085 HD
ATOM     25  H   UNL     1      31.454  -1.919 -24.298  0.00  0.00    -0.085 HD
ENDBRANCH   1  19
BRANCH   5  27
ATOM     26  N   UNL     1      31.201 -10.806 -18.422  0.00  0.00    -0.242 NA
ATOM     27  C   UNL     1      32.002  -9.303 -20.632  0.00  0.00    +0.022 C 
ATOM     28  C   UNL     1      32.538  -9.035 -19.381  0.00  0.00    +0.022 C 
ATOM     29  C   UNL     1      31.067 -10.318 -20.786  0.00  0.00    +0.022 C 
ATOM     30  C   UNL     1      32.108  -9.809 -18.315  0.00  0.00    +0.099 C 
ATOM     31  C   UNL     1      30.703 -11.035 -19.658  0.00  0.00    +0.099 C 
ENDBRANCH   5  27
TORSDOF 5
ENDMDL
