MODEL 1
REMARK VINA RESULT:     -12.1      0.000      0.000
REMARK  Name = 135565465
REMARK  7 active torsions:
REMARK  status: ('A' for Active; 'I' for Inactive)
REMARK    1  A    between atoms: N_2  and  C_9
REMARK    2  A    between atoms: N_2  and  O_21
REMARK    3  A    between atoms: C_3  and  C_23
REMARK    4  A    between atoms: C_10  and  C_14
REMARK    5  A    between atoms: C_23  and  C_24
REMARK    6  A    between atoms: C_24  and  C_25
REMARK    7  A    between atoms: C_25  and  N_27
REMARK                            x       y       z     vdW  Elec       q    Type
REMARK                         _______ _______ _______ _____ _____    ______ ____
ROOT
ATOM      1  O   UNL     1      36.256 -21.807 -16.986  0.00  0.00    -0.453 OA
ATOM      2  C   UNL     1      35.108 -19.627 -20.330  0.00  0.00    -0.040 C 
ATOM      3  C   UNL     1      34.119 -20.260 -19.571  0.00  0.00    +0.053 C 
ATOM      4  C   UNL     1      34.473 -21.002 -18.438  0.00  0.00    +0.036 C 
ATOM      5  C   UNL     1      36.448 -19.730 -19.964  0.00  0.00    -0.005 C 
ATOM      6  C   UNL     1      35.820 -21.101 -18.079  0.00  0.00    +0.143 C 
ATOM      7  C   UNL     1      36.806 -20.467 -18.839  0.00  0.00    +0.037 C 
ATOM      8  C   UNL     1      33.469 -21.691 -17.597  0.00  0.00    +0.110 C 
ATOM      9  C   UNL     1      35.321 -22.463 -16.205  0.00  0.00    +0.160 C 
ATOM     10  C   UNL     1      34.000 -22.442 -16.436  0.00  0.00    +0.060 C 
ENDROOT
BRANCH   9  13
ATOM     11  S   UNL     1      37.428 -22.675 -11.379  0.00  0.00    -0.091 S 
ATOM     12  N   UNL     1      35.991 -24.525 -15.196  0.00  0.00    -0.266 NA
ATOM     13  C   UNL     1      35.899 -23.189 -15.056  0.00  0.00    +0.093 C 
ATOM     14  C   UNL     1      36.302 -22.481 -13.938  0.00  0.00    +0.081 C 
ATOM     15  C   UNL     1      36.839 -23.245 -12.895  0.00  0.00    +0.011 C 
ATOM     16  C   UNL     1      36.953 -24.634 -12.997  0.00  0.00    +0.005 C 
ATOM     17  C   UNL     1      36.512 -25.249 -14.179  0.00  0.00    +0.152 C 
ATOM     18  C   UNL     1      37.529 -25.196 -11.810  0.00  0.00    +0.005 C 
ATOM     19  C   UNL     1      37.831 -24.248 -10.861  0.00  0.00    +0.035 C 
ENDBRANCH   9  13
BRANCH   8  20
ATOM     20  N   UNL     1      32.192 -21.676 -17.807  0.00  0.00    -0.135 NA
BRANCH  20  21
ATOM     21  O   UNL     1      31.550 -22.030 -16.620  0.00  0.00    -0.265 OA
ATOM     22  H   UNL     1      30.615 -22.076 -16.589  0.00  0.00    +0.247 HD
ENDBRANCH  20  21
ENDBRANCH   8  20
BRANCH   2  23
ATOM     23  C   UNL     1      34.724 -18.838 -21.536  0.00  0.00    +0.020 C 
BRANCH  23  24
ATOM     24  C   UNL     1      35.121 -17.359 -21.414  0.00  0.00    -0.018 C 
BRANCH  24  25
ATOM     25  C   UNL     1      36.093 -16.943 -22.518  0.00  0.00    -0.077 C 
BRANCH  25  27
ATOM     26  O   UNL     1      33.466 -14.063 -24.072  0.00  0.00    -0.358 OA
ATOM     27  N   UNL     1      35.576 -15.782 -23.239  0.00  0.00    +0.390 N 
ATOM     28  C   UNL     1      34.609 -16.194 -24.266  0.00  0.00    -0.045 C 
ATOM     29  C   UNL     1      34.950 -14.829 -22.313  0.00  0.00    -0.045 C 
ATOM     30  C   UNL     1      34.407 -13.633 -23.088  0.00  0.00    +0.119 C 
ATOM     31  C   UNL     1      34.075 -14.965 -24.996  0.00  0.00    +0.119 C 
ATOM     32  H   UNL     1      36.363 -15.323 -23.697  0.00  0.00    -0.079 HD
ENDBRANCH  25  27
ENDBRANCH  24  25
ENDBRANCH  23  24
ENDBRANCH   2  23
TORSDOF 7
ENDMDL
MODEL 2
REMARK VINA RESULT:     -11.5      4.670      8.505
REMARK  Name = 135565465
REMARK  7 active torsions:
REMARK  status: ('A' for Active; 'I' for Inactive)
REMARK    1  A    between atoms: N_2  and  C_9
REMARK    2  A    between atoms: N_2  and  O_21
REMARK    3  A    between atoms: C_3  and  C_23
REMARK    4  A    between atoms: C_10  and  C_14
REMARK    5  A    between atoms: C_23  and  C_24
REMARK    6  A    between atoms: C_24  and  C_25
REMARK    7  A    between atoms: C_25  and  N_27
REMARK                            x       y       z     vdW  Elec       q    Type
REMARK                         _______ _______ _______ _____ _____    ______ ____
ROOT
ATOM      1  O   UNL     1      35.012 -15.429 -21.405  0.00  0.00    -0.453 OA
ATOM      2  C   UNL     1      34.050 -11.932 -23.431  0.00  0.00    -0.040 C 
ATOM      3  C   UNL     1      34.135 -13.125 -24.156  0.00  0.00    +0.053 C 
ATOM      4  C   UNL     1      34.456 -14.320 -23.503  0.00  0.00    +0.036 C 
ATOM      5  C   UNL     1      34.284 -11.926 -22.058  0.00  0.00    -0.005 C 
ATOM      6  C   UNL     1      34.691 -14.306 -22.124  0.00  0.00    +0.143 C 
ATOM      7  C   UNL     1      34.605 -13.112 -21.403  0.00  0.00    +0.037 C 
ATOM      8  C   UNL     1      34.558 -15.611 -24.218  0.00  0.00    +0.110 C 
ATOM      9  C   UNL     1      35.120 -16.635 -22.074  0.00  0.00    +0.160 C 
ATOM     10  C   UNL     1      34.914 -16.787 -23.391  0.00  0.00    +0.060 C 
ENDROOT
BRANCH   9  13
ATOM     11  S   UNL     1      33.878 -20.807 -19.103  0.00  0.00    -0.091 S 
ATOM     12  N   UNL     1      36.781 -17.950 -20.965  0.00  0.00    -0.266 NA
ATOM     13  C   UNL     1      35.467 -17.776 -21.203  0.00  0.00    +0.093 C 
ATOM     14  C   UNL     1      34.459 -18.577 -20.698  0.00  0.00    +0.081 C 
ATOM     15  C   UNL     1      34.874 -19.636 -19.882  0.00  0.00    +0.011 C 
ATOM     16  C   UNL     1      36.227 -19.854 -19.608  0.00  0.00    +0.005 C 
ATOM     17  C   UNL     1      37.166 -18.978 -20.175  0.00  0.00    +0.152 C 
ATOM     18  C   UNL     1      36.407 -20.992 -18.753  0.00  0.00    +0.005 C 
ATOM     19  C   UNL     1      35.221 -21.595 -18.408  0.00  0.00    +0.035 C 
ENDBRANCH   9  13
BRANCH   8  20
ATOM     20  N   UNL     1      34.358 -15.772 -25.487  0.00  0.00    -0.135 NA
BRANCH  20  21
ATOM     21  O   UNL     1      33.005 -16.049 -25.685  0.00  0.00    -0.265 OA
ATOM     22  H   UNL     1      32.715 -16.935 -25.762  0.00  0.00    +0.247 HD
ENDBRANCH  20  21
ENDBRANCH   8  20
BRANCH   2  23
ATOM     23  C   UNL     1      33.707 -10.661 -24.133  0.00  0.00    +0.020 C 
BRANCH  23  24
ATOM     24  C   UNL     1      33.914  -9.429 -23.238  0.00  0.00    -0.018 C 
BRANCH  24  25
ATOM     25  C   UNL     1      32.664  -8.551 -23.192  0.00  0.00    -0.077 C 
BRANCH  25  27
ATOM     26  O   UNL     1      33.065  -7.937 -19.059  0.00  0.00    -0.358 OA
ATOM     27  N   UNL     1      32.412  -8.100 -21.825  0.00  0.00    +0.390 N 
ATOM     28  C   UNL     1      32.227  -9.245 -20.923  0.00  0.00    -0.045 C 
ATOM     29  C   UNL     1      33.511  -7.252 -21.344  0.00  0.00    -0.045 C 
ATOM     30  C   UNL     1      33.232  -6.804 -19.912  0.00  0.00    +0.119 C 
ATOM     31  C   UNL     1      31.977  -8.749 -19.502  0.00  0.00    +0.119 C 
ATOM     32  H   UNL     1      31.554  -7.548 -21.832  0.00  0.00    -0.079 HD
ENDBRANCH  25  27
ENDBRANCH  24  25
ENDBRANCH  23  24
ENDBRANCH   2  23
TORSDOF 7
ENDMDL
MODEL 3
REMARK VINA RESULT:     -11.4      4.390     12.131
REMARK  Name = 135565465
REMARK  7 active torsions:
REMARK  status: ('A' for Active; 'I' for Inactive)
REMARK    1  A    between atoms: N_2  and  C_9
REMARK    2  A    between atoms: N_2  and  O_21
REMARK    3  A    between atoms: C_3  and  C_23
REMARK    4  A    between atoms: C_10  and  C_14
REMARK    5  A    between atoms: C_23  and  C_24
REMARK    6  A    between atoms: C_24  and  C_25
REMARK    7  A    between atoms: C_25  and  N_27
REMARK                            x       y       z     vdW  Elec       q    Type
REMARK                         _______ _______ _______ _____ _____    ______ ____
ROOT
ATOM      1  O   UNL     1      34.449 -13.335 -21.937  0.00  0.00    -0.453 OA
ATOM      2  C   UNL     1      35.471 -17.322 -21.373  0.00  0.00    -0.040 C 
ATOM      3  C   UNL     1      35.191 -16.879 -22.669  0.00  0.00    +0.053 C 
ATOM      4  C   UNL     1      34.844 -15.542 -22.893  0.00  0.00    +0.036 C 
ATOM      5  C   UNL     1      35.407 -16.438 -20.299  0.00  0.00    -0.005 C 
ATOM      6  C   UNL     1      34.781 -14.661 -21.809  0.00  0.00    +0.143 C 
ATOM      7  C   UNL     1      35.062 -15.106 -20.516  0.00  0.00    +0.037 C 
ATOM      8  C   UNL     1      34.539 -15.018 -24.242  0.00  0.00    +0.110 C 
ATOM      9  C   UNL     1      34.151 -12.846 -23.196  0.00  0.00    +0.160 C 
ATOM     10  C   UNL     1      34.181 -13.582 -24.317  0.00  0.00    +0.060 C 
ENDROOT
BRANCH   9  13
ATOM     11  S   UNL     1      31.982  -8.515 -21.118  0.00  0.00    -0.091 S 
ATOM     12  N   UNL     1      34.220 -10.727 -24.304  0.00  0.00    -0.266 NA
ATOM     13  C   UNL     1      33.810 -11.409 -23.217  0.00  0.00    +0.093 C 
ATOM     14  C   UNL     1      33.111 -10.861 -22.157  0.00  0.00    +0.081 C 
ATOM     15  C   UNL     1      32.828  -9.493 -22.257  0.00  0.00    +0.011 C 
ATOM     16  C   UNL     1      33.235  -8.747 -23.367  0.00  0.00    +0.005 C 
ATOM     17  C   UNL     1      33.940  -9.407 -24.385  0.00  0.00    +0.152 C 
ATOM     18  C   UNL     1      32.833  -7.375 -23.245  0.00  0.00    +0.005 C 
ATOM     19  C   UNL     1      32.150  -7.118 -22.080  0.00  0.00    +0.035 C 
ENDBRANCH   9  13
BRANCH   8  20
ATOM     20  N   UNL     1      34.567 -15.717 -25.332  0.00  0.00    -0.135 NA
BRANCH  20  21
ATOM     21  O   UNL     1      33.259 -15.852 -25.798  0.00  0.00    -0.265 OA
ATOM     22  H   UNL     1      32.736 -15.090 -25.952  0.00  0.00    +0.247 HD
ENDBRANCH  20  21
ENDBRANCH   8  20
BRANCH   2  23
ATOM     23  C   UNL     1      35.840 -18.749 -21.141  0.00  0.00    +0.020 C 
BRANCH  23  24
ATOM     24  C   UNL     1      36.705 -18.928 -19.884  0.00  0.00    -0.018 C 
BRANCH  24  25
ATOM     25  C   UNL     1      36.864 -20.403 -19.516  0.00  0.00    -0.077 C 
BRANCH  25  27
ATOM     26  O   UNL     1      34.917 -22.561 -16.488  0.00  0.00    -0.358 OA
ATOM     27  N   UNL     1      36.036 -20.728 -18.357  0.00  0.00    +0.390 N 
ATOM     28  C   UNL     1      34.946 -21.640 -18.732  0.00  0.00    -0.045 C 
ATOM     29  C   UNL     1      36.847 -21.327 -17.288  0.00  0.00    -0.045 C 
ATOM     30  C   UNL     1      35.960 -21.669 -16.094  0.00  0.00    +0.119 C 
ATOM     31  C   UNL     1      34.104 -21.974 -17.505  0.00  0.00    +0.119 C 
ATOM     32  H   UNL     1      35.629 -19.860 -18.010  0.00  0.00    -0.079 HD
ENDBRANCH  25  27
ENDBRANCH  24  25
ENDBRANCH  23  24
ENDBRANCH   2  23
TORSDOF 7
ENDMDL
MODEL 4
REMARK VINA RESULT:     -11.2      3.012      4.114
REMARK  Name = 135565465
REMARK  7 active torsions:
REMARK  status: ('A' for Active; 'I' for Inactive)
REMARK    1  A    between atoms: N_2  and  C_9
REMARK    2  A    between atoms: N_2  and  O_21
REMARK    3  A    between atoms: C_3  and  C_23
REMARK    4  A    between atoms: C_10  and  C_14
REMARK    5  A    between atoms: C_23  and  C_24
REMARK    6  A    between atoms: C_24  and  C_25
REMARK    7  A    between atoms: C_25  and  N_27
REMARK                            x       y       z     vdW  Elec       q    Type
REMARK                         _______ _______ _______ _____ _____    ______ ____
ROOT
ATOM      1  O   UNL     1      33.134 -21.361 -17.983  0.00  0.00    -0.453 OA
ATOM      2  C   UNL     1      35.344 -19.237 -20.786  0.00  0.00    -0.040 C 
ATOM      3  C   UNL     1      36.018 -19.843 -19.721  0.00  0.00    +0.053 C 
ATOM      4  C   UNL     1      35.302 -20.566 -18.760  0.00  0.00    +0.036 C 
ATOM      5  C   UNL     1      33.960 -19.349 -20.897  0.00  0.00    -0.005 C 
ATOM      6  C   UNL     1      33.914 -20.673 -18.878  0.00  0.00    +0.143 C 
ATOM      7  C   UNL     1      33.243 -20.067 -19.944  0.00  0.00    +0.037 C 
ATOM      8  C   UNL     1      35.963 -21.229 -17.614  0.00  0.00    +0.110 C 
ATOM      9  C   UNL     1      33.748 -21.971 -16.903  0.00  0.00    +0.160 C 
ATOM     10  C   UNL     1      35.070 -21.950 -16.678  0.00  0.00    +0.060 C 
ENDROOT
BRANCH   9  13
ATOM     11  S   UNL     1      28.946 -23.619 -15.488  0.00  0.00    -0.091 S 
ATOM     12  N   UNL     1      33.376 -23.273 -14.931  0.00  0.00    -0.266 NA
ATOM     13  C   UNL     1      32.816 -22.684 -16.005  0.00  0.00    +0.093 C 
ATOM     14  C   UNL     1      31.467 -22.707 -16.306  0.00  0.00    +0.081 C 
ATOM     15  C   UNL     1      30.654 -23.403 -15.404  0.00  0.00    +0.011 C 
ATOM     16  C   UNL     1      31.192 -24.030 -14.276  0.00  0.00    +0.005 C 
ATOM     17  C   UNL     1      32.578 -23.942 -14.070  0.00  0.00    +0.152 C 
ATOM     18  C   UNL     1      30.171 -24.676 -13.505  0.00  0.00    +0.005 C 
ATOM     19  C   UNL     1      28.916 -24.531 -14.048  0.00  0.00    +0.035 C 
ENDBRANCH   9  13
BRANCH   8  20
ATOM     20  N   UNL     1      37.238 -21.219 -17.387  0.00  0.00    -0.135 NA
BRANCH  20  21
ATOM     21  O   UNL     1      37.514 -20.184 -16.493  0.00  0.00    -0.265 OA
ATOM     22  H   UNL     1      37.604 -19.306 -16.805  0.00  0.00    +0.247 HD
ENDBRANCH  20  21
ENDBRANCH   8  20
BRANCH   2  23
ATOM     23  C   UNL     1      36.112 -18.468 -21.808  0.00  0.00    +0.020 C 
BRANCH  23  24
ATOM     24  C   UNL     1      35.247 -17.412 -22.513  0.00  0.00    -0.018 C 
BRANCH  24  25
ATOM     25  C   UNL     1      35.653 -15.994 -22.116  0.00  0.00    -0.077 C 
BRANCH  25  27
ATOM     26  O   UNL     1      33.225 -13.702 -24.659  0.00  0.00    -0.358 OA
ATOM     27  N   UNL     1      35.223 -15.039 -23.135  0.00  0.00    +0.390 N 
ATOM     28  C   UNL     1      34.495 -15.720 -24.215  0.00  0.00    -0.045 C 
ATOM     29  C   UNL     1      34.381 -13.990 -22.545  0.00  0.00    -0.045 C 
ATOM     30  C   UNL     1      33.934 -13.013 -23.629  0.00  0.00    +0.119 C 
ATOM     31  C   UNL     1      34.047 -14.702 -25.260  0.00  0.00    +0.119 C 
ATOM     32  H   UNL     1      36.058 -14.604 -23.528  0.00  0.00    -0.079 HD
ENDBRANCH  25  27
ENDBRANCH  24  25
ENDBRANCH  23  24
ENDBRANCH   2  23
TORSDOF 7
ENDMDL
MODEL 5
REMARK VINA RESULT:     -11.1      1.324      1.762
REMARK  Name = 135565465
REMARK  7 active torsions:
REMARK  status: ('A' for Active; 'I' for Inactive)
REMARK    1  A    between atoms: N_2  and  C_9
REMARK    2  A    between atoms: N_2  and  O_21
REMARK    3  A    between atoms: C_3  and  C_23
REMARK    4  A    between atoms: C_10  and  C_14
REMARK    5  A    between atoms: C_23  and  C_24
REMARK    6  A    between atoms: C_24  and  C_25
REMARK    7  A    between atoms: C_25  and  N_27
REMARK                            x       y       z     vdW  Elec       q    Type
REMARK                         _______ _______ _______ _____ _____    ______ ____
ROOT
ATOM      1  O   UNL     1      36.668 -20.711 -17.737  0.00  0.00    -0.453 OA
ATOM      2  C   UNL     1      35.359 -18.841 -21.208  0.00  0.00    -0.040 C 
ATOM      3  C   UNL     1      34.452 -19.621 -20.484  0.00  0.00    +0.053 C 
ATOM      4  C   UNL     1      34.861 -20.264 -19.310  0.00  0.00    +0.036 C 
ATOM      5  C   UNL     1      36.672 -18.699 -20.767  0.00  0.00    -0.005 C 
ATOM      6  C   UNL     1      36.181 -20.117 -18.874  0.00  0.00    +0.143 C 
ATOM      7  C   UNL     1      37.085 -19.337 -19.600  0.00  0.00    +0.037 C 
ATOM      8  C   UNL     1      33.944 -21.099 -18.504  0.00  0.00    +0.110 C 
ATOM      9  C   UNL     1      35.816 -21.503 -16.988  0.00  0.00    +0.160 C 
ATOM     10  C   UNL     1      34.527 -21.719 -17.291  0.00  0.00    +0.060 C 
ENDROOT
BRANCH   9  13
ATOM     11  S   UNL     1      35.672 -23.298 -12.035  0.00  0.00    -0.091 S 
ATOM     12  N   UNL     1      37.759 -22.355 -15.884  0.00  0.00    -0.266 NA
ATOM     13  C   UNL     1      36.442 -22.090 -15.786  0.00  0.00    +0.093 C 
ATOM     14  C   UNL     1      35.669 -22.327 -14.664  0.00  0.00    +0.081 C 
ATOM     15  C   UNL     1      36.339 -22.885 -13.569  0.00  0.00    +0.011 C 
ATOM     16  C   UNL     1      37.706 -23.176 -13.626  0.00  0.00    +0.005 C 
ATOM     17  C   UNL     1      38.392 -22.894 -14.818  0.00  0.00    +0.152 C 
ATOM     18  C   UNL     1      38.168 -23.737 -12.390  0.00  0.00    +0.005 C 
ATOM     19  C   UNL     1      37.173 -23.857 -11.450  0.00  0.00    +0.035 C 
ENDBRANCH   9  13
BRANCH   8  20
ATOM     20  N   UNL     1      32.699 -21.313 -18.784  0.00  0.00    -0.135 NA
BRANCH  20  21
ATOM     21  O   UNL     1      32.055 -21.731 -17.618  0.00  0.00    -0.265 OA
ATOM     22  H   UNL     1      31.996 -21.154 -16.883  0.00  0.00    +0.247 HD
ENDBRANCH  20  21
ENDBRANCH   8  20
BRANCH   2  23
ATOM     23  C   UNL     1      34.917 -18.159 -22.459  0.00  0.00    +0.020 C 
BRANCH  23  24
ATOM     24  C   UNL     1      35.706 -16.869 -22.727  0.00  0.00    -0.018 C 
BRANCH  24  25
ATOM     25  C   UNL     1      35.310 -15.754 -21.760  0.00  0.00    -0.077 C 
BRANCH  25  27
ATOM     26  O   UNL     1      33.894 -12.568 -24.096  0.00  0.00    -0.358 OA
ATOM     27  N   UNL     1      34.411 -14.808 -22.417  0.00  0.00    +0.390 N 
ATOM     28  C   UNL     1      34.684 -13.433 -21.973  0.00  0.00    -0.045 C 
ATOM     29  C   UNL     1      34.537 -14.897 -23.878  0.00  0.00    -0.045 C 
ATOM     30  C   UNL     1      33.600 -13.892 -24.542  0.00  0.00    +0.119 C 
ATOM     31  C   UNL     1      33.743 -12.464 -22.681  0.00  0.00    +0.119 C 
ATOM     32  H   UNL     1      33.456 -15.051 -22.156  0.00  0.00    -0.079 HD
ENDBRANCH  25  27
ENDBRANCH  24  25
ENDBRANCH  23  24
ENDBRANCH   2  23
TORSDOF 7
ENDMDL
MODEL 6
REMARK VINA RESULT:     -10.9      3.363     10.407
REMARK  Name = 135565465
REMARK  7 active torsions:
REMARK  status: ('A' for Active; 'I' for Inactive)
REMARK    1  A    between atoms: N_2  and  C_9
REMARK    2  A    between atoms: N_2  and  O_21
REMARK    3  A    between atoms: C_3  and  C_23
REMARK    4  A    between atoms: C_10  and  C_14
REMARK    5  A    between atoms: C_23  and  C_24
REMARK    6  A    between atoms: C_24  and  C_25
REMARK    7  A    between atoms: C_25  and  N_27
REMARK                            x       y       z     vdW  Elec       q    Type
REMARK                         _______ _______ _______ _____ _____    ______ ____
ROOT
ATOM      1  O   UNL     1      36.096 -19.796 -18.835  0.00  0.00    -0.453 OA
ATOM      2  C   UNL     1      36.324 -22.527 -15.713  0.00  0.00    -0.040 C 
ATOM      3  C   UNL     1      35.144 -22.460 -16.460  0.00  0.00    +0.053 C 
ATOM      4  C   UNL     1      35.036 -21.552 -17.519  0.00  0.00    +0.036 C 
ATOM      5  C   UNL     1      37.397 -21.691 -16.017  0.00  0.00    -0.005 C 
ATOM      6  C   UNL     1      36.116 -20.716 -17.817  0.00  0.00    +0.143 C 
ATOM      7  C   UNL     1      37.294 -20.785 -17.069  0.00  0.00    +0.037 C 
ATOM      8  C   UNL     1      33.813 -21.439 -18.343  0.00  0.00    +0.110 C 
ATOM      9  C   UNL     1      34.948 -19.680 -19.600  0.00  0.00    +0.160 C 
ATOM     10  C   UNL     1      33.847 -20.426 -19.423  0.00  0.00    +0.060 C 
ENDROOT
BRANCH   9  13
ATOM     11  S   UNL     1      34.062 -17.938 -24.494  0.00  0.00    -0.091 S 
ATOM     12  N   UNL     1      35.659 -17.517 -20.331  0.00  0.00    -0.266 NA
ATOM     13  C   UNL     1      35.037 -18.663 -20.667  0.00  0.00    +0.093 C 
ATOM     14  C   UNL     1      34.496 -18.935 -21.910  0.00  0.00    +0.081 C 
ATOM     15  C   UNL     1      34.623 -17.918 -22.865  0.00  0.00    +0.011 C 
ATOM     16  C   UNL     1      35.261 -16.712 -22.560  0.00  0.00    +0.005 C 
ATOM     17  C   UNL     1      35.774 -16.545 -21.264  0.00  0.00    +0.152 C 
ATOM     18  C   UNL     1      35.270 -15.829 -23.690  0.00  0.00    +0.005 C 
ATOM     19  C   UNL     1      34.656 -16.369 -24.796  0.00  0.00    +0.035 C 
ENDBRANCH   9  13
BRANCH   8  20
ATOM     20  N   UNL     1      32.745 -22.154 -18.185  0.00  0.00    -0.135 NA
BRANCH  20  21
ATOM     21  O   UNL     1      31.969 -21.565 -17.185  0.00  0.00    -0.265 OA
ATOM     22  H   UNL     1      31.540 -20.748 -17.346  0.00  0.00    +0.247 HD
ENDBRANCH  20  21
ENDBRANCH   8  20
BRANCH   2  23
ATOM     23  C   UNL     1      36.435 -23.498 -14.586  0.00  0.00    +0.020 C 
BRANCH  23  24
ATOM     24  C   UNL     1      37.785 -24.231 -14.580  0.00  0.00    -0.018 C 
BRANCH  24  25
ATOM     25  C   UNL     1      38.429 -24.212 -13.194  0.00  0.00    -0.077 C 
BRANCH  25  27
ATOM     26  O   UNL     1      36.548 -23.407  -9.529  0.00  0.00    -0.358 OA
ATOM     27  N   UNL     1      37.483 -23.708 -12.201  0.00  0.00    +0.390 N 
ATOM     28  C   UNL     1      36.840 -24.816 -11.481  0.00  0.00    -0.045 C 
ATOM     29  C   UNL     1      38.152 -22.812 -11.249  0.00  0.00    -0.045 C 
ATOM     30  C   UNL     1      37.149 -22.308 -10.216  0.00  0.00    +0.119 C 
ATOM     31  C   UNL     1      35.867 -24.265 -10.444  0.00  0.00    +0.119 C 
ATOM     32  H   UNL     1      36.763 -23.180 -12.695  0.00  0.00    -0.079 HD
ENDBRANCH  25  27
ENDBRANCH  24  25
ENDBRANCH  23  24
ENDBRANCH   2  23
TORSDOF 7
ENDMDL
MODEL 7
REMARK VINA RESULT:     -10.5      4.975     12.309
REMARK  Name = 135565465
REMARK  7 active torsions:
REMARK  status: ('A' for Active; 'I' for Inactive)
REMARK    1  A    between atoms: N_2  and  C_9
REMARK    2  A    between atoms: N_2  and  O_21
REMARK    3  A    between atoms: C_3  and  C_23
REMARK    4  A    between atoms: C_10  and  C_14
REMARK    5  A    between atoms: C_23  and  C_24
REMARK    6  A    between atoms: C_24  and  C_25
REMARK    7  A    between atoms: C_25  and  N_27
REMARK                            x       y       z     vdW  Elec       q    Type
REMARK                         _______ _______ _______ _____ _____    ______ ____
ROOT
ATOM      1  O   UNL     1      34.040 -12.900 -21.493  0.00  0.00    -0.453 OA
ATOM      2  C   UNL     1      35.549 -16.770 -21.521  0.00  0.00    -0.040 C 
ATOM      3  C   UNL     1      35.185 -16.184 -22.737  0.00  0.00    +0.053 C 
ATOM      4  C   UNL     1      34.674 -14.881 -22.762  0.00  0.00    +0.036 C 
ATOM      5  C   UNL     1      35.405 -16.063 -20.330  0.00  0.00    -0.005 C 
ATOM      6  C   UNL     1      34.532 -14.179 -21.562  0.00  0.00    +0.143 C 
ATOM      7  C   UNL     1      34.897 -14.767 -20.348  0.00  0.00    +0.037 C 
ATOM      8  C   UNL     1      34.275 -14.211 -24.019  0.00  0.00    +0.110 C 
ATOM      9  C   UNL     1      33.654 -12.276 -22.665  0.00  0.00    +0.160 C 
ATOM     10  C   UNL     1      33.745 -12.835 -23.882  0.00  0.00    +0.060 C 
ENDROOT
BRANCH   9  13
ATOM     11  S   UNL     1      33.641  -7.101 -23.666  0.00  0.00    -0.091 S 
ATOM     12  N   UNL     1      32.130 -10.774 -21.596  0.00  0.00    -0.266 NA
ATOM     13  C   UNL     1      33.141 -10.903 -22.476  0.00  0.00    +0.093 C 
ATOM     14  C   UNL     1      33.709  -9.862 -23.187  0.00  0.00    +0.081 C 
ATOM     15  C   UNL     1      33.165  -8.594 -22.948  0.00  0.00    +0.011 C 
ATOM     16  C   UNL     1      32.114  -8.414 -22.044  0.00  0.00    +0.005 C 
ATOM     17  C   UNL     1      31.615  -9.543 -21.377  0.00  0.00    +0.152 C 
ATOM     18  C   UNL     1      31.728  -7.035 -21.967  0.00  0.00    +0.005 C 
ATOM     19  C   UNL     1      32.471  -6.223 -22.790  0.00  0.00    +0.035 C 
ENDBRANCH   9  13
BRANCH   8  20
ATOM     20  N   UNL     1      34.361 -14.738 -25.198  0.00  0.00    -0.135 NA
BRANCH  20  21
ATOM     21  O   UNL     1      34.162 -13.730 -26.143  0.00  0.00    -0.265 OA
ATOM     22  H   UNL     1      33.545 -13.045 -25.974  0.00  0.00    +0.247 HD
ENDBRANCH  20  21
ENDBRANCH   8  20
BRANCH   2  23
ATOM     23  C   UNL     1      36.093 -18.159 -21.501  0.00  0.00    +0.020 C 
BRANCH  23  24
ATOM     24  C   UNL     1      34.988 -19.218 -21.627  0.00  0.00    -0.018 C 
BRANCH  24  25
ATOM     25  C   UNL     1      34.158 -19.320 -20.348  0.00  0.00    -0.077 C 
BRANCH  25  27
ATOM     26  O   UNL     1      35.086 -21.856 -17.135  0.00  0.00    -0.358 OA
ATOM     27  N   UNL     1      34.552 -20.499 -19.580  0.00  0.00    +0.390 N 
ATOM     28  C   UNL     1      35.770 -20.232 -18.801  0.00  0.00    -0.045 C 
ATOM     29  C   UNL     1      33.468 -20.926 -18.685  0.00  0.00    -0.045 C 
ATOM     30  C   UNL     1      33.906 -22.149 -17.885  0.00  0.00    +0.119 C 
ATOM     31  C   UNL     1      36.155 -21.472 -18.000  0.00  0.00    +0.119 C 
ATOM     32  H   UNL     1      34.746 -21.252 -20.240  0.00  0.00    -0.079 HD
ENDBRANCH  25  27
ENDBRANCH  24  25
ENDBRANCH  23  24
ENDBRANCH   2  23
TORSDOF 7
ENDMDL
MODEL 8
REMARK VINA RESULT:     -10.0      7.314     11.837
REMARK  Name = 135565465
REMARK  7 active torsions:
REMARK  status: ('A' for Active; 'I' for Inactive)
REMARK    1  A    between atoms: N_2  and  C_9
REMARK    2  A    between atoms: N_2  and  O_21
REMARK    3  A    between atoms: C_3  and  C_23
REMARK    4  A    between atoms: C_10  and  C_14
REMARK    5  A    between atoms: C_23  and  C_24
REMARK    6  A    between atoms: C_24  and  C_25
REMARK    7  A    between atoms: C_25  and  N_27
REMARK                            x       y       z     vdW  Elec       q    Type
REMARK                         _______ _______ _______ _____ _____    ______ ____
ROOT
ATOM      1  O   UNL     1      34.646 -11.823 -23.457  0.00  0.00    -0.453 OA
ATOM      2  C   UNL     1      33.718  -7.780 -23.668  0.00  0.00    -0.040 C 
ATOM      3  C   UNL     1      32.927  -8.607 -22.865  0.00  0.00    +0.053 C 
ATOM      4  C   UNL     1      33.214  -9.974 -22.772  0.00  0.00    +0.036 C 
ATOM      5  C   UNL     1      34.793  -8.309 -24.379  0.00  0.00    -0.005 C 
ATOM      6  C   UNL     1      34.294 -10.497 -23.489  0.00  0.00    +0.143 C 
ATOM      7  C   UNL     1      35.082  -9.668 -24.290  0.00  0.00    +0.037 C 
ATOM      8  C   UNL     1      32.413 -10.896 -21.937  0.00  0.00    +0.110 C 
ATOM      9  C   UNL     1      33.890 -12.690 -22.687  0.00  0.00    +0.160 C 
ATOM     10  C   UNL     1      32.836 -12.315 -21.947  0.00  0.00    +0.060 C 
ENDROOT
BRANCH   9  13
ATOM     11  S   UNL     1      35.714 -17.080 -20.412  0.00  0.00    -0.091 S 
ATOM     12  N   UNL     1      34.372 -14.669 -23.940  0.00  0.00    -0.266 NA
ATOM     13  C   UNL     1      34.358 -14.090 -22.724  0.00  0.00    +0.093 C 
ATOM     14  C   UNL     1      34.743 -14.709 -21.549  0.00  0.00    +0.081 C 
ATOM     15  C   UNL     1      35.173 -16.036 -21.672  0.00  0.00    +0.011 C 
ATOM     16  C   UNL     1      35.203 -16.677 -22.914  0.00  0.00    +0.005 C 
ATOM     17  C   UNL     1      34.789 -15.951 -24.042  0.00  0.00    +0.152 C 
ATOM     18  C   UNL     1      35.678 -18.024 -22.791  0.00  0.00    +0.005 C 
ATOM     19  C   UNL     1      35.987 -18.367 -21.496  0.00  0.00    +0.035 C 
ENDBRANCH   9  13
BRANCH   8  20
ATOM     20  N   UNL     1      31.396 -10.547 -21.216  0.00  0.00    -0.135 NA
BRANCH  20  21
ATOM     21  O   UNL     1      31.200 -11.521 -20.236  0.00  0.00    -0.265 OA
ATOM     22  H   UNL     1      31.564 -11.405 -19.381  0.00  0.00    +0.247 HD
ENDBRANCH  20  21
ENDBRANCH   8  20
BRANCH   2  23
ATOM     23  C   UNL     1      33.408  -6.324 -23.763  0.00  0.00    +0.020 C 
BRANCH  23  24
ATOM     24  C   UNL     1      32.023  -5.985 -23.191  0.00  0.00    -0.018 C 
BRANCH  24  25
ATOM     25  C   UNL     1      32.098  -4.852 -22.169  0.00  0.00    -0.077 C 
BRANCH  25  27
ATOM     26  O   UNL     1      32.080  -6.293 -18.227  0.00  0.00    -0.358 OA
ATOM     27  N   UNL     1      32.549  -5.363 -20.876  0.00  0.00    +0.390 N 
ATOM     28  C   UNL     1      32.178  -4.442 -19.792  0.00  0.00    -0.045 C 
ATOM     29  C   UNL     1      31.988  -6.696 -20.618  0.00  0.00    -0.045 C 
ATOM     30  C   UNL     1      32.461  -7.203 -19.259  0.00  0.00    +0.119 C 
ATOM     31  C   UNL     1      32.648  -5.003 -18.453  0.00  0.00    +0.119 C 
ATOM     32  H   UNL     1      33.565  -5.437 -20.907  0.00  0.00    -0.079 HD
ENDBRANCH  25  27
ENDBRANCH  24  25
ENDBRANCH  23  24
ENDBRANCH   2  23
TORSDOF 7
ENDMDL
MODEL 9
REMARK VINA RESULT:      -9.9      5.135     12.315
REMARK  Name = 135565465
REMARK  7 active torsions:
REMARK  status: ('A' for Active; 'I' for Inactive)
REMARK    1  A    between atoms: N_2  and  C_9
REMARK    2  A    between atoms: N_2  and  O_21
REMARK    3  A    between atoms: C_3  and  C_23
REMARK    4  A    between atoms: C_10  and  C_14
REMARK    5  A    between atoms: C_23  and  C_24
REMARK    6  A    between atoms: C_24  and  C_25
REMARK    7  A    between atoms: C_25  and  N_27
REMARK                            x       y       z     vdW  Elec       q    Type
REMARK                         _______ _______ _______ _____ _____    ______ ____
ROOT
ATOM      1  O   UNL     1      34.155 -12.927 -23.885  0.00  0.00    -0.453 OA
ATOM      2  C   UNL     1      34.768 -17.017 -23.500  0.00  0.00    -0.040 C 
ATOM      3  C   UNL     1      34.856 -16.216 -22.357  0.00  0.00    +0.053 C 
ATOM      4  C   UNL     1      34.654 -14.835 -22.453  0.00  0.00    +0.036 C 
ATOM      5  C   UNL     1      34.480 -16.447 -24.738  0.00  0.00    -0.005 C 
ATOM      6  C   UNL     1      34.366 -14.270 -23.699  0.00  0.00    +0.143 C 
ATOM      7  C   UNL     1      34.279 -15.073 -24.839  0.00  0.00    +0.037 C 
ATOM      8  C   UNL     1      34.733 -13.940 -21.278  0.00  0.00    +0.110 C 
ATOM      9  C   UNL     1      34.241 -12.086 -22.790  0.00  0.00    +0.160 C 
ATOM     10  C   UNL     1      34.503 -12.500 -21.541  0.00  0.00    +0.060 C 
ENDROOT
BRANCH   9  13
ATOM     11  S   UNL     1      31.613  -7.553 -22.224  0.00  0.00    -0.091 S 
ATOM     12  N   UNL     1      34.825 -10.113 -24.010  0.00  0.00    -0.266 NA
ATOM     13  C   UNL     1      33.995 -10.664 -23.103  0.00  0.00    +0.093 C 
ATOM     14  C   UNL     1      32.961  -9.998 -22.470  0.00  0.00    +0.081 C 
ATOM     15  C   UNL     1      32.796  -8.654 -22.824  0.00  0.00    +0.011 C 
ATOM     16  C   UNL     1      33.634  -8.041 -23.760  0.00  0.00    +0.005 C 
ATOM     17  C   UNL     1      34.653  -8.814 -24.340  0.00  0.00    +0.152 C 
ATOM     18  C   UNL     1      33.274  -6.667 -23.959  0.00  0.00    +0.005 C 
ATOM     19  C   UNL     1      32.201  -6.278 -23.192  0.00  0.00    +0.035 C 
ENDBRANCH   9  13
BRANCH   8  20
ATOM     20  N   UNL     1      34.982 -14.327 -20.068  0.00  0.00    -0.135 NA
BRANCH  20  21
ATOM     21  O   UNL     1      33.771 -14.651 -19.455  0.00  0.00    -0.265 OA
ATOM     22  H   UNL     1      33.597 -15.536 -19.203  0.00  0.00    +0.247 HD
ENDBRANCH  20  21
ENDBRANCH   8  20
BRANCH   2  23
ATOM     23  C   UNL     1      34.984 -18.489 -23.392  0.00  0.00    +0.020 C 
BRANCH  23  24
ATOM     24  C   UNL     1      35.352 -18.920 -21.963  0.00  0.00    -0.018 C 
BRANCH  24  25
ATOM     25  C   UNL     1      34.107 -19.154 -21.108  0.00  0.00    -0.077 C 
BRANCH  25  27
ATOM     26  O   UNL     1      35.325 -21.885 -18.163  0.00  0.00    -0.358 OA
ATOM     27  N   UNL     1      34.480 -19.728 -19.817  0.00  0.00    +0.390 N 
ATOM     28  C   UNL     1      33.565 -20.817 -19.446  0.00  0.00    -0.045 C 
ATOM     29  C   UNL     1      35.863 -20.221 -19.844  0.00  0.00    -0.045 C 
ATOM     30  C   UNL     1      36.226 -20.827 -18.492  0.00  0.00    +0.119 C 
ATOM     31  C   UNL     1      33.981 -21.407 -18.102  0.00  0.00    +0.119 C 
ATOM     32  H   UNL     1      34.410 -18.991 -19.115  0.00  0.00    -0.079 HD
ENDBRANCH  25  27
ENDBRANCH  24  25
ENDBRANCH  23  24
ENDBRANCH   2  23
TORSDOF 7
ENDMDL
