MODEL 1
REMARK VINA RESULT:     -11.4      0.000      0.000
REMARK  Name = 11689883
REMARK  5 active torsions:
REMARK  status: ('A' for Active; 'I' for Inactive)
REMARK    1  A    between atoms: C_2  and  C_21
REMARK    2  A    between atoms: C_5  and  N_9
REMARK    3  A    between atoms: N_10  and  C_15
REMARK    4  A    between atoms: C_21  and  N_23
REMARK    5  A    between atoms: C_29  and  O_31
REMARK                            x       y       z     vdW  Elec       q    Type
REMARK                         _______ _______ _______ _____ _____    ______ ____
ROOT
ATOM      1  F   UNL     1      35.811 -16.321 -20.785  0.00  0.00    -0.203 F 
ATOM      2  C   UNL     1      34.955 -15.696 -22.905  0.00  0.00    -0.014 C 
ATOM      3  C   UNL     1      35.321 -16.669 -21.986  0.00  0.00    +0.147 C 
ATOM      4  C   UNL     1      34.446 -16.043 -24.149  0.00  0.00    -0.004 C 
ATOM      5  C   UNL     1      35.175 -18.016 -22.316  0.00  0.00    +0.079 C 
ATOM      6  C   UNL     1      34.301 -17.390 -24.480  0.00  0.00    +0.001 C 
ATOM      7  C   UNL     1      34.665 -18.377 -23.564  0.00  0.00    +0.017 C 
ENDROOT
BRANCH   5   9
ATOM      8  O   UNL     1      33.728 -19.044 -19.914  0.00  0.00    -0.252 OA
ATOM      9  N   UNL     1      35.539 -19.005 -21.402  0.00  0.00    -0.266 N 
ATOM     10  N   UNL     1      35.554 -20.477 -19.621  0.00  0.00    -0.267 N 
ATOM     11  C   UNL     1      34.824 -19.468 -20.270  0.00  0.00    +0.308 C 
ATOM     12  H   UNL     1      36.408 -19.439 -21.564  0.00  0.00    +0.156 HD
ATOM     13  H   UNL     1      36.421 -20.711 -20.026  0.00  0.00    +0.156 HD
BRANCH  10  15
ATOM     14  N   UNL     1      35.822 -22.021 -16.293  0.00  0.00    -0.247 NA
ATOM     15  C   UNL     1      35.197 -21.199 -18.458  0.00  0.00    +0.071 C 
ATOM     16  C   UNL     1      33.944 -21.763 -18.347  0.00  0.00    +0.018 C 
ATOM     17  C   UNL     1      36.098 -21.344 -17.430  0.00  0.00    +0.113 C 
ATOM     18  C   UNL     1      33.622 -22.468 -17.192  0.00  0.00    +0.016 C 
ATOM     19  C   UNL     1      34.589 -22.567 -16.204  0.00  0.00    +0.059 C 
ATOM     20  C   UNL     1      34.278 -23.316 -14.950  0.00  0.00    +0.052 C 
ENDBRANCH  10  15
ENDBRANCH   5   9
BRANCH   2  21
ATOM     21  C   UNL     1      35.110 -14.241 -22.552  0.00  0.00    -0.047 C 
BRANCH  21  23
ATOM     22  O   UNL     1      31.714 -11.140 -18.310  0.00  0.00    -0.226 OA
ATOM     23  N   UNL     1      33.870 -13.673 -22.022  0.00  0.00    +0.392 N 
ATOM     24  N   UNL     1      32.290 -11.901 -20.429  0.00  0.00    -0.250 N 
ATOM     25  C   UNL     1      33.808 -13.841 -20.563  0.00  0.00    -0.055 C 
ATOM     26  C   UNL     1      33.758 -12.252 -22.383  0.00  0.00    -0.055 C 
ATOM     27  C   UNL     1      32.497 -13.285 -20.009  0.00  0.00    +0.074 C 
ATOM     28  C   UNL     1      32.447 -11.659 -21.865  0.00  0.00    +0.074 C 
ATOM     29  C   UNL     1      31.848 -10.941 -19.517  0.00  0.00    +0.405 C 
ATOM     30  H   UNL     1      33.086 -14.174 -22.438  0.00  0.00    -0.079 HD
BRANCH  29  31
ATOM     31  O   UNL     1      31.572  -9.737 -20.110  0.00  0.00    -0.430 OA
ATOM     32  C   UNL     1      32.190  -8.587 -19.521  0.00  0.00    +0.257 C 
ENDBRANCH  29  31
ENDBRANCH  21  23
ENDBRANCH   2  21
TORSDOF 5
ENDMDL
MODEL 2
REMARK VINA RESULT:     -11.2      3.873     10.994
REMARK  Name = 11689883
REMARK  5 active torsions:
REMARK  status: ('A' for Active; 'I' for Inactive)
REMARK    1  A    between atoms: C_2  and  C_21
REMARK    2  A    between atoms: C_5  and  N_9
REMARK    3  A    between atoms: N_10  and  C_15
REMARK    4  A    between atoms: C_21  and  N_23
REMARK    5  A    between atoms: C_29  and  O_31
REMARK                            x       y       z     vdW  Elec       q    Type
REMARK                         _______ _______ _______ _____ _____    ______ ____
ROOT
ATOM      1  F   UNL     1      37.217 -20.441 -18.291  0.00  0.00    -0.203 F 
ATOM      2  C   UNL     1      35.680 -21.681 -16.980  0.00  0.00    -0.014 C 
ATOM      3  C   UNL     1      36.000 -20.988 -18.139  0.00  0.00    +0.147 C 
ATOM      4  C   UNL     1      34.426 -22.251 -16.812  0.00  0.00    -0.004 C 
ATOM      5  C   UNL     1      35.046 -20.862 -19.150  0.00  0.00    +0.079 C 
ATOM      6  C   UNL     1      33.473 -22.125 -17.821  0.00  0.00    +0.001 C 
ATOM      7  C   UNL     1      33.782 -21.430 -18.991  0.00  0.00    +0.017 C 
ENDROOT
BRANCH   5   9
ATOM      8  O   UNL     1      33.826 -18.390 -20.299  0.00  0.00    -0.252 OA
ATOM      9  N   UNL     1      35.354 -20.167 -20.320  0.00  0.00    -0.266 N 
ATOM     10  N   UNL     1      35.366 -18.628 -22.042  0.00  0.00    -0.267 N 
ATOM     11  C   UNL     1      34.751 -18.993 -20.835  0.00  0.00    +0.308 C 
ATOM     12  H   UNL     1      36.087 -20.542 -20.860  0.00  0.00    +0.156 HD
ATOM     13  H   UNL     1      36.098 -19.212 -22.348  0.00  0.00    +0.156 HD
BRANCH  10  15
ATOM     14  N   UNL     1      34.103 -16.705 -24.914  0.00  0.00    -0.247 NA
ATOM     15  C   UNL     1      35.066 -17.524 -22.874  0.00  0.00    +0.071 C 
ATOM     16  C   UNL     1      35.419 -16.247 -22.490  0.00  0.00    +0.018 C 
ATOM     17  C   UNL     1      34.419 -17.715 -24.072  0.00  0.00    +0.113 C 
ATOM     18  C   UNL     1      35.110 -15.182 -23.329  0.00  0.00    +0.016 C 
ATOM     19  C   UNL     1      34.458 -15.462 -24.519  0.00  0.00    +0.059 C 
ATOM     20  C   UNL     1      34.111 -14.343 -25.444  0.00  0.00    +0.052 C 
ENDBRANCH  10  15
ENDBRANCH   5   9
BRANCH   2  21
ATOM     21  C   UNL     1      36.707 -21.820 -15.888  0.00  0.00    -0.047 C 
BRANCH  21  23
ATOM     22  O   UNL     1      37.892 -25.645 -11.082  0.00  0.00    -0.226 OA
ATOM     23  N   UNL     1      36.424 -22.959 -15.015  0.00  0.00    +0.392 N 
ATOM     24  N   UNL     1      36.570 -24.495 -12.608  0.00  0.00    -0.250 N 
ATOM     25  C   UNL     1      37.668 -23.650 -14.648  0.00  0.00    -0.055 C 
ATOM     26  C   UNL     1      35.703 -22.521 -13.811  0.00  0.00    -0.055 C 
ATOM     27  C   UNL     1      37.376 -24.865 -13.769  0.00  0.00    +0.074 C 
ATOM     28  C   UNL     1      35.370 -23.711 -12.910  0.00  0.00    +0.074 C 
ATOM     29  C   UNL     1      36.886 -24.985 -11.339  0.00  0.00    +0.405 C 
ATOM     30  H   UNL     1      35.831 -23.614 -15.525  0.00  0.00    -0.079 HD
BRANCH  29  31
ATOM     31  O   UNL     1      35.947 -24.656 -10.397  0.00  0.00    -0.430 OA
ATOM     32  C   UNL     1      36.126 -23.394  -9.744  0.00  0.00    +0.257 C 
ENDBRANCH  29  31
ENDBRANCH  21  23
ENDBRANCH   2  21
TORSDOF 5
ENDMDL
MODEL 3
REMARK VINA RESULT:     -11.2      2.855      4.373
REMARK  Name = 11689883
REMARK  5 active torsions:
REMARK  status: ('A' for Active; 'I' for Inactive)
REMARK    1  A    between atoms: C_2  and  C_21
REMARK    2  A    between atoms: C_5  and  N_9
REMARK    3  A    between atoms: N_10  and  C_15
REMARK    4  A    between atoms: C_21  and  N_23
REMARK    5  A    between atoms: C_29  and  O_31
REMARK                            x       y       z     vdW  Elec       q    Type
REMARK                         _______ _______ _______ _____ _____    ______ ____
ROOT
ATOM      1  F   UNL     1      37.550 -18.575 -20.223  0.00  0.00    -0.203 F 
ATOM      2  C   UNL     1      35.422 -18.552 -21.266  0.00  0.00    -0.014 C 
ATOM      3  C   UNL     1      36.274 -18.993 -20.264  0.00  0.00    +0.147 C 
ATOM      4  C   UNL     1      34.101 -18.976 -21.317  0.00  0.00    -0.004 C 
ATOM      5  C   UNL     1      35.797 -19.875 -19.294  0.00  0.00    +0.079 C 
ATOM      6  C   UNL     1      33.624 -19.858 -20.348  0.00  0.00    +0.001 C 
ATOM      7  C   UNL     1      34.472 -20.308 -19.336  0.00  0.00    +0.017 C 
ENDROOT
BRANCH   5   9
ATOM      8  O   UNL     1      35.298 -21.839 -17.100  0.00  0.00    -0.252 OA
ATOM      9  N   UNL     1      36.644 -20.327 -18.281  0.00  0.00    -0.266 N 
ATOM     10  N   UNL     1      37.505 -21.430 -16.443  0.00  0.00    -0.267 N 
ATOM     11  C   UNL     1      36.371 -21.263 -17.253  0.00  0.00    +0.308 C 
ATOM     12  H   UNL     1      37.551 -19.944 -18.279  0.00  0.00    +0.156 HD
ATOM     13  H   UNL     1      38.296 -20.898 -16.692  0.00  0.00    +0.156 HD
BRANCH  10  15
ATOM     14  N   UNL     1      38.984 -23.866 -14.116  0.00  0.00    -0.247 NA
ATOM     15  C   UNL     1      37.653 -22.270 -15.314  0.00  0.00    +0.071 C 
ATOM     16  C   UNL     1      36.667 -22.320 -14.351  0.00  0.00    +0.018 C 
ATOM     17  C   UNL     1      38.781 -23.042 -15.168  0.00  0.00    +0.113 C 
ATOM     18  C   UNL     1      36.841 -23.154 -13.252  0.00  0.00    +0.016 C 
ATOM     19  C   UNL     1      38.006 -23.901 -13.183  0.00  0.00    +0.059 C 
ATOM     20  C   UNL     1      38.226 -24.807 -12.018  0.00  0.00    +0.052 C 
ENDBRANCH  10  15
ENDBRANCH   5   9
BRANCH   2  21
ATOM     21  C   UNL     1      35.932 -17.600 -22.313  0.00  0.00    -0.047 C 
BRANCH  21  23
ATOM     22  O   UNL     1      34.270 -11.639 -23.229  0.00  0.00    -0.226 OA
ATOM     23  N   UNL     1      34.972 -16.532 -22.594  0.00  0.00    +0.392 N 
ATOM     24  N   UNL     1      34.142 -13.945 -23.484  0.00  0.00    -0.250 N 
ATOM     25  C   UNL     1      35.282 -15.337 -21.797  0.00  0.00    -0.055 C 
ATOM     26  C   UNL     1      34.966 -16.208 -24.029  0.00  0.00    -0.055 C 
ATOM     27  C   UNL     1      34.260 -14.231 -22.056  0.00  0.00    +0.074 C 
ATOM     28  C   UNL     1      33.939 -15.117 -24.337  0.00  0.00    +0.074 C 
ATOM     29  C   UNL     1      34.100 -12.626 -23.942  0.00  0.00    +0.405 C 
ATOM     30  H   UNL     1      34.043 -16.861 -22.334  0.00  0.00    -0.079 HD
BRANCH  29  31
ATOM     31  O   UNL     1      33.845 -12.543 -25.285  0.00  0.00    -0.430 OA
ATOM     32  C   UNL     1      33.876 -11.228 -25.853  0.00  0.00    +0.257 C 
ENDBRANCH  29  31
ENDBRANCH  21  23
ENDBRANCH   2  21
TORSDOF 5
ENDMDL
MODEL 4
REMARK VINA RESULT:     -11.2      2.542      4.071
REMARK  Name = 11689883
REMARK  5 active torsions:
REMARK  status: ('A' for Active; 'I' for Inactive)
REMARK    1  A    between atoms: C_2  and  C_21
REMARK    2  A    between atoms: C_5  and  N_9
REMARK    3  A    between atoms: N_10  and  C_15
REMARK    4  A    between atoms: C_21  and  N_23
REMARK    5  A    between atoms: C_29  and  O_31
REMARK                            x       y       z     vdW  Elec       q    Type
REMARK                         _______ _______ _______ _____ _____    ______ ____
ROOT
ATOM      1  F   UNL     1      37.679 -18.743 -20.119  0.00  0.00    -0.203 F 
ATOM      2  C   UNL     1      35.573 -18.679 -21.202  0.00  0.00    -0.014 C 
ATOM      3  C   UNL     1      36.390 -19.115 -20.170  0.00  0.00    +0.147 C 
ATOM      4  C   UNL     1      34.238 -19.056 -21.265  0.00  0.00    -0.004 C 
ATOM      5  C   UNL     1      35.864 -19.946 -19.180  0.00  0.00    +0.079 C 
ATOM      6  C   UNL     1      33.712 -19.887 -20.276  0.00  0.00    +0.001 C 
ATOM      7  C   UNL     1      34.524 -20.332 -19.233  0.00  0.00    +0.017 C 
ENDROOT
BRANCH   5   9
ATOM      8  O   UNL     1      35.317 -21.960 -17.044  0.00  0.00    -0.252 OA
ATOM      9  N   UNL     1      36.675 -20.393 -18.136  0.00  0.00    -0.266 N 
ATOM     10  N   UNL     1      37.480 -21.505 -16.279  0.00  0.00    -0.267 N 
ATOM     11  C   UNL     1      36.380 -21.354 -17.138  0.00  0.00    +0.308 C 
ATOM     12  H   UNL     1      37.570 -19.987 -18.086  0.00  0.00    +0.156 HD
ATOM     13  H   UNL     1      38.267 -20.948 -16.482  0.00  0.00    +0.156 HD
BRANCH  10  15
ATOM     14  N   UNL     1      38.892 -23.983 -13.954  0.00  0.00    -0.247 NA
ATOM     15  C   UNL     1      37.598 -22.360 -15.158  0.00  0.00    +0.071 C 
ATOM     16  C   UNL     1      36.594 -22.413 -14.215  0.00  0.00    +0.018 C 
ATOM     17  C   UNL     1      38.716 -23.144 -15.000  0.00  0.00    +0.113 C 
ATOM     18  C   UNL     1      36.738 -23.263 -13.123  0.00  0.00    +0.016 C 
ATOM     19  C   UNL     1      37.896 -24.020 -13.041  0.00  0.00    +0.059 C 
ATOM     20  C   UNL     1      38.084 -24.944 -11.884  0.00  0.00    +0.052 C 
ENDBRANCH  10  15
ENDBRANCH   5   9
BRANCH   2  21
ATOM     21  C   UNL     1      36.137 -17.782 -22.271  0.00  0.00    -0.047 C 
BRANCH  21  23
ATOM     22  O   UNL     1      32.632 -12.600 -22.215  0.00  0.00    -0.226 OA
ATOM     23  N   UNL     1      35.885 -16.369 -21.986  0.00  0.00    +0.392 N 
ATOM     24  N   UNL     1      34.276 -14.063 -21.469  0.00  0.00    -0.250 N 
ATOM     25  C   UNL     1      35.093 -15.758 -23.063  0.00  0.00    -0.055 C 
ATOM     26  C   UNL     1      35.201 -16.217 -20.693  0.00  0.00    -0.055 C 
ATOM     27  C   UNL     1      34.861 -14.273 -22.791  0.00  0.00    +0.074 C 
ATOM     28  C   UNL     1      34.967 -14.741 -20.370  0.00  0.00    +0.074 C 
ATOM     29  C   UNL     1      33.215 -13.171 -21.295  0.00  0.00    +0.405 C 
ATOM     30  H   UNL     1      36.783 -15.888 -21.934  0.00  0.00    -0.079 HD
BRANCH  29  31
ATOM     31  O   UNL     1      32.887 -12.992 -19.977  0.00  0.00    -0.430 OA
ATOM     32  C   UNL     1      31.953 -11.943 -19.697  0.00  0.00    +0.257 C 
ENDBRANCH  29  31
ENDBRANCH  21  23
ENDBRANCH   2  21
TORSDOF 5
ENDMDL
MODEL 5
REMARK VINA RESULT:     -10.9      2.182      9.582
REMARK  Name = 11689883
REMARK  5 active torsions:
REMARK  status: ('A' for Active; 'I' for Inactive)
REMARK    1  A    between atoms: C_2  and  C_21
REMARK    2  A    between atoms: C_5  and  N_9
REMARK    3  A    between atoms: N_10  and  C_15
REMARK    4  A    between atoms: C_21  and  N_23
REMARK    5  A    between atoms: C_29  and  O_31
REMARK                            x       y       z     vdW  Elec       q    Type
REMARK                         _______ _______ _______ _____ _____    ______ ____
ROOT
ATOM      1  F   UNL     1      35.829 -15.468 -21.429  0.00  0.00    -0.203 F 
ATOM      2  C   UNL     1      35.367 -17.663 -22.193  0.00  0.00    -0.014 C 
ATOM      3  C   UNL     1      35.328 -16.287 -22.367  0.00  0.00    +0.147 C 
ATOM      4  C   UNL     1      34.853 -18.520 -23.157  0.00  0.00    -0.004 C 
ATOM      5  C   UNL     1      34.765 -15.757 -23.528  0.00  0.00    +0.079 C 
ATOM      6  C   UNL     1      34.290 -17.990 -24.317  0.00  0.00    +0.001 C 
ATOM      7  C   UNL     1      34.245 -16.608 -24.503  0.00  0.00    +0.017 C 
ENDROOT
BRANCH   5   9
ATOM      8  O   UNL     1      33.352 -13.646 -21.957  0.00  0.00    -0.252 OA
ATOM      9  N   UNL     1      34.719 -14.375 -23.716  0.00  0.00    -0.266 N 
ATOM     10  N   UNL     1      34.256 -12.123 -23.486  0.00  0.00    -0.267 N 
ATOM     11  C   UNL     1      34.035 -13.401 -22.947  0.00  0.00    +0.308 C 
ATOM     12  H   UNL     1      35.228 -14.030 -24.485  0.00  0.00    +0.156 HD
ATOM     13  H   UNL     1      34.829 -12.085 -24.286  0.00  0.00    +0.156 HD
BRANCH  10  15
ATOM     14  N   UNL     1      32.243  -9.701 -21.583  0.00  0.00    -0.247 NA
ATOM     15  C   UNL     1      33.757 -10.884 -23.021  0.00  0.00    +0.071 C 
ATOM     16  C   UNL     1      34.261  -9.701 -23.518  0.00  0.00    +0.018 C 
ATOM     17  C   UNL     1      32.765 -10.850 -22.069  0.00  0.00    +0.113 C 
ATOM     18  C   UNL     1      33.750  -8.498 -23.042  0.00  0.00    +0.016 C 
ATOM     19  C   UNL     1      32.750  -8.553 -22.084  0.00  0.00    +0.059 C 
ATOM     20  C   UNL     1      32.179  -7.281 -21.550  0.00  0.00    +0.052 C 
ENDBRANCH  10  15
ENDBRANCH   5   9
BRANCH   2  21
ATOM     21  C   UNL     1      35.975 -18.239 -20.942  0.00  0.00    -0.047 C 
BRANCH  21  23
ATOM     22  O   UNL     1      34.309 -22.651 -16.832  0.00  0.00    -0.226 OA
ATOM     23  N   UNL     1      35.329 -19.492 -20.550  0.00  0.00    +0.392 N 
ATOM     24  N   UNL     1      34.108 -21.335 -18.737  0.00  0.00    -0.250 N 
ATOM     25  C   UNL     1      36.141 -20.199 -19.548  0.00  0.00    -0.055 C 
ATOM     26  C   UNL     1      33.978 -19.235 -20.029  0.00  0.00    -0.055 C 
ATOM     27  C   UNL     1      35.492 -21.527 -19.163  0.00  0.00    +0.074 C 
ATOM     28  C   UNL     1      33.281 -20.543 -19.650  0.00  0.00    +0.074 C 
ATOM     29  C   UNL     1      33.618 -21.985 -17.602  0.00  0.00    +0.405 C 
ATOM     30  H   UNL     1      35.250 -20.084 -21.376  0.00  0.00    -0.079 HD
BRANCH  29  31
ATOM     31  O   UNL     1      32.270 -21.805 -17.431  0.00  0.00    -0.430 OA
ATOM     32  C   UNL     1      31.706 -22.363 -16.239  0.00  0.00    +0.257 C 
ENDBRANCH  29  31
ENDBRANCH  21  23
ENDBRANCH   2  21
TORSDOF 5
ENDMDL
MODEL 6
REMARK VINA RESULT:     -10.3      2.471      9.963
REMARK  Name = 11689883
REMARK  5 active torsions:
REMARK  status: ('A' for Active; 'I' for Inactive)
REMARK    1  A    between atoms: C_2  and  C_21
REMARK    2  A    between atoms: C_5  and  N_9
REMARK    3  A    between atoms: N_10  and  C_15
REMARK    4  A    between atoms: C_21  and  N_23
REMARK    5  A    between atoms: C_29  and  O_31
REMARK                            x       y       z     vdW  Elec       q    Type
REMARK                         _______ _______ _______ _____ _____    ______ ____
ROOT
ATOM      1  F   UNL     1      35.349 -15.310 -20.076  0.00  0.00    -0.203 F 
ATOM      2  C   UNL     1      35.711 -16.977 -21.721  0.00  0.00    -0.014 C 
ATOM      3  C   UNL     1      35.214 -15.739 -21.341  0.00  0.00    +0.147 C 
ATOM      4  C   UNL     1      35.578 -17.431 -23.026  0.00  0.00    -0.004 C 
ATOM      5  C   UNL     1      34.569 -14.938 -22.284  0.00  0.00    +0.079 C 
ATOM      6  C   UNL     1      34.934 -16.631 -23.969  0.00  0.00    +0.001 C 
ATOM      7  C   UNL     1      34.429 -15.384 -23.599  0.00  0.00    +0.017 C 
ENDROOT
BRANCH   5   9
ATOM      8  O   UNL     1      34.040 -12.510 -23.940  0.00  0.00    -0.252 OA
ATOM      9  N   UNL     1      34.064 -13.691 -21.916  0.00  0.00    -0.266 N 
ATOM     10  N   UNL     1      33.310 -11.508 -21.957  0.00  0.00    -0.267 N 
ATOM     11  C   UNL     1      33.825 -12.558 -22.733  0.00  0.00    +0.308 C 
ATOM     12  H   UNL     1      33.844 -13.583 -20.963  0.00  0.00    +0.156 HD
ATOM     13  H   UNL     1      33.192 -11.697 -20.998  0.00  0.00    +0.156 HD
BRANCH  10  15
ATOM     14  N   UNL     1      33.303  -8.371 -23.879  0.00  0.00    -0.247 NA
ATOM     15  C   UNL     1      32.939 -10.211 -22.383  0.00  0.00    +0.071 C 
ATOM     16  C   UNL     1      31.908  -9.542 -21.759  0.00  0.00    +0.018 C 
ATOM     17  C   UNL     1      33.605  -9.607 -23.423  0.00  0.00    +0.113 C 
ATOM     18  C   UNL     1      31.567  -8.268 -22.200  0.00  0.00    +0.016 C 
ATOM     19  C   UNL     1      32.289  -7.732 -23.253  0.00  0.00    +0.059 C 
ATOM     20  C   UNL     1      31.951  -6.366 -23.753  0.00  0.00    +0.052 C 
ENDBRANCH  10  15
ENDBRANCH   5   9
BRANCH   2  21
ATOM     21  C   UNL     1      36.408 -17.844 -20.706  0.00  0.00    -0.047 C 
BRANCH  21  23
ATOM     22  O   UNL     1      34.414 -22.635 -17.212  0.00  0.00    -0.226 OA
ATOM     23  N   UNL     1      35.699 -19.105 -20.488  0.00  0.00    +0.392 N 
ATOM     24  N   UNL     1      34.338 -21.095 -18.950  0.00  0.00    -0.250 N 
ATOM     25  C   UNL     1      36.444 -19.960 -19.552  0.00  0.00    -0.055 C 
ATOM     26  C   UNL     1      34.340 -18.853 -19.986  0.00  0.00    -0.055 C 
ATOM     27  C   UNL     1      35.729 -21.295 -19.351  0.00  0.00    +0.074 C 
ATOM     28  C   UNL     1      33.579 -20.165 -19.789  0.00  0.00    +0.074 C 
ATOM     29  C   UNL     1      33.780 -21.853 -17.919  0.00  0.00    +0.405 C 
ATOM     30  H   UNL     1      35.628 -19.591 -21.381  0.00  0.00    -0.079 HD
BRANCH  29  31
ATOM     31  O   UNL     1      32.435 -21.636 -17.773  0.00  0.00    -0.430 OA
ATOM     32  C   UNL     1      31.838 -22.160 -16.581  0.00  0.00    +0.257 C 
ENDBRANCH  29  31
ENDBRANCH  21  23
ENDBRANCH   2  21
TORSDOF 5
ENDMDL
MODEL 7
REMARK VINA RESULT:      -9.8      4.305     11.143
REMARK  Name = 11689883
REMARK  5 active torsions:
REMARK  status: ('A' for Active; 'I' for Inactive)
REMARK    1  A    between atoms: C_2  and  C_21
REMARK    2  A    between atoms: C_5  and  N_9
REMARK    3  A    between atoms: N_10  and  C_15
REMARK    4  A    between atoms: C_21  and  N_23
REMARK    5  A    between atoms: C_29  and  O_31
REMARK                            x       y       z     vdW  Elec       q    Type
REMARK                         _______ _______ _______ _____ _____    ______ ____
ROOT
ATOM      1  F   UNL     1      35.426 -22.422 -16.441  0.00  0.00    -0.203 F 
ATOM      2  C   UNL     1      33.311 -22.978 -15.530  0.00  0.00    -0.014 C 
ATOM      3  C   UNL     1      34.087 -22.348 -16.492  0.00  0.00    +0.147 C 
ATOM      4  C   UNL     1      31.925 -22.909 -15.574  0.00  0.00    -0.004 C 
ATOM      5  C   UNL     1      33.467 -21.634 -17.518  0.00  0.00    +0.079 C 
ATOM      6  C   UNL     1      31.304 -22.195 -16.599  0.00  0.00    +0.001 C 
ATOM      7  C   UNL     1      32.075 -21.558 -17.571  0.00  0.00    +0.017 C 
ENDROOT
BRANCH   5   9
ATOM      8  O   UNL     1      32.697 -19.560 -19.525  0.00  0.00    -0.252 OA
ATOM      9  N   UNL     1      34.235 -20.995 -18.491  0.00  0.00    -0.266 N 
ATOM     10  N   UNL     1      34.926 -19.637 -20.228  0.00  0.00    -0.267 N 
ATOM     11  C   UNL     1      33.834 -20.012 -19.430  0.00  0.00    +0.308 C 
ATOM     12  H   UNL     1      35.182 -21.263 -18.533  0.00  0.00    +0.156 HD
ATOM     13  H   UNL     1      35.779 -20.089 -20.033  0.00  0.00    +0.156 HD
BRANCH  10  15
ATOM     14  N   UNL     1      35.447 -16.457 -22.003  0.00  0.00    -0.247 NA
ATOM     15  C   UNL     1      34.953 -18.690 -21.278  0.00  0.00    +0.071 C 
ATOM     16  C   UNL     1      34.533 -19.043 -22.543  0.00  0.00    +0.018 C 
ATOM     17  C   UNL     1      35.397 -17.410 -21.046  0.00  0.00    +0.113 C 
ATOM     18  C   UNL     1      34.570 -18.090 -23.556  0.00  0.00    +0.016 C 
ATOM     19  C   UNL     1      35.031 -16.823 -23.236  0.00  0.00    +0.059 C 
ATOM     20  C   UNL     1      35.085 -15.775 -24.298  0.00  0.00    +0.052 C 
ENDBRANCH  10  15
ENDBRANCH   5   9
BRANCH   2  21
ATOM     21  C   UNL     1      33.976 -23.749 -14.423  0.00  0.00    -0.047 C 
BRANCH  21  23
ATOM     22  O   UNL     1      39.739 -23.527 -11.998  0.00  0.00    -0.226 OA
ATOM     23  N   UNL     1      35.435 -23.676 -14.507  0.00  0.00    +0.392 N 
ATOM     24  N   UNL     1      38.118 -24.031 -13.585  0.00  0.00    -0.250 N 
ATOM     25  C   UNL     1      35.972 -22.825 -13.435  0.00  0.00    -0.055 C 
ATOM     26  C   UNL     1      36.024 -25.022 -14.441  0.00  0.00    -0.055 C 
ATOM     27  C   UNL     1      37.492 -22.712 -13.542  0.00  0.00    +0.074 C 
ATOM     28  C   UNL     1      37.547 -24.958 -14.566  0.00  0.00    +0.074 C 
ATOM     29  C   UNL     1      39.256 -24.302 -12.823  0.00  0.00    +0.405 C 
ATOM     30  H   UNL     1      35.683 -23.259 -15.404  0.00  0.00    -0.079 HD
BRANCH  29  31
ATOM     31  O   UNL     1      39.790 -25.535 -13.092  0.00  0.00    -0.430 OA
ATOM     32  C   UNL     1      40.777 -25.581 -14.130  0.00  0.00    +0.257 C 
ENDBRANCH  29  31
ENDBRANCH  21  23
ENDBRANCH   2  21
TORSDOF 5
ENDMDL
MODEL 8
REMARK VINA RESULT:      -9.7      4.110     11.051
REMARK  Name = 11689883
REMARK  5 active torsions:
REMARK  status: ('A' for Active; 'I' for Inactive)
REMARK    1  A    between atoms: C_2  and  C_21
REMARK    2  A    between atoms: C_5  and  N_9
REMARK    3  A    between atoms: N_10  and  C_15
REMARK    4  A    between atoms: C_21  and  N_23
REMARK    5  A    between atoms: C_29  and  O_31
REMARK                            x       y       z     vdW  Elec       q    Type
REMARK                         _______ _______ _______ _____ _____    ______ ____
ROOT
ATOM      1  F   UNL     1      33.523 -21.945 -18.257  0.00  0.00    -0.203 F 
ATOM      2  C   UNL     1      35.032 -22.084 -16.435  0.00  0.00    -0.014 C 
ATOM      3  C   UNL     1      34.734 -21.694 -17.733  0.00  0.00    +0.147 C 
ATOM      4  C   UNL     1      36.279 -21.830 -15.882  0.00  0.00    -0.004 C 
ATOM      5  C   UNL     1      35.702 -21.038 -18.493  0.00  0.00    +0.079 C 
ATOM      6  C   UNL     1      37.247 -21.174 -16.642  0.00  0.00    +0.001 C 
ATOM      7  C   UNL     1      36.959 -20.778 -17.948  0.00  0.00    +0.017 C 
ENDROOT
BRANCH   5   9
ATOM      8  O   UNL     1      35.568 -18.305 -19.690  0.00  0.00    -0.252 OA
ATOM      9  N   UNL     1      35.415 -20.641 -19.800  0.00  0.00    -0.266 N 
ATOM     10  N   UNL     1      35.036 -19.379 -21.698  0.00  0.00    -0.267 N 
ATOM     11  C   UNL     1      35.361 -19.329 -20.333  0.00  0.00    +0.308 C 
ATOM     12  H   UNL     1      35.225 -21.368 -20.436  0.00  0.00    +0.156 HD
ATOM     13  H   UNL     1      34.898 -20.278 -22.076  0.00  0.00    +0.156 HD
BRANCH  10  15
ATOM     14  N   UNL     1      35.289 -15.988 -23.102  0.00  0.00    -0.247 NA
ATOM     15  C   UNL     1      34.883 -18.298 -22.597  0.00  0.00    +0.071 C 
ATOM     16  C   UNL     1      34.213 -18.475 -23.789  0.00  0.00    +0.018 C 
ATOM     17  C   UNL     1      35.401 -17.063 -22.289  0.00  0.00    +0.113 C 
ATOM     18  C   UNL     1      34.078 -17.393 -24.653  0.00  0.00    +0.016 C 
ATOM     19  C   UNL     1      34.629 -16.182 -24.265  0.00  0.00    +0.059 C 
ATOM     20  C   UNL     1      34.503 -14.999 -25.167  0.00  0.00    +0.052 C 
ENDBRANCH  10  15
ENDBRANCH   5   9
BRANCH   2  21
ATOM     21  C   UNL     1      33.990 -22.792 -15.611  0.00  0.00    -0.047 C 
BRANCH  21  23
ATOM     22  O   UNL     1      38.795 -25.756 -12.917  0.00  0.00    -0.226 OA
ATOM     23  N   UNL     1      34.590 -23.714 -14.647  0.00  0.00    +0.392 N 
ATOM     24  N   UNL     1      36.688 -24.781 -13.024  0.00  0.00    -0.250 N 
ATOM     25  C   UNL     1      35.705 -24.449 -15.261  0.00  0.00    -0.055 C 
ATOM     26  C   UNL     1      35.048 -22.985 -13.454  0.00  0.00    -0.055 C 
ATOM     27  C   UNL     1      36.312 -25.442 -14.271  0.00  0.00    +0.074 C 
ATOM     28  C   UNL     1      35.645 -23.946 -12.424  0.00  0.00    +0.074 C 
ATOM     29  C   UNL     1      37.916 -25.056 -12.417  0.00  0.00    +0.405 C 
ATOM     30  H   UNL     1      33.880 -24.387 -14.361  0.00  0.00    -0.079 HD
BRANCH  29  31
ATOM     31  O   UNL     1      38.043 -24.460 -11.189  0.00  0.00    -0.430 OA
ATOM     32  C   UNL     1      38.708 -23.192 -11.169  0.00  0.00    +0.257 C 
ENDBRANCH  29  31
ENDBRANCH  21  23
ENDBRANCH   2  21
TORSDOF 5
ENDMDL
MODEL 9
REMARK VINA RESULT:      -9.6      5.672     11.482
REMARK  Name = 11689883
REMARK  5 active torsions:
REMARK  status: ('A' for Active; 'I' for Inactive)
REMARK    1  A    between atoms: C_2  and  C_21
REMARK    2  A    between atoms: C_5  and  N_9
REMARK    3  A    between atoms: N_10  and  C_15
REMARK    4  A    between atoms: C_21  and  N_23
REMARK    5  A    between atoms: C_29  and  O_31
REMARK                            x       y       z     vdW  Elec       q    Type
REMARK                         _______ _______ _______ _____ _____    ______ ____
ROOT
ATOM      1  F   UNL     1      33.716 -22.036 -14.750  0.00  0.00    -0.203 F 
ATOM      2  C   UNL     1      32.517 -23.768 -13.664  0.00  0.00    -0.014 C 
ATOM      3  C   UNL     1      32.658 -22.862 -14.706  0.00  0.00    +0.147 C 
ATOM      4  C   UNL     1      31.429 -24.628 -13.608  0.00  0.00    -0.004 C 
ATOM      5  C   UNL     1      31.692 -22.813 -15.711  0.00  0.00    +0.079 C 
ATOM      6  C   UNL     1      30.462 -24.579 -14.612  0.00  0.00    +0.001 C 
ATOM      7  C   UNL     1      30.593 -23.672 -15.664  0.00  0.00    +0.017 C 
ENDROOT
BRANCH   5   9
ATOM      8  O   UNL     1      34.039 -22.209 -17.455  0.00  0.00    -0.252 OA
ATOM      9  N   UNL     1      31.821 -21.906 -16.763  0.00  0.00    -0.266 N 
ATOM     10  N   UNL     1      32.652 -20.654 -18.517  0.00  0.00    -0.267 N 
ATOM     11  C   UNL     1      32.955 -21.646 -17.571  0.00  0.00    +0.308 C 
ATOM     12  H   UNL     1      31.018 -21.376 -16.972  0.00  0.00    +0.156 HD
ATOM     13  H   UNL     1      31.736 -20.295 -18.488  0.00  0.00    +0.156 HD
BRANCH  10  15
ATOM     14  N   UNL     1      33.722 -18.965 -21.606  0.00  0.00    -0.247 NA
ATOM     15  C   UNL     1      33.502 -20.107 -19.508  0.00  0.00    +0.071 C 
ATOM     16  C   UNL     1      34.871 -20.173 -19.362  0.00  0.00    +0.018 C 
ATOM     17  C   UNL     1      32.968 -19.506 -20.623  0.00  0.00    +0.113 C 
ATOM     18  C   UNL     1      35.681 -19.626 -20.353  0.00  0.00    +0.016 C 
ATOM     19  C   UNL     1      35.061 -19.040 -21.445  0.00  0.00    +0.059 C 
ATOM     20  C   UNL     1      35.899 -18.443 -22.527  0.00  0.00    +0.052 C 
ENDBRANCH  10  15
ENDBRANCH   5   9
BRANCH   2  21
ATOM     21  C   UNL     1      33.559 -23.824 -12.579  0.00  0.00    -0.047 C 
BRANCH  21  23
ATOM     22  O   UNL     1      39.810 -23.887 -12.368  0.00  0.00    -0.226 OA
ATOM     23  N   UNL     1      34.893 -23.505 -13.086  0.00  0.00    +0.392 N 
ATOM     24  N   UNL     1      37.717 -23.842 -13.377  0.00  0.00    -0.250 N 
ATOM     25  C   UNL     1      35.800 -23.171 -11.978  0.00  0.00    -0.055 C 
ATOM     26  C   UNL     1      35.429 -24.628 -13.870  0.00  0.00    -0.055 C 
ATOM     27  C   UNL     1      37.185 -22.798 -12.505  0.00  0.00    +0.074 C 
ATOM     28  C   UNL     1      36.810 -24.290 -14.435  0.00  0.00    +0.074 C 
ATOM     29  C   UNL     1      39.044 -24.260 -13.256  0.00  0.00    +0.405 C 
ATOM     30  H   UNL     1      34.818 -22.692 -13.697  0.00  0.00    -0.079 HD
BRANCH  29  31
ATOM     31  O   UNL     1      39.413 -25.138 -14.241  0.00  0.00    -0.430 OA
ATOM     32  C   UNL     1      40.763 -25.614 -14.188  0.00  0.00    +0.257 C 
ENDBRANCH  29  31
ENDBRANCH  21  23
ENDBRANCH   2  21
TORSDOF 5
ENDMDL
