MODEL 1
REMARK VINA RESULT:      -9.0      0.000      0.000
REMARK  Name = 59174488
REMARK  8 active torsions:
REMARK  status: ('A' for Active; 'I' for Inactive)
REMARK    1  A    between atoms: N_2  and  C_12
REMARK    2  A    between atoms: N_3  and  C_24
REMARK    3  A    between atoms: C_14  and  N_19
REMARK    4  A    between atoms: C_20  and  C_22
REMARK    5  A    between atoms: C_25  and  O_30
REMARK    6  A    between atoms: O_30  and  C_31
REMARK    7  A    between atoms: C_31  and  C_32
REMARK    8  A    between atoms: C_32  and  O_33
REMARK                            x       y       z     vdW  Elec       q    Type
REMARK                         _______ _______ _______ _____ _____    ______ ____
ROOT
ATOM      1  F   UNL     1      32.798  -3.891 -22.205  0.00  0.00    -0.198 F 
ATOM      2  N   UNL     1      33.228  -6.399 -23.277  0.00  0.00    -0.285 N 
ATOM      3  N   UNL     1      31.771  -8.302 -19.207  0.00  0.00    -0.247 N 
ATOM      4  N   UNL     1      32.497  -7.377 -21.234  0.00  0.00    -0.320 NA
ATOM      5  N   UNL     1      31.809  -5.967 -19.406  0.00  0.00    -0.167 NA
ATOM      6  C   UNL     1      32.742  -6.262 -21.953  0.00  0.00    +0.226 C 
ATOM      7  C   UNL     1      32.039  -7.159 -19.987  0.00  0.00    +0.150 C 
ATOM      8  C   UNL     1      32.549  -4.983 -21.474  0.00  0.00    +0.205 C 
ATOM      9  C   UNL     1      32.076  -4.895 -20.181  0.00  0.00    +0.145 C 
ATOM     10  H   UNL     1      32.956  -5.667 -23.877  0.00  0.00    +0.155 HD
ATOM     11  H   UNL     1      31.438  -8.094 -18.304  0.00  0.00    +0.165 HD
ENDROOT
BRANCH   2  12
ATOM     12  C   UNL     1      34.022  -7.376 -23.900  0.00  0.00    +0.051 C 
ATOM     13  C   UNL     1      33.664  -8.722 -23.817  0.00  0.00    +0.029 C 
ATOM     14  C   UNL     1      34.454  -9.692 -24.435  0.00  0.00    +0.052 C 
ATOM     15  C   UNL     1      35.167  -7.000 -24.602  0.00  0.00    +0.015 C 
ATOM     16  C   UNL     1      35.599  -9.316 -25.137  0.00  0.00    +0.015 C 
ATOM     17  C   UNL     1      35.956  -7.969 -25.221  0.00  0.00    +0.003 C 
BRANCH  14  19
ATOM     18  O   UNL     1      33.801 -11.666 -26.601  0.00  0.00    -0.270 OA
ATOM     19  N   UNL     1      34.096 -11.039 -24.353  0.00  0.00    -0.280 N 
ATOM     20  C   UNL     1      33.801 -11.919 -25.402  0.00  0.00    +0.250 C 
ATOM     21  H   UNL     1      34.044 -11.416 -23.446  0.00  0.00    +0.155 HD
BRANCH  20  22
ATOM     22  C   UNL     1      33.461 -13.281 -24.899  0.00  0.00    +0.058 C 
ATOM     23  C   UNL     1      33.645 -13.597 -23.613  0.00  0.00    +0.005 C 
ENDBRANCH  20  22
ENDBRANCH  14  19
ENDBRANCH   2  12
BRANCH   3  24
ATOM     24  C   UNL     1      31.886  -9.683 -19.465  0.00  0.00    +0.058 C 
ATOM     25  C   UNL     1      32.117 -12.416 -19.976  0.00  0.00    +0.139 C 
ATOM     26  C   UNL     1      32.122 -10.133 -20.765  0.00  0.00    +0.018 C 
ATOM     27  C   UNL     1      31.766 -10.600 -18.422  0.00  0.00    +0.018 C 
ATOM     28  C   UNL     1      32.238 -11.499 -21.021  0.00  0.00    +0.038 C 
ATOM     29  C   UNL     1      31.881 -11.967 -18.677  0.00  0.00    +0.038 C 
BRANCH  25  30
ATOM     30  O   UNL     1      32.230 -13.750 -20.226  0.00  0.00    -0.473 OA
BRANCH  30  31
ATOM     31  C   UNL     1      33.145 -14.487 -19.416  0.00  0.00    +0.237 C 
BRANCH  31  32
ATOM     32  C   UNL     1      34.507 -14.486 -20.082  0.00  0.00    +0.189 C 
BRANCH  32  33
ATOM     33  O   UNL     1      35.291 -15.541 -19.537  0.00  0.00    -0.347 OA
ATOM     34  C   UNL     1      35.417 -16.621 -20.451  0.00  0.00    +0.174 C 
ENDBRANCH  32  33
ENDBRANCH  31  32
ENDBRANCH  30  31
ENDBRANCH  25  30
ENDBRANCH   3  24
TORSDOF 8
ENDMDL
MODEL 2
REMARK VINA RESULT:      -8.5      3.342      7.418
REMARK  Name = 59174488
REMARK  8 active torsions:
REMARK  status: ('A' for Active; 'I' for Inactive)
REMARK    1  A    between atoms: N_2  and  C_12
REMARK    2  A    between atoms: N_3  and  C_24
REMARK    3  A    between atoms: C_14  and  N_19
REMARK    4  A    between atoms: C_20  and  C_22
REMARK    5  A    between atoms: C_25  and  O_30
REMARK    6  A    between atoms: O_30  and  C_31
REMARK    7  A    between atoms: C_31  and  C_32
REMARK    8  A    between atoms: C_32  and  O_33
REMARK                            x       y       z     vdW  Elec       q    Type
REMARK                         _______ _______ _______ _____ _____    ______ ____
ROOT
ATOM      1  F   UNL     1      33.413 -10.732 -25.971  0.00  0.00    -0.198 F 
ATOM      2  N   UNL     1      33.587 -11.469 -23.316  0.00  0.00    -0.285 N 
ATOM      3  N   UNL     1      34.736 -15.841 -24.688  0.00  0.00    -0.247 N 
ATOM      4  N   UNL     1      34.167 -13.678 -23.987  0.00  0.00    -0.320 NA
ATOM      5  N   UNL     1      34.325 -14.220 -26.329  0.00  0.00    -0.167 NA
ATOM      6  C   UNL     1      33.841 -12.417 -24.338  0.00  0.00    +0.226 C 
ATOM      7  C   UNL     1      34.392 -14.515 -25.018  0.00  0.00    +0.150 C 
ATOM      8  C   UNL     1      33.738 -11.988 -25.645  0.00  0.00    +0.205 C 
ATOM      9  C   UNL     1      33.993 -12.942 -26.609  0.00  0.00    +0.145 C 
ATOM     10  H   UNL     1      33.813 -10.545 -23.567  0.00  0.00    +0.155 HD
ATOM     11  H   UNL     1      34.892 -16.415 -25.472  0.00  0.00    +0.165 HD
ENDROOT
BRANCH   2  12
ATOM     12  C   UNL     1      33.074 -11.594 -22.014  0.00  0.00    +0.051 C 
ATOM     13  C   UNL     1      32.787 -10.453 -21.265  0.00  0.00    +0.029 C 
ATOM     14  C   UNL     1      32.279 -10.578 -19.972  0.00  0.00    +0.052 C 
ATOM     15  C   UNL     1      32.851 -12.859 -21.471  0.00  0.00    +0.015 C 
ATOM     16  C   UNL     1      32.056 -11.843 -19.429  0.00  0.00    +0.015 C 
ATOM     17  C   UNL     1      32.343 -12.985 -20.179  0.00  0.00    +0.003 C 
BRANCH  14  19
ATOM     18  O   UNL     1      33.014  -7.705 -20.444  0.00  0.00    -0.270 OA
ATOM     19  N   UNL     1      31.991  -9.436 -19.222  0.00  0.00    -0.280 N 
ATOM     20  C   UNL     1      32.361  -8.111 -19.490  0.00  0.00    +0.250 C 
ATOM     21  H   UNL     1      31.464  -9.580 -18.404  0.00  0.00    +0.155 HD
BRANCH  20  22
ATOM     22  C   UNL     1      31.858  -7.177 -18.442  0.00  0.00    +0.058 C 
ATOM     23  C   UNL     1      32.144  -5.873 -18.500  0.00  0.00    +0.005 C 
ENDBRANCH  20  22
ENDBRANCH  14  19
ENDBRANCH   2  12
BRANCH   3  24
ATOM     24  C   UNL     1      34.902 -16.506 -23.456  0.00  0.00    +0.058 C 
ATOM     25  C   UNL     1      35.232 -17.825 -21.020  0.00  0.00    +0.139 C 
ATOM     26  C   UNL     1      34.670 -17.880 -23.368  0.00  0.00    +0.018 C 
ATOM     27  C   UNL     1      35.298 -15.794 -22.325  0.00  0.00    +0.018 C 
ATOM     28  C   UNL     1      34.836 -18.539 -22.151  0.00  0.00    +0.038 C 
ATOM     29  C   UNL     1      35.463 -16.452 -21.106  0.00  0.00    +0.038 C 
BRANCH  25  30
ATOM     30  O   UNL     1      35.393 -18.469 -19.831  0.00  0.00    -0.473 OA
BRANCH  30  31
ATOM     31  C   UNL     1      35.105 -19.866 -19.804  0.00  0.00    +0.237 C 
BRANCH  31  32
ATOM     32  C   UNL     1      36.158 -20.572 -18.973  0.00  0.00    +0.189 C 
BRANCH  32  33
ATOM     33  O   UNL     1      35.544 -21.635 -18.252  0.00  0.00    -0.347 OA
ATOM     34  C   UNL     1      34.127 -21.569 -18.334  0.00  0.00    +0.174 C 
ENDBRANCH  32  33
ENDBRANCH  31  32
ENDBRANCH  30  31
ENDBRANCH  25  30
ENDBRANCH   3  24
TORSDOF 8
ENDMDL
MODEL 3
REMARK VINA RESULT:      -8.4      3.539      7.567
REMARK  Name = 59174488
REMARK  8 active torsions:
REMARK  status: ('A' for Active; 'I' for Inactive)
REMARK    1  A    between atoms: N_2  and  C_12
REMARK    2  A    between atoms: N_3  and  C_24
REMARK    3  A    between atoms: C_14  and  N_19
REMARK    4  A    between atoms: C_20  and  C_22
REMARK    5  A    between atoms: C_25  and  O_30
REMARK    6  A    between atoms: O_30  and  C_31
REMARK    7  A    between atoms: C_31  and  C_32
REMARK    8  A    between atoms: C_32  and  O_33
REMARK                            x       y       z     vdW  Elec       q    Type
REMARK                         _______ _______ _______ _____ _____    ______ ____
ROOT
ATOM      1  F   UNL     1      34.230 -13.989 -26.358  0.00  0.00    -0.198 F 
ATOM      2  N   UNL     1      33.701 -13.801 -23.655  0.00  0.00    -0.285 N 
ATOM      3  N   UNL     1      33.715  -9.095 -24.062  0.00  0.00    -0.247 N 
ATOM      4  N   UNL     1      33.704 -11.427 -23.839  0.00  0.00    -0.320 NA
ATOM      5  N   UNL     1      34.106 -10.389 -25.976  0.00  0.00    -0.167 NA
ATOM      6  C   UNL     1      33.837 -12.628 -24.439  0.00  0.00    +0.226 C 
ATOM      7  C   UNL     1      33.849 -10.366 -24.655  0.00  0.00    +0.150 C 
ATOM      8  C   UNL     1      34.102 -12.788 -25.783  0.00  0.00    +0.205 C 
ATOM      9  C   UNL     1      34.228 -11.622 -26.510  0.00  0.00    +0.145 C 
ATOM     10  H   UNL     1      33.350 -14.573 -24.154  0.00  0.00    +0.155 HD
ATOM     11  H   UNL     1      33.828  -8.349 -24.695  0.00  0.00    +0.165 HD
ENDROOT
BRANCH   2  12
ATOM     12  C   UNL     1      33.969 -14.074 -22.303  0.00  0.00    +0.051 C 
ATOM     13  C   UNL     1      34.734 -15.187 -21.955  0.00  0.00    +0.029 C 
ATOM     14  C   UNL     1      34.999 -15.458 -20.613  0.00  0.00    +0.052 C 
ATOM     15  C   UNL     1      33.473 -13.230 -21.310  0.00  0.00    +0.015 C 
ATOM     16  C   UNL     1      34.503 -14.614 -19.619  0.00  0.00    +0.015 C 
ATOM     17  C   UNL     1      33.739 -13.499 -19.968  0.00  0.00    +0.003 C 
BRANCH  14  19
ATOM     18  O   UNL     1      34.974 -18.254 -21.707  0.00  0.00    -0.270 OA
ATOM     19  N   UNL     1      35.764 -16.572 -20.264  0.00  0.00    -0.280 N 
ATOM     20  C   UNL     1      35.711 -17.861 -20.810  0.00  0.00    +0.250 C 
ATOM     21  H   UNL     1      36.421 -16.435 -19.544  0.00  0.00    +0.155 HD
BRANCH  20  22
ATOM     22  C   UNL     1      36.695 -18.775 -20.161  0.00  0.00    +0.058 C 
ATOM     23  C   UNL     1      36.300 -19.944 -19.645  0.00  0.00    +0.005 C 
ENDBRANCH  20  22
ENDBRANCH  14  19
ENDBRANCH   2  12
BRANCH   3  24
ATOM     24  C   UNL     1      33.451  -8.680 -22.740  0.00  0.00    +0.058 C 
ATOM     25  C   UNL     1      32.927  -7.857 -20.126  0.00  0.00    +0.139 C 
ATOM     26  C   UNL     1      34.077  -7.543 -22.227  0.00  0.00    +0.018 C 
ATOM     27  C   UNL     1      32.564  -9.405 -21.945  0.00  0.00    +0.018 C 
ATOM     28  C   UNL     1      33.815  -7.131 -20.921  0.00  0.00    +0.038 C 
ATOM     29  C   UNL     1      32.302  -8.994 -20.638  0.00  0.00    +0.038 C 
BRANCH  25  30
ATOM     30  O   UNL     1      32.672  -7.455 -18.851  0.00  0.00    -0.473 OA
BRANCH  30  31
ATOM     31  C   UNL     1      31.762  -6.368 -18.682  0.00  0.00    +0.237 C 
BRANCH  31  32
ATOM     32  C   UNL     1      32.552  -5.089 -18.490  0.00  0.00    +0.189 C 
BRANCH  32  33
ATOM     33  O   UNL     1      32.357  -4.249 -19.622  0.00  0.00    -0.347 OA
ATOM     34  C   UNL     1      31.180  -4.602 -20.335  0.00  0.00    +0.174 C 
ENDBRANCH  32  33
ENDBRANCH  31  32
ENDBRANCH  30  31
ENDBRANCH  25  30
ENDBRANCH   3  24
TORSDOF 8
ENDMDL
MODEL 4
REMARK VINA RESULT:      -8.0      9.823     14.865
REMARK  Name = 59174488
REMARK  8 active torsions:
REMARK  status: ('A' for Active; 'I' for Inactive)
REMARK    1  A    between atoms: N_2  and  C_12
REMARK    2  A    between atoms: N_3  and  C_24
REMARK    3  A    between atoms: C_14  and  N_19
REMARK    4  A    between atoms: C_20  and  C_22
REMARK    5  A    between atoms: C_25  and  O_30
REMARK    6  A    between atoms: O_30  and  C_31
REMARK    7  A    between atoms: C_31  and  C_32
REMARK    8  A    between atoms: C_32  and  O_33
REMARK                            x       y       z     vdW  Elec       q    Type
REMARK                         _______ _______ _______ _____ _____    ______ ____
ROOT
ATOM      1  F   UNL     1      32.375 -23.706 -13.253  0.00  0.00    -0.198 F 
ATOM      2  N   UNL     1      34.600 -22.424 -14.268  0.00  0.00    -0.285 N 
ATOM      3  N   UNL     1      32.151 -21.450 -18.188  0.00  0.00    -0.247 N 
ATOM      4  N   UNL     1      33.383 -21.924 -16.252  0.00  0.00    -0.320 NA
ATOM      5  N   UNL     1      31.094 -22.644 -16.471  0.00  0.00    -0.167 NA
ATOM      6  C   UNL     1      33.407 -22.494 -15.029  0.00  0.00    +0.226 C 
ATOM      7  C   UNL     1      32.212 -22.035 -16.908  0.00  0.00    +0.150 C 
ATOM      8  C   UNL     1      32.330 -23.148 -14.468  0.00  0.00    +0.205 C 
ATOM      9  C   UNL     1      31.189 -23.192 -15.241  0.00  0.00    +0.145 C 
ATOM     10  H   UNL     1      34.450 -22.415 -13.296  0.00  0.00    +0.155 HD
ATOM     11  H   UNL     1      31.277 -21.556 -18.629  0.00  0.00    +0.165 HD
ENDROOT
BRANCH   2  12
ATOM     12  C   UNL     1      35.955 -22.367 -14.634  0.00  0.00    +0.051 C 
ATOM     13  C   UNL     1      36.823 -23.393 -14.260  0.00  0.00    +0.029 C 
ATOM     14  C   UNL     1      38.169 -23.335 -14.622  0.00  0.00    +0.052 C 
ATOM     15  C   UNL     1      36.433 -21.284 -15.372  0.00  0.00    +0.015 C 
ATOM     16  C   UNL     1      38.646 -22.252 -15.361  0.00  0.00    +0.015 C 
ATOM     17  C   UNL     1      37.778 -21.226 -15.736  0.00  0.00    +0.003 C 
BRANCH  14  19
ATOM     18  O   UNL     1      37.820 -26.315 -14.738  0.00  0.00    -0.270 OA
ATOM     19  N   UNL     1      39.037 -24.362 -14.249  0.00  0.00    -0.280 N 
ATOM     20  C   UNL     1      38.823 -25.744 -14.324  0.00  0.00    +0.250 C 
ATOM     21  H   UNL     1      39.907 -24.079 -13.886  0.00  0.00    +0.155 HD
BRANCH  20  22
ATOM     22  C   UNL     1      39.999 -26.512 -13.823  0.00  0.00    +0.058 C 
ATOM     23  C   UNL     1      41.237 -26.031 -13.967  0.00  0.00    +0.005 C 
ENDBRANCH  20  22
ENDBRANCH  14  19
ENDBRANCH   2  12
BRANCH   3  24
ATOM     24  C   UNL     1      33.094 -20.744 -18.962  0.00  0.00    +0.058 C 
ATOM     25  C   UNL     1      34.962 -19.349 -20.495  0.00  0.00    +0.139 C 
ATOM     26  C   UNL     1      34.459 -20.971 -18.777  0.00  0.00    +0.018 C 
ATOM     27  C   UNL     1      32.665 -19.819 -19.913  0.00  0.00    +0.018 C 
ATOM     28  C   UNL     1      35.393 -20.275 -19.544  0.00  0.00    +0.038 C 
ATOM     29  C   UNL     1      33.599 -19.121 -20.680  0.00  0.00    +0.038 C 
BRANCH  25  30
ATOM     30  O   UNL     1      35.874 -18.669 -21.244  0.00  0.00    -0.473 OA
BRANCH  30  31
ATOM     31  C   UNL     1      35.365 -17.798 -22.253  0.00  0.00    +0.237 C 
BRANCH  31  32
ATOM     32  C   UNL     1      35.630 -16.362 -21.847  0.00  0.00    +0.189 C 
BRANCH  32  33
ATOM     33  O   UNL     1      35.038 -15.492 -22.804  0.00  0.00    -0.347 OA
ATOM     34  C   UNL     1      34.899 -16.125 -24.068  0.00  0.00    +0.174 C 
ENDBRANCH  32  33
ENDBRANCH  31  32
ENDBRANCH  30  31
ENDBRANCH  25  30
ENDBRANCH   3  24
TORSDOF 8
ENDMDL
MODEL 5
REMARK VINA RESULT:      -8.0      2.504      3.973
REMARK  Name = 59174488
REMARK  8 active torsions:
REMARK  status: ('A' for Active; 'I' for Inactive)
REMARK    1  A    between atoms: N_2  and  C_12
REMARK    2  A    between atoms: N_3  and  C_24
REMARK    3  A    between atoms: C_14  and  N_19
REMARK    4  A    between atoms: C_20  and  C_22
REMARK    5  A    between atoms: C_25  and  O_30
REMARK    6  A    between atoms: O_30  and  C_31
REMARK    7  A    between atoms: C_31  and  C_32
REMARK    8  A    between atoms: C_32  and  O_33
REMARK                            x       y       z     vdW  Elec       q    Type
REMARK                         _______ _______ _______ _____ _____    ______ ____
ROOT
ATOM      1  F   UNL     1      31.146  -7.719 -18.854  0.00  0.00    -0.198 F 
ATOM      2  N   UNL     1      32.475  -8.407 -21.174  0.00  0.00    -0.285 N 
ATOM      3  N   UNL     1      32.686 -12.868 -19.636  0.00  0.00    -0.247 N 
ATOM      4  N   UNL     1      32.592 -10.661 -20.417  0.00  0.00    -0.320 NA
ATOM      5  N   UNL     1      31.645 -11.262 -18.284  0.00  0.00    -0.167 NA
ATOM      6  C   UNL     1      32.196  -9.390 -20.193  0.00  0.00    +0.226 C 
ATOM      7  C   UNL     1      32.288 -11.531 -19.435  0.00  0.00    +0.150 C 
ATOM      8  C   UNL     1      31.530  -8.985 -19.055  0.00  0.00    +0.205 C 
ATOM      9  C   UNL     1      31.278  -9.972 -18.126  0.00  0.00    +0.145 C 
ATOM     10  H   UNL     1      31.814  -7.679 -21.205  0.00  0.00    +0.155 HD
ATOM     11  H   UNL     1      32.443 -13.468 -18.894  0.00  0.00    +0.165 HD
ENDROOT
BRANCH   2  12
ATOM     12  C   UNL     1      33.512  -8.271 -22.112  0.00  0.00    +0.051 C 
ATOM     13  C   UNL     1      33.649  -9.202 -23.141  0.00  0.00    +0.029 C 
ATOM     14  C   UNL     1      34.680  -9.067 -24.071  0.00  0.00    +0.052 C 
ATOM     15  C   UNL     1      34.404  -7.203 -22.014  0.00  0.00    +0.015 C 
ATOM     16  C   UNL     1      35.572  -7.999 -23.973  0.00  0.00    +0.015 C 
ATOM     17  C   UNL     1      35.434  -7.067 -22.944  0.00  0.00    +0.003 C 
BRANCH  14  19
ATOM     18  O   UNL     1      36.214  -8.905 -26.647  0.00  0.00    -0.270 OA
ATOM     19  N   UNL     1      34.817  -9.999 -25.101  0.00  0.00    -0.280 N 
ATOM     20  C   UNL     1      35.550  -9.871 -26.289  0.00  0.00    +0.250 C 
ATOM     21  H   UNL     1      34.339 -10.850 -24.979  0.00  0.00    +0.155 HD
BRANCH  20  22
ATOM     22  C   UNL     1      35.442 -11.093 -27.136  0.00  0.00    +0.058 C 
ATOM     23  C   UNL     1      34.505 -12.013 -26.889  0.00  0.00    +0.005 C 
ENDBRANCH  20  22
ENDBRANCH  14  19
ENDBRANCH   2  12
BRANCH   3  24
ATOM     24  C   UNL     1      33.363 -13.516 -20.689  0.00  0.00    +0.058 C 
ATOM     25  C   UNL     1      34.706 -14.794 -22.774  0.00  0.00    +0.139 C 
ATOM     26  C   UNL     1      33.036 -13.223 -22.014  0.00  0.00    +0.018 C 
ATOM     27  C   UNL     1      34.361 -14.448 -20.409  0.00  0.00    +0.018 C 
ATOM     28  C   UNL     1      33.707 -13.861 -23.056  0.00  0.00    +0.038 C 
ATOM     29  C   UNL     1      35.033 -15.088 -21.451  0.00  0.00    +0.038 C 
BRANCH  25  30
ATOM     30  O   UNL     1      35.361 -15.418 -23.792  0.00  0.00    -0.473 OA
BRANCH  30  31
ATOM     31  C   UNL     1      34.561 -16.093 -24.762  0.00  0.00    +0.237 C 
BRANCH  31  32
ATOM     32  C   UNL     1      34.205 -17.470 -24.238  0.00  0.00    +0.189 C 
BRANCH  32  33
ATOM     33  O   UNL     1      35.295 -17.970 -23.472  0.00  0.00    -0.347 OA
ATOM     34  C   UNL     1      34.844 -18.657 -22.313  0.00  0.00    +0.174 C 
ENDBRANCH  32  33
ENDBRANCH  31  32
ENDBRANCH  30  31
ENDBRANCH  25  30
ENDBRANCH   3  24
TORSDOF 8
ENDMDL
MODEL 6
REMARK VINA RESULT:      -8.0      3.672      7.585
REMARK  Name = 59174488
REMARK  8 active torsions:
REMARK  status: ('A' for Active; 'I' for Inactive)
REMARK    1  A    between atoms: N_2  and  C_12
REMARK    2  A    between atoms: N_3  and  C_24
REMARK    3  A    between atoms: C_14  and  N_19
REMARK    4  A    between atoms: C_20  and  C_22
REMARK    5  A    between atoms: C_25  and  O_30
REMARK    6  A    between atoms: O_30  and  C_31
REMARK    7  A    between atoms: C_31  and  C_32
REMARK    8  A    between atoms: C_32  and  O_33
REMARK                            x       y       z     vdW  Elec       q    Type
REMARK                         _______ _______ _______ _____ _____    ______ ____
ROOT
ATOM      1  F   UNL     1      32.450  -7.126 -19.436  0.00  0.00    -0.198 F 
ATOM      2  N   UNL     1      33.914  -7.391 -21.762  0.00  0.00    -0.285 N 
ATOM      3  N   UNL     1      31.588  -3.690 -23.553  0.00  0.00    -0.247 N 
ATOM      4  N   UNL     1      32.753  -5.528 -22.682  0.00  0.00    -0.320 NA
ATOM      5  N   UNL     1      31.067  -4.400 -21.381  0.00  0.00    -0.167 NA
ATOM      6  C   UNL     1      32.943  -6.365 -21.642  0.00  0.00    +0.226 C 
ATOM      7  C   UNL     1      31.813  -4.583 -22.487  0.00  0.00    +0.150 C 
ATOM      8  C   UNL     1      32.244  -6.285 -20.456  0.00  0.00    +0.205 C 
ATOM      9  C   UNL     1      31.310  -5.273 -20.380  0.00  0.00    +0.145 C 
ATOM     10  H   UNL     1      34.332  -7.643 -20.908  0.00  0.00    +0.155 HD
ATOM     11  H   UNL     1      30.894  -3.017 -23.364  0.00  0.00    +0.165 HD
ENDROOT
BRANCH   2  12
ATOM     12  C   UNL     1      34.394  -8.117 -22.864  0.00  0.00    +0.051 C 
ATOM     13  C   UNL     1      33.915  -9.403 -23.116  0.00  0.00    +0.029 C 
ATOM     14  C   UNL     1      34.393 -10.123 -24.210  0.00  0.00    +0.052 C 
ATOM     15  C   UNL     1      35.349  -7.551 -23.709  0.00  0.00    +0.015 C 
ATOM     16  C   UNL     1      35.348  -9.558 -25.054  0.00  0.00    +0.015 C 
ATOM     17  C   UNL     1      35.827  -8.271 -24.804  0.00  0.00    +0.003 C 
BRANCH  14  19
ATOM     18  O   UNL     1      34.552 -12.618 -22.547  0.00  0.00    -0.270 OA
ATOM     19  N   UNL     1      33.913 -11.410 -24.462  0.00  0.00    -0.280 N 
ATOM     20  C   UNL     1      34.015 -12.544 -23.646  0.00  0.00    +0.250 C 
ATOM     21  H   UNL     1      33.447 -11.535 -25.319  0.00  0.00    +0.155 HD
BRANCH  20  22
ATOM     22  C   UNL     1      33.373 -13.734 -24.275  0.00  0.00    +0.058 C 
ATOM     23  C   UNL     1      34.097 -14.814 -24.585  0.00  0.00    +0.005 C 
ENDBRANCH  20  22
ENDBRANCH  14  19
ENDBRANCH   2  12
BRANCH   3  24
ATOM     24  C   UNL     1      32.160  -3.570 -24.836  0.00  0.00    +0.058 C 
ATOM     25  C   UNL     1      33.291  -3.335 -27.376  0.00  0.00    +0.139 C 
ATOM     26  C   UNL     1      33.133  -4.479 -25.253  0.00  0.00    +0.018 C 
ATOM     27  C   UNL     1      31.754  -2.544 -25.688  0.00  0.00    +0.018 C 
ATOM     28  C   UNL     1      33.698  -4.362 -26.523  0.00  0.00    +0.038 C 
ATOM     29  C   UNL     1      32.319  -2.426 -26.958  0.00  0.00    +0.038 C 
BRANCH  25  30
ATOM     30  O   UNL     1      33.842  -3.221 -28.615  0.00  0.00    -0.473 OA
BRANCH  30  31
ATOM     31  C   UNL     1      35.172  -2.707 -28.690  0.00  0.00    +0.237 C 
BRANCH  31  32
ATOM     32  C   UNL     1      36.050  -3.711 -29.409  0.00  0.00    +0.189 C 
BRANCH  32  33
ATOM     33  O   UNL     1      36.813  -4.432 -28.448  0.00  0.00    -0.347 OA
ATOM     34  C   UNL     1      37.218  -3.596 -27.372  0.00  0.00    +0.174 C 
ENDBRANCH  32  33
ENDBRANCH  31  32
ENDBRANCH  30  31
ENDBRANCH  25  30
ENDBRANCH   3  24
TORSDOF 8
ENDMDL
MODEL 7
REMARK VINA RESULT:      -7.9      3.823      8.507
REMARK  Name = 59174488
REMARK  8 active torsions:
REMARK  status: ('A' for Active; 'I' for Inactive)
REMARK    1  A    between atoms: N_2  and  C_12
REMARK    2  A    between atoms: N_3  and  C_24
REMARK    3  A    between atoms: C_14  and  N_19
REMARK    4  A    between atoms: C_20  and  C_22
REMARK    5  A    between atoms: C_25  and  O_30
REMARK    6  A    between atoms: O_30  and  C_31
REMARK    7  A    between atoms: C_31  and  C_32
REMARK    8  A    between atoms: C_32  and  O_33
REMARK                            x       y       z     vdW  Elec       q    Type
REMARK                         _______ _______ _______ _____ _____    ______ ____
ROOT
ATOM      1  F   UNL     1      31.921 -13.241 -20.439  0.00  0.00    -0.198 F 
ATOM      2  N   UNL     1      31.893 -10.494 -20.710  0.00  0.00    -0.285 N 
ATOM      3  N   UNL     1      34.963 -10.893 -24.277  0.00  0.00    -0.247 N 
ATOM      4  N   UNL     1      33.440 -10.674 -22.510  0.00  0.00    -0.320 NA
ATOM      5  N   UNL     1      34.232 -12.842 -23.201  0.00  0.00    -0.167 NA
ATOM      6  C   UNL     1      32.695 -11.287 -21.566  0.00  0.00    +0.226 C 
ATOM      7  C   UNL     1      34.173 -11.500 -23.280  0.00  0.00    +0.150 C 
ATOM      8  C   UNL     1      32.668 -12.654 -21.381  0.00  0.00    +0.205 C 
ATOM      9  C   UNL     1      33.462 -13.389 -22.236  0.00  0.00    +0.145 C 
ATOM     10  H   UNL     1      31.077 -10.948 -20.398  0.00  0.00    +0.155 HD
ATOM     11  H   UNL     1      35.480 -11.535 -24.816  0.00  0.00    +0.165 HD
ENDROOT
BRANCH   2  12
ATOM     12  C   UNL     1      32.036  -9.185 -20.220  0.00  0.00    +0.051 C 
ATOM     13  C   UNL     1      32.164  -8.117 -21.109  0.00  0.00    +0.029 C 
ATOM     14  C   UNL     1      32.307  -6.818 -20.622  0.00  0.00    +0.052 C 
ATOM     15  C   UNL     1      32.048  -8.953 -18.845  0.00  0.00    +0.015 C 
ATOM     16  C   UNL     1      32.319  -6.586 -19.247  0.00  0.00    +0.015 C 
ATOM     17  C   UNL     1      32.190  -7.654 -18.358  0.00  0.00    +0.003 C 
BRANCH  14  19
ATOM     18  O   UNL     1      30.618  -4.359 -20.963  0.00  0.00    -0.270 OA
ATOM     19  N   UNL     1      32.435  -5.750 -21.511  0.00  0.00    -0.280 N 
ATOM     20  C   UNL     1      31.613  -4.621 -21.628  0.00  0.00    +0.250 C 
ATOM     21  H   UNL     1      33.196  -5.796 -22.134  0.00  0.00    +0.155 HD
BRANCH  20  22
ATOM     22  C   UNL     1      32.087  -3.705 -22.706  0.00  0.00    +0.058 C 
ATOM     23  C   UNL     1      32.496  -4.191 -23.881  0.00  0.00    +0.005 C 
ENDBRANCH  20  22
ENDBRANCH  14  19
ENDBRANCH   2  12
BRANCH   3  24
ATOM     24  C   UNL     1      35.158  -9.549 -24.656  0.00  0.00    +0.058 C 
ATOM     25  C   UNL     1      35.541  -6.890 -25.407  0.00  0.00    +0.139 C 
ATOM     26  C   UNL     1      35.900  -9.246 -25.798  0.00  0.00    +0.018 C 
ATOM     27  C   UNL     1      34.608  -8.522 -23.889  0.00  0.00    +0.018 C 
ATOM     28  C   UNL     1      36.091  -7.917 -26.174  0.00  0.00    +0.038 C 
ATOM     29  C   UNL     1      34.799  -7.192 -24.264  0.00  0.00    +0.038 C 
BRANCH  25  30
ATOM     30  O   UNL     1      35.728  -5.592 -25.773  0.00  0.00    -0.473 OA
BRANCH  30  31
ATOM     31  C   UNL     1      36.361  -5.357 -27.030  0.00  0.00    +0.237 C 
BRANCH  31  32
ATOM     32  C   UNL     1      36.363  -3.867 -27.312  0.00  0.00    +0.189 C 
BRANCH  32  33
ATOM     33  O   UNL     1      35.637  -3.621 -28.511  0.00  0.00    -0.347 OA
ATOM     34  C   UNL     1      34.236  -3.615 -28.279  0.00  0.00    +0.174 C 
ENDBRANCH  32  33
ENDBRANCH  31  32
ENDBRANCH  30  31
ENDBRANCH  25  30
ENDBRANCH   3  24
TORSDOF 8
ENDMDL
MODEL 8
REMARK VINA RESULT:      -7.9      2.782      4.772
REMARK  Name = 59174488
REMARK  8 active torsions:
REMARK  status: ('A' for Active; 'I' for Inactive)
REMARK    1  A    between atoms: N_2  and  C_12
REMARK    2  A    between atoms: N_3  and  C_24
REMARK    3  A    between atoms: C_14  and  N_19
REMARK    4  A    between atoms: C_20  and  C_22
REMARK    5  A    between atoms: C_25  and  O_30
REMARK    6  A    between atoms: O_30  and  C_31
REMARK    7  A    between atoms: C_31  and  C_32
REMARK    8  A    between atoms: C_32  and  O_33
REMARK                            x       y       z     vdW  Elec       q    Type
REMARK                         _______ _______ _______ _____ _____    ______ ____
ROOT
ATOM      1  F   UNL     1      31.757  -6.888 -20.267  0.00  0.00    -0.198 F 
ATOM      2  N   UNL     1      32.920  -8.065 -22.477  0.00  0.00    -0.285 N 
ATOM      3  N   UNL     1      32.878 -12.202 -20.198  0.00  0.00    -0.247 N 
ATOM      4  N   UNL     1      32.908 -10.159 -21.345  0.00  0.00    -0.320 NA
ATOM      5  N   UNL     1      32.022 -10.311 -19.110  0.00  0.00    -0.167 NA
ATOM      6  C   UNL     1      32.617  -8.842 -21.332  0.00  0.00    +0.226 C 
ATOM      7  C   UNL     1      32.588 -10.823 -20.218  0.00  0.00    +0.150 C 
ATOM      8  C   UNL     1      32.037  -8.196 -20.259  0.00  0.00    +0.205 C 
ATOM      9  C   UNL     1      31.759  -8.988 -19.165  0.00  0.00    +0.145 C 
ATOM     10  H   UNL     1      32.313  -7.302 -22.611  0.00  0.00    +0.155 HD
ATOM     11  H   UNL     1      32.627 -12.645 -19.355  0.00  0.00    +0.165 HD
ENDROOT
BRANCH   2  12
ATOM     12  C   UNL     1      33.918  -8.174 -23.459  0.00  0.00    +0.051 C 
ATOM     13  C   UNL     1      34.352  -7.038 -24.143  0.00  0.00    +0.029 C 
ATOM     14  C   UNL     1      35.343  -7.147 -25.118  0.00  0.00    +0.052 C 
ATOM     15  C   UNL     1      34.478  -9.418 -23.749  0.00  0.00    +0.015 C 
ATOM     16  C   UNL     1      35.902  -8.391 -25.408  0.00  0.00    +0.015 C 
ATOM     17  C   UNL     1      35.470  -9.528 -24.724  0.00  0.00    +0.003 C 
BRANCH  14  19
ATOM     18  O   UNL     1      33.795  -4.791 -26.154  0.00  0.00    -0.270 OA
ATOM     19  N   UNL     1      35.777  -6.010 -25.802  0.00  0.00    -0.280 N 
ATOM     20  C   UNL     1      35.007  -4.935 -26.265  0.00  0.00    +0.250 C 
ATOM     21  H   UNL     1      36.743  -5.959 -25.983  0.00  0.00    +0.155 HD
BRANCH  20  22
ATOM     22  C   UNL     1      35.847  -3.912 -26.953  0.00  0.00    +0.058 C 
ATOM     23  C   UNL     1      37.163  -4.095 -27.093  0.00  0.00    +0.005 C 
ENDBRANCH  20  22
ENDBRANCH  14  19
ENDBRANCH   2  12
BRANCH   3  24
ATOM     24  C   UNL     1      33.455 -13.071 -21.146  0.00  0.00    +0.058 C 
ATOM     25  C   UNL     1      34.600 -14.789 -23.023  0.00  0.00    +0.139 C 
ATOM     26  C   UNL     1      33.090 -12.980 -22.490  0.00  0.00    +0.018 C 
ATOM     27  C   UNL     1      34.392 -14.021 -20.742  0.00  0.00    +0.018 C 
ATOM     28  C   UNL     1      33.662 -13.838 -23.428  0.00  0.00    +0.038 C 
ATOM     29  C   UNL     1      34.965 -14.881 -21.680  0.00  0.00    +0.038 C 
BRANCH  25  30
ATOM     30  O   UNL     1      35.159 -15.627 -23.939  0.00  0.00    -0.473 OA
BRANCH  30  31
ATOM     31  C   UNL     1      34.266 -16.384 -24.756  0.00  0.00    +0.237 C 
BRANCH  31  32
ATOM     32  C   UNL     1      34.220 -17.811 -24.245  0.00  0.00    +0.189 C 
BRANCH  32  33
ATOM     33  O   UNL     1      35.274 -18.003 -23.308  0.00  0.00    -0.347 OA
ATOM     34  C   UNL     1      34.814 -18.661 -22.136  0.00  0.00    +0.174 C 
ENDBRANCH  32  33
ENDBRANCH  31  32
ENDBRANCH  30  31
ENDBRANCH  25  30
ENDBRANCH   3  24
TORSDOF 8
ENDMDL
MODEL 9
REMARK VINA RESULT:      -7.8      3.435      7.202
REMARK  Name = 59174488
REMARK  8 active torsions:
REMARK  status: ('A' for Active; 'I' for Inactive)
REMARK    1  A    between atoms: N_2  and  C_12
REMARK    2  A    between atoms: N_3  and  C_24
REMARK    3  A    between atoms: C_14  and  N_19
REMARK    4  A    between atoms: C_20  and  C_22
REMARK    5  A    between atoms: C_25  and  O_30
REMARK    6  A    between atoms: O_30  and  C_31
REMARK    7  A    between atoms: C_31  and  C_32
REMARK    8  A    between atoms: C_32  and  O_33
REMARK                            x       y       z     vdW  Elec       q    Type
REMARK                         _______ _______ _______ _____ _____    ______ ____
ROOT
ATOM      1  F   UNL     1      32.540 -13.943 -19.461  0.00  0.00    -0.198 F 
ATOM      2  N   UNL     1      33.495 -12.687 -21.727  0.00  0.00    -0.285 N 
ATOM      3  N   UNL     1      31.545  -8.658 -20.218  0.00  0.00    -0.247 N 
ATOM      4  N   UNL     1      32.519 -10.647 -20.984  0.00  0.00    -0.320 NA
ATOM      5  N   UNL     1      31.312 -10.582 -18.900  0.00  0.00    -0.167 NA
ATOM      6  C   UNL     1      32.750 -11.958 -20.767  0.00  0.00    +0.226 C 
ATOM      7  C   UNL     1      31.804 -10.029 -20.025  0.00  0.00    +0.150 C 
ATOM      8  C   UNL     1      32.300 -12.642 -19.657  0.00  0.00    +0.205 C 
ATOM      9  C   UNL     1      31.579 -11.896 -18.748  0.00  0.00    +0.145 C 
ATOM     10  H   UNL     1      34.011 -13.432 -21.345  0.00  0.00    +0.155 HD
ATOM     11  H   UNL     1      31.020  -8.249 -19.492  0.00  0.00    +0.165 HD
ENDROOT
BRANCH   2  12
ATOM     12  C   UNL     1      33.639 -12.550 -23.118  0.00  0.00    +0.051 C 
ATOM     13  C   UNL     1      34.107 -11.352 -23.657  0.00  0.00    +0.029 C 
ATOM     14  C   UNL     1      34.250 -11.217 -25.038  0.00  0.00    +0.052 C 
ATOM     15  C   UNL     1      33.315 -13.614 -23.959  0.00  0.00    +0.015 C 
ATOM     16  C   UNL     1      33.926 -12.281 -25.879  0.00  0.00    +0.015 C 
ATOM     17  C   UNL     1      33.458 -13.480 -25.340  0.00  0.00    +0.003 C 
BRANCH  14  19
ATOM     18  O   UNL     1      36.078  -9.143 -23.868  0.00  0.00    -0.270 OA
ATOM     19  N   UNL     1      34.718 -10.018 -25.577  0.00  0.00    -0.280 N 
ATOM     20  C   UNL     1      35.576  -9.082 -24.984  0.00  0.00    +0.250 C 
ATOM     21  H   UNL     1      34.407  -9.804 -26.486  0.00  0.00    +0.155 HD
BRANCH  20  22
ATOM     22  C   UNL     1      35.839  -7.926 -25.890  0.00  0.00    +0.058 C 
ATOM     23  C   UNL     1      35.716  -6.672 -25.445  0.00  0.00    +0.005 C 
ENDBRANCH  20  22
ENDBRANCH  14  19
ENDBRANCH   2  12
BRANCH   3  24
ATOM     24  C   UNL     1      31.889  -7.756 -21.246  0.00  0.00    +0.058 C 
ATOM     25  C   UNL     1      32.573  -5.973 -23.279  0.00  0.00    +0.139 C 
ATOM     26  C   UNL     1      32.267  -6.450 -20.931  0.00  0.00    +0.018 C 
ATOM     27  C   UNL     1      31.853  -8.169 -22.577  0.00  0.00    +0.018 C 
ATOM     28  C   UNL     1      32.609  -5.559 -21.947  0.00  0.00    +0.038 C 
ATOM     29  C   UNL     1      32.195  -7.278 -23.595  0.00  0.00    +0.038 C 
BRANCH  25  30
ATOM     30  O   UNL     1      32.907  -5.102 -24.271  0.00  0.00    -0.473 OA
BRANCH  30  31
ATOM     31  C   UNL     1      32.704  -3.713 -24.013  0.00  0.00    +0.237 C 
BRANCH  31  32
ATOM     32  C   UNL     1      31.452  -3.254 -24.734  0.00  0.00    +0.189 C 
BRANCH  32  33
ATOM     33  O   UNL     1      30.687  -2.434 -23.859  0.00  0.00    -0.347 OA
ATOM     34  C   UNL     1      31.438  -2.051 -22.716  0.00  0.00    +0.174 C 
ENDBRANCH  32  33
ENDBRANCH  31  32
ENDBRANCH  30  31
ENDBRANCH  25  30
ENDBRANCH   3  24
TORSDOF 8
ENDMDL
