MODEL 1
REMARK VINA RESULT:     -12.3      0.000      0.000
REMARK  Name = 24779724
REMARK  3 active torsions:
REMARK  status: ('A' for Active; 'I' for Inactive)
REMARK    1  A    between atoms: C_5  and  C_12
REMARK    2  A    between atoms: C_7  and  S_16
REMARK    3  A    between atoms: S_16  and  C_19
REMARK                            x       y       z     vdW  Elec       q    Type
REMARK                         _______ _______ _______ _____ _____    ______ ____
ROOT
ATOM      1  N   UNL     1      34.796 -21.024 -18.380  0.00  0.00    -0.186 N 
ATOM      2  N   UNL     1      35.768 -21.392 -17.509  0.00  0.00    -0.162 NA
ATOM      3  N   UNL     1      32.840 -20.792 -19.351  0.00  0.00    -0.126 NA
ATOM      4  N   UNL     1      33.781 -20.107 -20.093  0.00  0.00    -0.120 NA
ATOM      5  C   UNL     1      35.338 -22.122 -16.518  0.00  0.00    +0.104 C 
ATOM      6  C   UNL     1      33.459 -21.338 -18.325  0.00  0.00    +0.187 A 
ATOM      7  C   UNL     1      34.944 -20.258 -19.500  0.00  0.00    +0.217 A 
ATOM      8  C   UNL     1      33.914 -22.556 -16.340  0.00  0.00    +0.024 C 
ATOM      9  C   UNL     1      33.026 -22.143 -17.253  0.00  0.00    +0.042 C 
ENDROOT
BRANCH   5  12
ATOM     10  N   UNL     1      37.237 -23.654 -13.828  0.00  0.00    -0.208 N 
ATOM     11  N   UNL     1      38.197 -22.803 -14.227  0.00  0.00    -0.176 NA
ATOM     12  C   UNL     1      36.307 -22.585 -15.492  0.00  0.00    +0.056 C 
ATOM     13  C   UNL     1      36.084 -23.563 -14.554  0.00  0.00    +0.087 C 
ATOM     14  C   UNL     1      37.624 -22.152 -15.243  0.00  0.00    +0.121 C 
ATOM     15  C   UNL     1      37.485 -24.550 -12.724  0.00  0.00    +0.140 C 
ENDBRANCH   5  12
BRANCH   7  16
ATOM     16  S   UNL     1      36.510 -19.583 -20.034  0.00  0.00    -0.051 S 
BRANCH  16  19
ATOM     17  N   UNL     1      34.755 -14.652 -22.860  0.00  0.00    -0.248 NA
ATOM     18  C   UNL     1      35.215 -15.801 -20.793  0.00  0.00    -0.003 C 
ATOM     19  C   UNL     1      35.984 -18.101 -20.870  0.00  0.00    +0.011 C 
ATOM     20  C   UNL     1      35.150 -15.757 -22.201  0.00  0.00    +0.060 C 
ATOM     21  C   UNL     1      35.632 -16.972 -20.138  0.00  0.00    +0.060 C 
ATOM     22  C   UNL     1      35.921 -18.066 -22.257  0.00  0.00    -0.017 C 
ATOM     23  C   UNL     1      35.508 -16.902 -22.909  0.00  0.00    +0.072 C 
ATOM     24  C   UNL     1      34.855 -14.649 -20.081  0.00  0.00    -0.001 C 
ATOM     25  C   UNL     1      34.448 -13.508 -20.757  0.00  0.00    +0.020 C 
ATOM     26  C   UNL     1      34.417 -13.562 -22.136  0.00  0.00    +0.098 C 
ENDBRANCH  16  19
ENDBRANCH   7  16
TORSDOF 3
ENDMDL
MODEL 2
REMARK VINA RESULT:     -11.9      1.098      2.000
REMARK  Name = 24779724
REMARK  3 active torsions:
REMARK  status: ('A' for Active; 'I' for Inactive)
REMARK    1  A    between atoms: C_5  and  C_12
REMARK    2  A    between atoms: C_7  and  S_16
REMARK    3  A    between atoms: S_16  and  C_19
REMARK                            x       y       z     vdW  Elec       q    Type
REMARK                         _______ _______ _______ _____ _____    ______ ____
ROOT
ATOM      1  N   UNL     1      34.729 -21.278 -18.066  0.00  0.00    -0.186 N 
ATOM      2  N   UNL     1      35.715 -21.652 -17.213  0.00  0.00    -0.162 NA
ATOM      3  N   UNL     1      32.755 -21.028 -18.997  0.00  0.00    -0.126 NA
ATOM      4  N   UNL     1      33.689 -20.362 -19.764  0.00  0.00    -0.120 NA
ATOM      5  C   UNL     1      35.297 -22.369 -16.208  0.00  0.00    +0.104 C 
ATOM      6  C   UNL     1      33.389 -21.574 -17.981  0.00  0.00    +0.187 A 
ATOM      7  C   UNL     1      34.863 -20.523 -19.195  0.00  0.00    +0.217 A 
ATOM      8  C   UNL     1      33.871 -22.783 -15.996  0.00  0.00    +0.024 C 
ATOM      9  C   UNL     1      32.969 -22.366 -16.893  0.00  0.00    +0.042 C 
ENDROOT
BRANCH   5  12
ATOM     10  N   UNL     1      37.266 -23.964 -13.607  0.00  0.00    -0.208 N 
ATOM     11  N   UNL     1      38.158 -23.005 -13.907  0.00  0.00    -0.176 NA
ATOM     12  C   UNL     1      36.281 -22.836 -15.199  0.00  0.00    +0.056 C 
ATOM     13  C   UNL     1      36.124 -23.906 -14.352  0.00  0.00    +0.087 C 
ATOM     14  C   UNL     1      37.552 -22.320 -14.880  0.00  0.00    +0.121 C 
ATOM     15  C   UNL     1      37.567 -24.927 -12.576  0.00  0.00    +0.140 C 
ENDBRANCH   5  12
BRANCH   7  16
ATOM     16  S   UNL     1      36.425 -19.872 -19.767  0.00  0.00    -0.051 S 
BRANCH  16  19
ATOM     17  N   UNL     1      34.629 -15.585 -23.479  0.00  0.00    -0.248 NA
ATOM     18  C   UNL     1      34.880 -17.931 -22.993  0.00  0.00    -0.003 C 
ATOM     19  C   UNL     1      35.883 -18.597 -20.886  0.00  0.00    +0.011 C 
ATOM     20  C   UNL     1      35.028 -16.570 -22.654  0.00  0.00    +0.060 C 
ATOM     21  C   UNL     1      35.308 -18.934 -22.107  0.00  0.00    +0.060 C 
ATOM     22  C   UNL     1      36.032 -17.258 -20.545  0.00  0.00    -0.017 C 
ATOM     23  C   UNL     1      35.607 -16.261 -21.426  0.00  0.00    +0.072 C 
ATOM     24  C   UNL     1      34.298 -18.243 -24.229  0.00  0.00    -0.001 C 
ATOM     25  C   UNL     1      33.885 -17.229 -25.082  0.00  0.00    +0.020 C 
ATOM     26  C   UNL     1      34.072 -15.928 -24.663  0.00  0.00    +0.098 C 
ENDBRANCH  16  19
ENDBRANCH   7  16
TORSDOF 3
ENDMDL
MODEL 3
REMARK VINA RESULT:     -10.9      2.653      4.119
REMARK  Name = 24779724
REMARK  3 active torsions:
REMARK  status: ('A' for Active; 'I' for Inactive)
REMARK    1  A    between atoms: C_5  and  C_12
REMARK    2  A    between atoms: C_7  and  S_16
REMARK    3  A    between atoms: S_16  and  C_19
REMARK                            x       y       z     vdW  Elec       q    Type
REMARK                         _______ _______ _______ _____ _____    ______ ____
ROOT
ATOM      1  N   UNL     1      34.085 -23.226 -15.549  0.00  0.00    -0.186 N 
ATOM      2  N   UNL     1      35.273 -23.880 -15.518  0.00  0.00    -0.162 NA
ATOM      3  N   UNL     1      32.270 -22.162 -14.921  0.00  0.00    -0.126 NA
ATOM      4  N   UNL     1      32.257 -22.277 -16.296  0.00  0.00    -0.120 NA
ATOM      5  C   UNL     1      35.759 -24.032 -14.318  0.00  0.00    +0.104 C 
ATOM      6  C   UNL     1      33.371 -22.734 -14.482  0.00  0.00    +0.187 A 
ATOM      7  C   UNL     1      33.347 -22.916 -16.654  0.00  0.00    +0.217 A 
ATOM      8  C   UNL     1      35.083 -23.564 -13.064  0.00  0.00    +0.024 C 
ATOM      9  C   UNL     1      33.911 -22.929 -13.196  0.00  0.00    +0.042 C 
ENDROOT
BRANCH   5  12
ATOM     10  N   UNL     1      39.184 -25.142 -13.849  0.00  0.00    -0.208 N 
ATOM     11  N   UNL     1      38.645 -26.366 -13.985  0.00  0.00    -0.176 NA
ATOM     12  C   UNL     1      37.060 -24.729 -14.152  0.00  0.00    +0.056 C 
ATOM     13  C   UNL     1      38.277 -24.127 -13.941  0.00  0.00    +0.087 C 
ATOM     14  C   UNL     1      37.348 -26.107 -14.169  0.00  0.00    +0.121 C 
ATOM     15  C   UNL     1      40.604 -25.004 -13.628  0.00  0.00    +0.140 C 
ENDBRANCH   5  12
BRANCH   7  16
ATOM     16  S   UNL     1      33.838 -23.339 -18.319  0.00  0.00    -0.051 S 
BRANCH  16  19
ATOM     17  N   UNL     1      34.869 -17.952 -20.621  0.00  0.00    -0.248 NA
ATOM     18  C   UNL     1      35.724 -20.022 -19.732  0.00  0.00    -0.003 C 
ATOM     19  C   UNL     1      34.158 -21.728 -19.008  0.00  0.00    +0.011 C 
ATOM     20  C   UNL     1      34.658 -19.174 -20.099  0.00  0.00    +0.060 C 
ATOM     21  C   UNL     1      35.467 -21.292 -19.190  0.00  0.00    +0.060 C 
ATOM     22  C   UNL     1      33.103 -20.899 -19.367  0.00  0.00    -0.017 C 
ATOM     23  C   UNL     1      33.358 -19.636 -19.906  0.00  0.00    +0.072 C 
ATOM     24  C   UNL     1      37.032 -19.557 -19.927  0.00  0.00    -0.001 C 
ATOM     25  C   UNL     1      37.253 -18.298 -20.465  0.00  0.00    +0.020 C 
ATOM     26  C   UNL     1      36.146 -17.541 -20.793  0.00  0.00    +0.098 C 
ENDBRANCH  16  19
ENDBRANCH   7  16
TORSDOF 3
ENDMDL
MODEL 4
REMARK VINA RESULT:     -10.8      2.801      9.564
REMARK  Name = 24779724
REMARK  3 active torsions:
REMARK  status: ('A' for Active; 'I' for Inactive)
REMARK    1  A    between atoms: C_5  and  C_12
REMARK    2  A    between atoms: C_7  and  S_16
REMARK    3  A    between atoms: S_16  and  C_19
REMARK                            x       y       z     vdW  Elec       q    Type
REMARK                         _______ _______ _______ _____ _____    ______ ____
ROOT
ATOM      1  N   UNL     1      34.689 -16.821 -23.526  0.00  0.00    -0.186 N 
ATOM      2  N   UNL     1      34.723 -15.554 -23.043  0.00  0.00    -0.162 NA
ATOM      3  N   UNL     1      34.284 -18.559 -24.807  0.00  0.00    -0.126 NA
ATOM      4  N   UNL     1      35.013 -18.981 -23.713  0.00  0.00    -0.120 NA
ATOM      5  C   UNL     1      34.113 -14.687 -23.801  0.00  0.00    +0.104 C 
ATOM      6  C   UNL     1      34.095 -17.262 -24.685  0.00  0.00    +0.187 A 
ATOM      7  C   UNL     1      35.245 -17.931 -22.958  0.00  0.00    +0.217 A 
ATOM      8  C   UNL     1      33.407 -15.025 -25.079  0.00  0.00    +0.024 C 
ATOM      9  C   UNL     1      33.428 -16.305 -25.475  0.00  0.00    +0.042 C 
ENDROOT
BRANCH   5  12
ATOM     10  N   UNL     1      34.039 -11.077 -23.411  0.00  0.00    -0.208 N 
ATOM     11  N   UNL     1      34.048 -11.371 -22.100  0.00  0.00    -0.176 NA
ATOM     12  C   UNL     1      34.084 -13.261 -23.383  0.00  0.00    +0.056 C 
ATOM     13  C   UNL     1      34.060 -12.174 -24.222  0.00  0.00    +0.087 C 
ATOM     14  C   UNL     1      34.075 -12.706 -22.089  0.00  0.00    +0.121 C 
ATOM     15  C   UNL     1      34.010  -9.698 -23.837  0.00  0.00    +0.140 C 
ENDBRANCH   5  12
BRANCH   7  16
ATOM     16  S   UNL     1      36.147 -17.904 -21.416  0.00  0.00    -0.051 S 
BRANCH  16  19
ATOM     17  N   UNL     1      32.881 -21.634 -18.128  0.00  0.00    -0.248 NA
ATOM     18  C   UNL     1      35.029 -20.681 -18.659  0.00  0.00    -0.003 C 
ATOM     19  C   UNL     1      35.178 -19.023 -20.426  0.00  0.00    +0.011 C 
ATOM     20  C   UNL     1      33.638 -20.796 -18.861  0.00  0.00    +0.060 C 
ATOM     21  C   UNL     1      35.789 -19.796 -19.443  0.00  0.00    +0.060 C 
ATOM     22  C   UNL     1      33.808 -19.132 -20.630  0.00  0.00    -0.017 C 
ATOM     23  C   UNL     1      33.053 -20.011 -19.851  0.00  0.00    +0.072 C 
ATOM     24  C   UNL     1      35.618 -21.470 -17.663  0.00  0.00    -0.001 C 
ATOM     25  C   UNL     1      34.841 -22.335 -16.906  0.00  0.00    +0.020 C 
ATOM     26  C   UNL     1      33.488 -22.378 -17.177  0.00  0.00    +0.098 C 
ENDBRANCH  16  19
ENDBRANCH   7  16
TORSDOF 3
ENDMDL
MODEL 5
REMARK VINA RESULT:     -10.7      2.621      9.192
REMARK  Name = 24779724
REMARK  3 active torsions:
REMARK  status: ('A' for Active; 'I' for Inactive)
REMARK    1  A    between atoms: C_5  and  C_12
REMARK    2  A    between atoms: C_7  and  S_16
REMARK    3  A    between atoms: S_16  and  C_19
REMARK                            x       y       z     vdW  Elec       q    Type
REMARK                         _______ _______ _______ _____ _____    ______ ____
ROOT
ATOM      1  N   UNL     1      35.453 -19.555 -20.133  0.00  0.00    -0.186 N 
ATOM      2  N   UNL     1      34.779 -19.055 -21.198  0.00  0.00    -0.162 NA
ATOM      3  N   UNL     1      37.042 -19.972 -18.675  0.00  0.00    -0.126 NA
ATOM      4  N   UNL     1      35.914 -20.679 -18.309  0.00  0.00    -0.120 NA
ATOM      5  C   UNL     1      35.484 -18.240 -21.931  0.00  0.00    +0.104 C 
ATOM      6  C   UNL     1      36.755 -19.301 -19.771  0.00  0.00    +0.187 A 
ATOM      7  C   UNL     1      34.976 -20.420 -19.191  0.00  0.00    +0.217 A 
ATOM      8  C   UNL     1      36.916 -17.885 -21.668  0.00  0.00    +0.024 C 
ATOM      9  C   UNL     1      37.498 -18.430 -20.592  0.00  0.00    +0.042 C 
ENDROOT
BRANCH   5  12
ATOM     10  N   UNL     1      34.170 -16.171 -24.612  0.00  0.00    -0.208 N 
ATOM     11  N   UNL     1      33.713 -17.342 -25.085  0.00  0.00    -0.176 NA
ATOM     12  C   UNL     1      34.854 -17.620 -23.126  0.00  0.00    +0.056 C 
ATOM     13  C   UNL     1      34.860 -16.283 -23.440  0.00  0.00    +0.087 C 
ATOM     14  C   UNL     1      34.134 -18.224 -24.175  0.00  0.00    +0.121 C 
ATOM     15  C   UNL     1      33.910 -14.952 -25.339  0.00  0.00    +0.140 C 
ENDBRANCH   5  12
BRANCH   7  16
ATOM     16  S   UNL     1      33.312 -21.070 -19.202  0.00  0.00    -0.051 S 
BRANCH  16  19
ATOM     17  N   UNL     1      33.061 -23.629 -13.838  0.00  0.00    -0.248 NA
ATOM     18  C   UNL     1      31.941 -22.499 -15.648  0.00  0.00    -0.003 C 
ATOM     19  C   UNL     1      33.226 -21.835 -17.596  0.00  0.00    +0.011 C 
ATOM     20  C   UNL     1      33.096 -23.047 -15.051  0.00  0.00    +0.060 C 
ATOM     21  C   UNL     1      32.014 -21.898 -16.915  0.00  0.00    +0.060 C 
ATOM     22  C   UNL     1      34.367 -22.371 -17.014  0.00  0.00    -0.017 C 
ATOM     23  C   UNL     1      34.295 -22.969 -15.754  0.00  0.00    +0.072 C 
ATOM     24  C   UNL     1      30.734 -22.577 -14.940  0.00  0.00    -0.001 C 
ATOM     25  C   UNL     1      30.694 -23.177 -13.690  0.00  0.00    +0.020 C 
ATOM     26  C   UNL     1      31.876 -23.683 -13.188  0.00  0.00    +0.098 C 
ENDBRANCH  16  19
ENDBRANCH   7  16
TORSDOF 3
ENDMDL
MODEL 6
REMARK VINA RESULT:     -10.5      3.551      6.162
REMARK  Name = 24779724
REMARK  3 active torsions:
REMARK  status: ('A' for Active; 'I' for Inactive)
REMARK    1  A    between atoms: C_5  and  C_12
REMARK    2  A    between atoms: C_7  and  S_16
REMARK    3  A    between atoms: S_16  and  C_19
REMARK                            x       y       z     vdW  Elec       q    Type
REMARK                         _______ _______ _______ _____ _____    ______ ____
ROOT
ATOM      1  N   UNL     1      32.984 -22.734 -15.747  0.00  0.00    -0.186 N 
ATOM      2  N   UNL     1      31.698 -22.700 -16.175  0.00  0.00    -0.162 NA
ATOM      3  N   UNL     1      34.761 -22.635 -14.458  0.00  0.00    -0.126 NA
ATOM      4  N   UNL     1      35.166 -22.948 -15.740  0.00  0.00    -0.120 NA
ATOM      5  C   UNL     1      30.838 -22.424 -15.235  0.00  0.00    +0.104 C 
ATOM      6  C   UNL     1      33.450 -22.508 -14.473  0.00  0.00    +0.187 A 
ATOM      7  C   UNL     1      34.093 -23.001 -16.497  0.00  0.00    +0.217 A 
ATOM      8  C   UNL     1      31.202 -22.139 -13.809  0.00  0.00    +0.024 C 
ATOM      9  C   UNL     1      32.499 -22.195 -13.481  0.00  0.00    +0.042 C 
ENDROOT
BRANCH   5  12
ATOM     10  N   UNL     1      27.263 -21.879 -15.567  0.00  0.00    -0.208 N 
ATOM     11  N   UNL     1      27.387 -22.715 -16.612  0.00  0.00    -0.176 NA
ATOM     12  C   UNL     1      29.394 -22.364 -15.577  0.00  0.00    +0.056 C 
ATOM     13  C   UNL     1      28.436 -21.638 -14.913  0.00  0.00    +0.087 C 
ATOM     14  C   UNL     1      28.690 -23.007 -16.614  0.00  0.00    +0.121 C 
ATOM     15  C   UNL     1      25.969 -21.334 -15.235  0.00  0.00    +0.140 C 
ENDBRANCH   5  12
BRANCH   7  16
ATOM     16  S   UNL     1      34.037 -23.367 -18.244  0.00  0.00    -0.051 S 
BRANCH  16  19
ATOM     17  N   UNL     1      34.834 -17.959 -20.590  0.00  0.00    -0.248 NA
ATOM     18  C   UNL     1      35.778 -20.005 -19.738  0.00  0.00    -0.003 C 
ATOM     19  C   UNL     1      34.287 -21.750 -18.947  0.00  0.00    +0.011 C 
ATOM     20  C   UNL     1      34.676 -19.186 -20.060  0.00  0.00    +0.060 C 
ATOM     21  C   UNL     1      35.576 -21.281 -19.184  0.00  0.00    +0.060 C 
ATOM     22  C   UNL     1      33.197 -20.947 -19.261  0.00  0.00    -0.017 C 
ATOM     23  C   UNL     1      33.398 -19.679 -19.811  0.00  0.00    +0.072 C 
ATOM     24  C   UNL     1      37.064 -19.509 -19.988  0.00  0.00    -0.001 C 
ATOM     25  C   UNL     1      37.231 -18.245 -20.535  0.00  0.00    +0.020 C 
ATOM     26  C   UNL     1      36.092 -17.517 -20.816  0.00  0.00    +0.098 C 
ENDBRANCH  16  19
ENDBRANCH   7  16
TORSDOF 3
ENDMDL
MODEL 7
REMARK VINA RESULT:     -10.3      2.162      9.112
REMARK  Name = 24779724
REMARK  3 active torsions:
REMARK  status: ('A' for Active; 'I' for Inactive)
REMARK    1  A    between atoms: C_5  and  C_12
REMARK    2  A    between atoms: C_7  and  S_16
REMARK    3  A    between atoms: S_16  and  C_19
REMARK                            x       y       z     vdW  Elec       q    Type
REMARK                         _______ _______ _______ _____ _____    ______ ____
ROOT
ATOM      1  N   UNL     1      35.132 -21.049 -18.121  0.00  0.00    -0.186 N 
ATOM      2  N   UNL     1      35.627 -20.082 -18.932  0.00  0.00    -0.162 NA
ATOM      3  N   UNL     1      33.790 -22.540 -17.225  0.00  0.00    -0.126 NA
ATOM      4  N   UNL     1      34.976 -22.536 -16.518  0.00  0.00    -0.120 NA
ATOM      5  C   UNL     1      34.802 -19.708 -19.869  0.00  0.00    +0.104 C 
ATOM      6  C   UNL     1      33.894 -21.645 -18.185  0.00  0.00    +0.187 A 
ATOM      7  C   UNL     1      35.765 -21.639 -17.065  0.00  0.00    +0.217 A 
ATOM      8  C   UNL     1      33.418 -20.255 -20.048  0.00  0.00    +0.024 C 
ATOM      9  C   UNL     1      33.017 -21.208 -19.197  0.00  0.00    +0.042 C 
ENDROOT
BRANCH   5  12
ATOM     10  N   UNL     1      35.320 -17.304 -22.541  0.00  0.00    -0.208 N 
ATOM     11  N   UNL     1      36.418 -16.985 -21.834  0.00  0.00    -0.176 NA
ATOM     12  C   UNL     1      35.230 -18.657 -20.828  0.00  0.00    +0.056 C 
ATOM     13  C   UNL     1      34.575 -18.300 -21.981  0.00  0.00    +0.087 C 
ATOM     14  C   UNL     1      36.358 -17.814 -20.789  0.00  0.00    +0.121 C 
ATOM     15  C   UNL     1      35.031 -16.605 -23.770  0.00  0.00    +0.140 C 
ENDBRANCH   5  12
BRANCH   7  16
ATOM     16  S   UNL     1      37.422 -21.219 -16.548  0.00  0.00    -0.051 S 
BRANCH  16  19
ATOM     17  N   UNL     1      38.189 -24.879 -11.922  0.00  0.00    -0.248 NA
ATOM     18  C   UNL     1      36.938 -23.111 -12.978  0.00  0.00    -0.003 C 
ATOM     19  C   UNL     1      37.642 -22.310 -15.159  0.00  0.00    +0.011 C 
ATOM     20  C   UNL     1      37.997 -24.042 -12.959  0.00  0.00    +0.060 C 
ATOM     21  C   UNL     1      36.768 -22.252 -14.077  0.00  0.00    +0.060 C 
ATOM     22  C   UNL     1      38.688 -23.224 -15.146  0.00  0.00    -0.017 C 
ATOM     23  C   UNL     1      38.857 -24.078 -14.054  0.00  0.00    +0.072 C 
ATOM     24  C   UNL     1      36.072 -23.074 -11.877  0.00  0.00    -0.001 C 
ATOM     25  C   UNL     1      36.267 -23.935 -10.807  0.00  0.00    +0.020 C 
ATOM     26  C   UNL     1      37.331 -24.811 -10.879  0.00  0.00    +0.098 C 
ENDBRANCH  16  19
ENDBRANCH   7  16
TORSDOF 3
ENDMDL
MODEL 8
REMARK VINA RESULT:     -10.3      6.324      9.469
REMARK  Name = 24779724
REMARK  3 active torsions:
REMARK  status: ('A' for Active; 'I' for Inactive)
REMARK    1  A    between atoms: C_5  and  C_12
REMARK    2  A    between atoms: C_7  and  S_16
REMARK    3  A    between atoms: S_16  and  C_19
REMARK                            x       y       z     vdW  Elec       q    Type
REMARK                         _______ _______ _______ _____ _____    ______ ____
ROOT
ATOM      1  N   UNL     1      32.107 -23.343 -14.233  0.00  0.00    -0.186 N 
ATOM      2  N   UNL     1      31.189 -22.940 -15.146  0.00  0.00    -0.162 NA
ATOM      3  N   UNL     1      33.025 -24.197 -12.429  0.00  0.00    -0.126 NA
ATOM      4  N   UNL     1      34.029 -23.725 -13.251  0.00  0.00    -0.120 NA
ATOM      5  C   UNL     1      29.958 -23.195 -14.801  0.00  0.00    +0.104 C 
ATOM      6  C   UNL     1      31.876 -23.962 -13.027  0.00  0.00    +0.187 A 
ATOM      7  C   UNL     1      33.464 -23.217 -14.322  0.00  0.00    +0.217 A 
ATOM      8  C   UNL     1      29.556 -23.848 -13.512  0.00  0.00    +0.024 C 
ATOM      9  C   UNL     1      30.535 -24.209 -12.673  0.00  0.00    +0.042 C 
ENDROOT
BRANCH   5  12
ATOM     10  N   UNL     1      27.219 -21.724 -16.677  0.00  0.00    -0.208 N 
ATOM     11  N   UNL     1      27.347 -22.827 -17.434  0.00  0.00    -0.176 NA
ATOM     12  C   UNL     1      28.858 -22.807 -15.721  0.00  0.00    +0.056 C 
ATOM     13  C   UNL     1      28.101 -21.664 -15.637  0.00  0.00    +0.087 C 
ATOM     14  C   UNL     1      28.350 -23.484 -16.846  0.00  0.00    +0.121 C 
ATOM     15  C   UNL     1      26.213 -20.742 -17.004  0.00  0.00    +0.140 C 
ENDBRANCH   5  12
BRANCH   7  16
ATOM     16  S   UNL     1      34.295 -22.467 -15.714  0.00  0.00    -0.051 S 
BRANCH  16  19
ATOM     17  N   UNL     1      39.987 -23.727 -14.527  0.00  0.00    -0.248 NA
ATOM     18  C   UNL     1      37.659 -24.337 -14.392  0.00  0.00    -0.003 C 
ATOM     19  C   UNL     1      35.996 -22.854 -15.354  0.00  0.00    +0.011 C 
ATOM     20  C   UNL     1      38.693 -23.462 -14.786  0.00  0.00    +0.060 C 
ATOM     21  C   UNL     1      36.319 -24.028 -14.679  0.00  0.00    +0.060 C 
ATOM     22  C   UNL     1      37.008 -21.987 -15.744  0.00  0.00    -0.017 C 
ATOM     23  C   UNL     1      38.341 -22.294 -15.459  0.00  0.00    +0.072 C 
ATOM     24  C   UNL     1      38.013 -25.512 -13.715  0.00  0.00    -0.001 C 
ATOM     25  C   UNL     1      39.346 -25.789 -13.446  0.00  0.00    +0.020 C 
ATOM     26  C   UNL     1      40.286 -24.871 -13.871  0.00  0.00    +0.098 C 
ENDBRANCH  16  19
ENDBRANCH   7  16
TORSDOF 3
ENDMDL
MODEL 9
REMARK VINA RESULT:     -10.2      6.827     11.645
REMARK  Name = 24779724
REMARK  3 active torsions:
REMARK  status: ('A' for Active; 'I' for Inactive)
REMARK    1  A    between atoms: C_5  and  C_12
REMARK    2  A    between atoms: C_7  and  S_16
REMARK    3  A    between atoms: S_16  and  C_19
REMARK                            x       y       z     vdW  Elec       q    Type
REMARK                         _______ _______ _______ _____ _____    ______ ____
ROOT
ATOM      1  N   UNL     1      32.660 -11.313 -21.061  0.00  0.00    -0.186 N 
ATOM      2  N   UNL     1      32.658 -10.040 -21.528  0.00  0.00    -0.162 NA
ATOM      3  N   UNL     1      32.282 -13.081 -19.813  0.00  0.00    -0.126 NA
ATOM      4  N   UNL     1      33.047 -13.464 -20.896  0.00  0.00    -0.120 NA
ATOM      5  C   UNL     1      31.990  -9.207 -20.781  0.00  0.00    +0.104 C 
ATOM      6  C   UNL     1      32.055 -11.789 -19.921  0.00  0.00    +0.187 A 
ATOM      7  C   UNL     1      33.265 -12.396 -21.630  0.00  0.00    +0.217 A 
ATOM      8  C   UNL     1      31.297  -9.579 -19.505  0.00  0.00    +0.024 C 
ATOM      9  C   UNL     1      31.355 -10.862 -19.125  0.00  0.00    +0.042 C 
ENDROOT
BRANCH   5  12
ATOM     10  N   UNL     1      32.026  -5.599 -21.193  0.00  0.00    -0.208 N 
ATOM     11  N   UNL     1      31.536  -5.886 -22.411  0.00  0.00    -0.176 NA
ATOM     12  C   UNL     1      31.909  -7.781 -21.190  0.00  0.00    +0.056 C 
ATOM     13  C   UNL     1      32.266  -6.699 -20.422  0.00  0.00    +0.087 C 
ATOM     14  C   UNL     1      31.467  -7.220 -22.404  0.00  0.00    +0.121 C 
ATOM     15  C   UNL     1      32.247  -4.224 -20.814  0.00  0.00    +0.140 C 
ENDBRANCH   5  12
BRANCH   7  16
ATOM     16  S   UNL     1      34.200 -12.318 -23.150  0.00  0.00    -0.051 S 
BRANCH  16  19
ATOM     17  N   UNL     1      34.112 -18.006 -24.889  0.00  0.00    -0.248 NA
ATOM     18  C   UNL     1      34.799 -16.341 -23.289  0.00  0.00    -0.003 C 
ATOM     19  C   UNL     1      34.179 -14.024 -23.661  0.00  0.00    +0.011 C 
ATOM     20  C   UNL     1      34.143 -16.725 -24.477  0.00  0.00    +0.060 C 
ATOM     21  C   UNL     1      34.812 -14.994 -22.890  0.00  0.00    +0.060 C 
ATOM     22  C   UNL     1      33.532 -14.395 -24.833  0.00  0.00    -0.017 C 
ATOM     23  C   UNL     1      33.518 -15.734 -25.230  0.00  0.00    +0.072 C 
ATOM     24  C   UNL     1      35.428 -17.338 -22.532  0.00  0.00    -0.001 C 
ATOM     25  C   UNL     1      35.397 -18.659 -22.953  0.00  0.00    +0.020 C 
ATOM     26  C   UNL     1      34.731 -18.938 -24.129  0.00  0.00    +0.098 C 
ENDBRANCH  16  19
ENDBRANCH   7  16
TORSDOF 3
ENDMDL
