MODEL 1
REMARK VINA RESULT:     -13.0      0.000      0.000
REMARK  Name = 66599893
REMARK  9 active torsions:
REMARK  status: ('A' for Active; 'I' for Inactive)
REMARK    1  A    between atoms: C_1  and  C_2
REMARK    2  A    between atoms: C_1  and  C_22
REMARK    3  A    between atoms: C_1  and  C_34
REMARK    4  A    between atoms: C_5  and  C_8
REMARK    5  A    between atoms: C_8  and  O_9
REMARK    6  A    between atoms: O_9  and  C_11
REMARK    7  A    between atoms: C_11  and  C_12
REMARK    8  A    between atoms: N_21  and  C_25
REMARK    9  A    between atoms: C_34  and  N_35
REMARK                            x       y       z     vdW  Elec       q    Type
REMARK                         _______ _______ _______ _____ _____    ______ ____
ROOT
ATOM      1  C   UNL     1      36.034 -17.468 -21.278  0.00  0.00    +0.077 C 
ENDROOT
BRANCH   1   2
ATOM      2  C   UNL     1      35.510 -18.636 -20.456  0.00  0.00    -0.016 C 
ATOM      3  C   UNL     1      34.137 -18.865 -20.366  0.00  0.00    -0.004 C 
ATOM      4  C   UNL     1      36.403 -19.478 -19.793  0.00  0.00    -0.004 C 
ATOM      5  C   UNL     1      34.549 -20.777 -18.949  0.00  0.00    +0.021 C 
ATOM      6  C   UNL     1      33.657 -19.935 -19.611  0.00  0.00    -0.001 C 
ATOM      7  C   UNL     1      35.922 -20.548 -19.039  0.00  0.00    -0.001 C 
BRANCH   5   8
ATOM      8  C   UNL     1      34.036 -21.923 -18.143  0.00  0.00    +0.235 C 
BRANCH   8   9
ATOM      9  O   UNL     1      35.065 -22.394 -17.281  0.00  0.00    -0.440 OA
BRANCH   9  11
ATOM     10  O   UNL     1      33.630 -22.319 -15.483  0.00  0.00    -0.245 OA
ATOM     11  C   UNL     1      34.710 -22.594 -15.983  0.00  0.00    +0.341 C 
BRANCH  11  12
ATOM     12  C   UNL     1      35.830 -23.205 -15.221  0.00  0.00    +0.072 C 
ATOM     13  C   UNL     1      37.073 -22.579 -15.141  0.00  0.00    -0.016 C 
ATOM     14  C   UNL     1      37.900 -24.395 -13.779  0.00  0.00    -0.022 C 
ATOM     15  C   UNL     1      38.108 -23.173 -14.420  0.00  0.00    -0.008 C 
ATOM     16  C   UNL     1      35.621 -24.426 -14.581  0.00  0.00    +0.006 C 
ATOM     17  C   UNL     1      36.656 -25.022 -13.860  0.00  0.00    -0.004 C 
ATOM     18  C   UNL     1      37.323 -21.270 -15.816  0.00  0.00    +0.031 C 
ATOM     19  C   UNL     1      39.006 -25.033 -13.009  0.00  0.00    +0.031 C 
ENDBRANCH  11  12
ENDBRANCH   9  11
ENDBRANCH   8   9
ENDBRANCH   5   8
ENDBRANCH   1   2
BRANCH   1  22
ATOM     20  O   UNL     1      35.394 -15.858 -19.592  0.00  0.00    -0.275 OA
ATOM     21  N   UNL     1      34.893 -15.387 -21.841  0.00  0.00    -0.284 N 
ATOM     22  C   UNL     1      35.416 -16.152 -20.785  0.00  0.00    +0.228 C 
ATOM     23  H   UNL     1      34.985 -15.777 -22.740  0.00  0.00    +0.155 HD
BRANCH  21  25
ATOM     24  N   UNL     1      31.505 -10.090 -20.518  0.00  0.00    -0.242 NA
ATOM     25  C   UNL     1      34.261 -14.144 -21.776  0.00  0.00    +0.050 C 
ATOM     26  C   UNL     1      33.416 -13.847 -20.705  0.00  0.00    +0.015 C 
ATOM     27  C   UNL     1      32.771 -12.602 -20.627  0.00  0.00    +0.004 C 
ATOM     28  C   UNL     1      34.473 -13.203 -22.780  0.00  0.00    +0.015 C 
ATOM     29  C   UNL     1      32.990 -11.651 -21.646  0.00  0.00    +0.019 C 
ATOM     30  C   UNL     1      33.842 -11.961 -22.719  0.00  0.00    +0.003 C 
ATOM     31  C   UNL     1      31.918 -12.274 -19.566  0.00  0.00    +0.021 C 
ATOM     32  C   UNL     1      32.333 -10.425 -21.534  0.00  0.00    +0.099 C 
ATOM     33  C   UNL     1      31.320 -11.023 -19.561  0.00  0.00    +0.099 C 
ENDBRANCH  21  25
ENDBRANCH   1  22
BRANCH   1  34
ATOM     34  C   UNL     1      35.789 -17.641 -22.790  0.00  0.00    -0.072 C 
BRANCH  34  35
ATOM     35  N   UNL     1      35.108 -18.898 -23.091  0.00  0.00    +0.381 N 
ATOM     36  H   UNL     1      35.196 -19.102 -24.087  0.00  0.00    -0.089 HD
ATOM     37  H   UNL     1      34.122 -18.817 -22.847  0.00  0.00    -0.089 HD
ATOM     38  H   UNL     1      35.531 -19.652 -22.550  0.00  0.00    -0.089 HD
ENDBRANCH  34  35
ENDBRANCH   1  34
TORSDOF 9
ENDMDL
MODEL 2
REMARK VINA RESULT:     -12.8      1.673      2.773
REMARK  Name = 66599893
REMARK  9 active torsions:
REMARK  status: ('A' for Active; 'I' for Inactive)
REMARK    1  A    between atoms: C_1  and  C_2
REMARK    2  A    between atoms: C_1  and  C_22
REMARK    3  A    between atoms: C_1  and  C_34
REMARK    4  A    between atoms: C_5  and  C_8
REMARK    5  A    between atoms: C_8  and  O_9
REMARK    6  A    between atoms: O_9  and  C_11
REMARK    7  A    between atoms: C_11  and  C_12
REMARK    8  A    between atoms: N_21  and  C_25
REMARK    9  A    between atoms: C_34  and  N_35
REMARK                            x       y       z     vdW  Elec       q    Type
REMARK                         _______ _______ _______ _____ _____    ______ ____
ROOT
ATOM      1  C   UNL     1      35.677 -16.899 -22.188  0.00  0.00    +0.077 C 
ENDROOT
BRANCH   1   2
ATOM      2  C   UNL     1      35.678 -18.048 -21.191  0.00  0.00    -0.016 C 
ATOM      3  C   UNL     1      34.478 -18.663 -20.834  0.00  0.00    -0.004 C 
ATOM      4  C   UNL     1      36.879 -18.486 -20.634  0.00  0.00    -0.004 C 
ATOM      5  C   UNL     1      35.680 -20.154 -19.362  0.00  0.00    +0.021 C 
ATOM      6  C   UNL     1      34.479 -19.716 -19.919  0.00  0.00    -0.001 C 
ATOM      7  C   UNL     1      36.880 -19.539 -19.718  0.00  0.00    -0.001 C 
BRANCH   5   8
ATOM      8  C   UNL     1      35.682 -21.281 -18.384  0.00  0.00    +0.235 C 
BRANCH   8   9
ATOM      9  O   UNL     1      34.436 -21.314 -17.699  0.00  0.00    -0.440 OA
BRANCH   9  11
ATOM     10  O   UNL     1      33.878 -23.421 -18.441  0.00  0.00    -0.245 OA
ATOM     11  C   UNL     1      33.842 -22.535 -17.601  0.00  0.00    +0.341 C 
BRANCH  11  12
ATOM     12  C   UNL     1      33.121 -22.665 -16.309  0.00  0.00    +0.072 C 
ATOM     13  C   UNL     1      33.792 -23.032 -15.143  0.00  0.00    -0.016 C 
ATOM     14  C   UNL     1      31.719 -22.899 -13.908  0.00  0.00    -0.022 C 
ATOM     15  C   UNL     1      33.091 -23.149 -13.942  0.00  0.00    -0.008 C 
ATOM     16  C   UNL     1      31.749 -22.416 -16.276  0.00  0.00    +0.006 C 
ATOM     17  C   UNL     1      31.048 -22.533 -15.076  0.00  0.00    -0.004 C 
ATOM     18  C   UNL     1      35.260 -23.304 -15.150  0.00  0.00    +0.031 C 
ATOM     19  C   UNL     1      30.968 -23.024 -12.626  0.00  0.00    +0.031 C 
ENDBRANCH  11  12
ENDBRANCH   9  11
ENDBRANCH   8   9
ENDBRANCH   5   8
ENDBRANCH   1   2
BRANCH   1  22
ATOM     20  O   UNL     1      35.238 -15.439 -20.312  0.00  0.00    -0.275 OA
ATOM     21  N   UNL     1      34.562 -14.746 -22.455  0.00  0.00    -0.284 N 
ATOM     22  C   UNL     1      35.147 -15.620 -21.524  0.00  0.00    +0.228 C 
ATOM     23  H   UNL     1      34.563 -15.052 -23.391  0.00  0.00    +0.155 HD
BRANCH  21  25
ATOM     24  N   UNL     1      31.407  -9.538 -20.405  0.00  0.00    -0.242 NA
ATOM     25  C   UNL     1      33.980 -13.499 -22.222  0.00  0.00    +0.050 C 
ATOM     26  C   UNL     1      33.167 -13.308 -21.103  0.00  0.00    +0.015 C 
ATOM     27  C   UNL     1      32.572 -12.061 -20.856  0.00  0.00    +0.004 C 
ATOM     28  C   UNL     1      34.210 -12.448 -23.105  0.00  0.00    +0.015 C 
ATOM     29  C   UNL     1      32.809 -10.998 -21.753  0.00  0.00    +0.019 C 
ATOM     30  C   UNL     1      33.629 -11.201 -22.875  0.00  0.00    +0.003 C 
ATOM     31  C   UNL     1      31.752 -11.838 -19.743  0.00  0.00    +0.021 C 
ATOM     32  C   UNL     1      32.202  -9.772 -21.473  0.00  0.00    +0.099 C 
ATOM     33  C   UNL     1      31.203 -10.577 -19.568  0.00  0.00    +0.099 C 
ENDBRANCH  21  25
ENDBRANCH   1  22
BRANCH   1  34
ATOM     34  C   UNL     1      34.869 -17.214 -23.464  0.00  0.00    -0.072 C 
BRANCH  34  35
ATOM     35  N   UNL     1      34.925 -18.632 -23.808  0.00  0.00    +0.381 N 
ATOM     36  H   UNL     1      34.103 -19.105 -23.434  0.00  0.00    -0.089 HD
ATOM     37  H   UNL     1      35.767 -19.045 -23.407  0.00  0.00    -0.089 HD
ATOM     38  H   UNL     1      34.946 -18.735 -24.822  0.00  0.00    -0.089 HD
ENDBRANCH  34  35
ENDBRANCH   1  34
TORSDOF 9
ENDMDL
MODEL 3
REMARK VINA RESULT:     -12.7      1.813      3.152
REMARK  Name = 66599893
REMARK  9 active torsions:
REMARK  status: ('A' for Active; 'I' for Inactive)
REMARK    1  A    between atoms: C_1  and  C_2
REMARK    2  A    between atoms: C_1  and  C_22
REMARK    3  A    between atoms: C_1  and  C_34
REMARK    4  A    between atoms: C_5  and  C_8
REMARK    5  A    between atoms: C_8  and  O_9
REMARK    6  A    between atoms: O_9  and  C_11
REMARK    7  A    between atoms: C_11  and  C_12
REMARK    8  A    between atoms: N_21  and  C_25
REMARK    9  A    between atoms: C_34  and  N_35
REMARK                            x       y       z     vdW  Elec       q    Type
REMARK                         _______ _______ _______ _____ _____    ______ ____
ROOT
ATOM      1  C   UNL     1      35.679 -16.869 -22.188  0.00  0.00    +0.077 C 
ENDROOT
BRANCH   1   2
ATOM      2  C   UNL     1      35.680 -18.014 -21.188  0.00  0.00    -0.016 C 
ATOM      3  C   UNL     1      34.481 -18.634 -20.834  0.00  0.00    -0.004 C 
ATOM      4  C   UNL     1      36.881 -18.447 -20.624  0.00  0.00    -0.004 C 
ATOM      5  C   UNL     1      35.683 -20.116 -19.353  0.00  0.00    +0.021 C 
ATOM      6  C   UNL     1      34.483 -19.683 -19.916  0.00  0.00    -0.001 C 
ATOM      7  C   UNL     1      36.882 -19.497 -19.706  0.00  0.00    -0.001 C 
BRANCH   5   8
ATOM      8  C   UNL     1      35.685 -21.240 -18.372  0.00  0.00    +0.235 C 
BRANCH   8   9
ATOM      9  O   UNL     1      34.426 -21.293 -17.712  0.00  0.00    -0.440 OA
BRANCH   9  11
ATOM     10  O   UNL     1      33.932 -23.429 -18.413  0.00  0.00    -0.245 OA
ATOM     11  C   UNL     1      33.868 -22.528 -17.591  0.00  0.00    +0.341 C 
BRANCH  11  12
ATOM     12  C   UNL     1      33.147 -22.655 -16.298  0.00  0.00    +0.072 C 
ATOM     13  C   UNL     1      33.822 -22.994 -15.126  0.00  0.00    -0.016 C 
ATOM     14  C   UNL     1      31.746 -22.881 -13.896  0.00  0.00    -0.022 C 
ATOM     15  C   UNL     1      33.122 -23.107 -13.925  0.00  0.00    -0.008 C 
ATOM     16  C   UNL     1      31.771 -22.429 -16.270  0.00  0.00    +0.006 C 
ATOM     17  C   UNL     1      31.070 -22.542 -15.069  0.00  0.00    -0.004 C 
ATOM     18  C   UNL     1      35.296 -23.240 -15.129  0.00  0.00    +0.031 C 
ATOM     19  C   UNL     1      30.996 -23.003 -12.614  0.00  0.00    +0.031 C 
ENDBRANCH  11  12
ENDBRANCH   9  11
ENDBRANCH   8   9
ENDBRANCH   5   8
ENDBRANCH   1   2
BRANCH   1  22
ATOM     20  O   UNL     1      35.228 -15.399 -20.322  0.00  0.00    -0.275 OA
ATOM     21  N   UNL     1      34.532 -14.734 -22.467  0.00  0.00    -0.284 N 
ATOM     22  C   UNL     1      35.134 -15.592 -21.531  0.00  0.00    +0.228 C 
ATOM     23  H   UNL     1      34.533 -15.048 -23.400  0.00  0.00    +0.155 HD
BRANCH  21  25
ATOM     24  N   UNL     1      32.435  -8.662 -22.372  0.00  0.00    -0.242 NA
ATOM     25  C   UNL     1      33.932 -13.494 -22.242  0.00  0.00    +0.050 C 
ATOM     26  C   UNL     1      34.247 -12.409 -23.062  0.00  0.00    +0.015 C 
ATOM     27  C   UNL     1      33.655 -11.155 -22.847  0.00  0.00    +0.004 C 
ATOM     28  C   UNL     1      33.022 -13.341 -21.200  0.00  0.00    +0.015 C 
ATOM     29  C   UNL     1      32.732 -11.004 -21.790  0.00  0.00    +0.019 C 
ATOM     30  C   UNL     1      32.422 -12.103 -20.971  0.00  0.00    +0.003 C 
ATOM     31  C   UNL     1      33.950 -10.047 -23.651  0.00  0.00    +0.021 C 
ATOM     32  C   UNL     1      32.162  -9.742 -21.607  0.00  0.00    +0.099 C 
ATOM     33  C   UNL     1      33.321  -8.843 -23.375  0.00  0.00    +0.099 C 
ENDBRANCH  21  25
ENDBRANCH   1  22
BRANCH   1  34
ATOM     34  C   UNL     1      34.886 -17.193 -23.470  0.00  0.00    -0.072 C 
BRANCH  34  35
ATOM     35  N   UNL     1      34.926 -18.617 -23.790  0.00  0.00    +0.381 N 
ATOM     36  H   UNL     1      33.979 -18.952 -23.968  0.00  0.00    -0.089 HD
ATOM     37  H   UNL     1      35.326 -19.130 -23.004  0.00  0.00    -0.089 HD
ATOM     38  H   UNL     1      35.501 -18.763 -24.619  0.00  0.00    -0.089 HD
ENDBRANCH  34  35
ENDBRANCH   1  34
TORSDOF 9
ENDMDL
MODEL 4
REMARK VINA RESULT:     -12.3      3.877      7.214
REMARK  Name = 66599893
REMARK  9 active torsions:
REMARK  status: ('A' for Active; 'I' for Inactive)
REMARK    1  A    between atoms: C_1  and  C_2
REMARK    2  A    between atoms: C_1  and  C_22
REMARK    3  A    between atoms: C_1  and  C_34
REMARK    4  A    between atoms: C_5  and  C_8
REMARK    5  A    between atoms: C_8  and  O_9
REMARK    6  A    between atoms: O_9  and  C_11
REMARK    7  A    between atoms: C_11  and  C_12
REMARK    8  A    between atoms: N_21  and  C_25
REMARK    9  A    between atoms: C_34  and  N_35
REMARK                            x       y       z     vdW  Elec       q    Type
REMARK                         _______ _______ _______ _____ _____    ______ ____
ROOT
ATOM      1  C   UNL     1      31.965 -11.384 -21.393  0.00  0.00    +0.077 C 
ENDROOT
BRANCH   1   2
ATOM      2  C   UNL     1      32.935 -12.541 -21.569  0.00  0.00    -0.016 C 
ATOM      3  C   UNL     1      33.173 -13.066 -22.839  0.00  0.00    -0.004 C 
ATOM      4  C   UNL     1      33.588 -13.078 -20.459  0.00  0.00    -0.004 C 
ATOM      5  C   UNL     1      34.715 -14.666 -21.890  0.00  0.00    +0.021 C 
ATOM      6  C   UNL     1      34.062 -14.129 -23.000  0.00  0.00    -0.001 C 
ATOM      7  C   UNL     1      34.477 -14.141 -20.620  0.00  0.00    -0.001 C 
BRANCH   5   8
ATOM      8  C   UNL     1      35.667 -15.801 -22.062  0.00  0.00    +0.235 C 
BRANCH   8   9
ATOM      9  O   UNL     1      35.320 -16.848 -21.164  0.00  0.00    -0.440 OA
BRANCH   9  11
ATOM     10  O   UNL     1      35.326 -18.366 -22.895  0.00  0.00    -0.245 OA
ATOM     11  C   UNL     1      35.183 -18.085 -21.714  0.00  0.00    +0.341 C 
BRANCH  11  12
ATOM     12  C   UNL     1      34.825 -19.085 -20.676  0.00  0.00    +0.072 C 
ATOM     13  C   UNL     1      35.802 -19.670 -19.872  0.00  0.00    -0.016 C 
ATOM     14  C   UNL     1      34.101 -20.961 -18.742  0.00  0.00    -0.022 C 
ATOM     15  C   UNL     1      35.441 -20.607 -18.905  0.00  0.00    -0.008 C 
ATOM     16  C   UNL     1      33.486 -19.439 -20.515  0.00  0.00    +0.006 C 
ATOM     17  C   UNL     1      33.123 -20.377 -19.548  0.00  0.00    -0.004 C 
ATOM     18  C   UNL     1      37.244 -19.309 -20.023  0.00  0.00    +0.031 C 
ATOM     19  C   UNL     1      33.712 -21.964 -17.710  0.00  0.00    +0.031 C 
ENDBRANCH  11  12
ENDBRANCH   9  11
ENDBRANCH   8   9
ENDBRANCH   5   8
ENDBRANCH   1   2
BRANCH   1  22
ATOM     20  O   UNL     1      33.679 -10.076 -22.487  0.00  0.00    -0.275 OA
ATOM     21  N   UNL     1      31.636  -9.035 -21.965  0.00  0.00    -0.284 N 
ATOM     22  C   UNL     1      32.543 -10.106 -22.020  0.00  0.00    +0.228 C 
ATOM     23  H   UNL     1      30.768  -9.229 -21.544  0.00  0.00    +0.155 HD
BRANCH  21  25
ATOM     24  N   UNL     1      32.427  -2.733 -22.940  0.00  0.00    -0.242 NA
ATOM     25  C   UNL     1      31.811  -7.730 -22.431  0.00  0.00    +0.050 C 
ATOM     26  C   UNL     1      31.903  -6.673 -21.524  0.00  0.00    +0.015 C 
ATOM     27  C   UNL     1      32.077  -5.356 -21.977  0.00  0.00    +0.004 C 
ATOM     28  C   UNL     1      31.892  -7.487 -23.799  0.00  0.00    +0.015 C 
ATOM     29  C   UNL     1      32.159  -5.113 -23.365  0.00  0.00    +0.019 C 
ATOM     30  C   UNL     1      32.065  -6.185 -24.268  0.00  0.00    +0.003 C 
ATOM     31  C   UNL     1      32.173  -4.274 -21.094  0.00  0.00    +0.021 C 
ATOM     32  C   UNL     1      32.332  -3.791 -23.778  0.00  0.00    +0.099 C 
ATOM     33  C   UNL     1      32.345  -3.003 -21.620  0.00  0.00    +0.099 C 
ENDBRANCH  21  25
ENDBRANCH   1  22
BRANCH   1  34
ATOM     34  C   UNL     1      31.590 -11.134 -19.919  0.00  0.00    -0.072 C 
BRANCH  34  35
ATOM     35  N   UNL     1      30.164 -10.863 -19.758  0.00  0.00    +0.381 N 
ATOM     36  H   UNL     1      29.645 -11.315 -20.511  0.00  0.00    -0.089 HD
ATOM     37  H   UNL     1      30.004  -9.856 -19.792  0.00  0.00    -0.089 HD
ATOM     38  H   UNL     1      29.848 -11.227 -18.859  0.00  0.00    -0.089 HD
ENDBRANCH  34  35
ENDBRANCH   1  34
TORSDOF 9
ENDMDL
MODEL 5
REMARK VINA RESULT:     -12.1      2.875     10.776
REMARK  Name = 66599893
REMARK  9 active torsions:
REMARK  status: ('A' for Active; 'I' for Inactive)
REMARK    1  A    between atoms: C_1  and  C_2
REMARK    2  A    between atoms: C_1  and  C_22
REMARK    3  A    between atoms: C_1  and  C_34
REMARK    4  A    between atoms: C_5  and  C_8
REMARK    5  A    between atoms: C_8  and  O_9
REMARK    6  A    between atoms: O_9  and  C_11
REMARK    7  A    between atoms: C_11  and  C_12
REMARK    8  A    between atoms: N_21  and  C_25
REMARK    9  A    between atoms: C_34  and  N_35
REMARK                            x       y       z     vdW  Elec       q    Type
REMARK                         _______ _______ _______ _____ _____    ______ ____
ROOT
ATOM      1  C   UNL     1      36.172 -18.667 -21.494  0.00  0.00    +0.077 C 
ENDROOT
BRANCH   1   2
ATOM      2  C   UNL     1      35.561 -17.483 -22.228  0.00  0.00    -0.016 C 
ATOM      3  C   UNL     1      35.004 -17.659 -23.495  0.00  0.00    -0.004 C 
ATOM      4  C   UNL     1      35.557 -16.221 -21.633  0.00  0.00    -0.004 C 
ATOM      5  C   UNL     1      34.441 -15.312 -23.574  0.00  0.00    +0.021 C 
ATOM      6  C   UNL     1      34.445 -16.573 -24.168  0.00  0.00    -0.001 C 
ATOM      7  C   UNL     1      34.998 -15.135 -22.307  0.00  0.00    -0.001 C 
BRANCH   5   8
ATOM      8  C   UNL     1      33.841 -14.150 -24.293  0.00  0.00    +0.235 C 
BRANCH   8   9
ATOM      9  O   UNL     1      33.052 -13.389 -23.387  0.00  0.00    -0.440 OA
BRANCH   9  11
ATOM     10  O   UNL     1      34.445 -11.568 -23.590  0.00  0.00    -0.245 OA
ATOM     11  C   UNL     1      33.569 -12.189 -23.008  0.00  0.00    +0.341 C 
BRANCH  11  12
ATOM     12  C   UNL     1      32.922 -11.708 -21.760  0.00  0.00    +0.072 C 
ATOM     13  C   UNL     1      32.538 -10.376 -21.615  0.00  0.00    -0.016 C 
ATOM     14  C   UNL     1      31.711 -10.856 -19.396  0.00  0.00    -0.022 C 
ATOM     15  C   UNL     1      31.932  -9.949 -20.433  0.00  0.00    -0.008 C 
ATOM     16  C   UNL     1      32.701 -12.615 -20.724  0.00  0.00    +0.006 C 
ATOM     17  C   UNL     1      32.096 -12.189 -19.541  0.00  0.00    -0.004 C 
ATOM     18  C   UNL     1      32.762  -9.384 -22.710  0.00  0.00    +0.031 C 
ATOM     19  C   UNL     1      31.065 -10.401 -18.131  0.00  0.00    +0.031 C 
ENDBRANCH  11  12
ENDBRANCH   9  11
ENDBRANCH   8   9
ENDBRANCH   5   8
ENDBRANCH   1   2
BRANCH   1  22
ATOM     20  O   UNL     1      33.984 -18.905 -20.495  0.00  0.00    -0.275 OA
ATOM     21  N   UNL     1      35.760 -20.176 -19.623  0.00  0.00    -0.284 N 
ATOM     22  C   UNL     1      35.162 -19.252 -20.496  0.00  0.00    +0.228 C 
ATOM     23  H   UNL     1      36.723 -20.331 -19.755  0.00  0.00    +0.155 HD
BRANCH  21  25
ATOM     24  N   UNL     1      34.097 -23.491 -14.376  0.00  0.00    -0.242 NA
ATOM     25  C   UNL     1      35.160 -20.904 -18.593  0.00  0.00    +0.050 C 
ATOM     26  C   UNL     1      35.913 -21.289 -17.483  0.00  0.00    +0.015 C 
ATOM     27  C   UNL     1      35.326 -22.023 -16.440  0.00  0.00    +0.004 C 
ATOM     28  C   UNL     1      33.812 -21.243 -18.675  0.00  0.00    +0.015 C 
ATOM     29  C   UNL     1      33.960 -22.364 -16.527  0.00  0.00    +0.019 C 
ATOM     30  C   UNL     1      33.211 -21.970 -17.649  0.00  0.00    +0.003 C 
ATOM     31  C   UNL     1      36.054 -22.425 -15.314  0.00  0.00    +0.021 C 
ATOM     32  C   UNL     1      33.409 -23.093 -15.470  0.00  0.00    +0.099 C 
ATOM     33  C   UNL     1      35.401 -23.145 -14.326  0.00  0.00    +0.099 C 
ENDBRANCH  21  25
ENDBRANCH   1  22
BRANCH   1  34
ATOM     34  C   UNL     1      37.490 -18.312 -20.777  0.00  0.00    -0.072 C 
BRANCH  34  35
ATOM     35  N   UNL     1      38.539 -17.932 -21.720  0.00  0.00    +0.381 N 
ATOM     36  H   UNL     1      38.326 -18.321 -22.639  0.00  0.00    -0.089 HD
ATOM     37  H   UNL     1      39.434 -18.297 -21.396  0.00  0.00    -0.089 HD
ATOM     38  H   UNL     1      38.588 -16.916 -21.782  0.00  0.00    -0.089 HD
ENDBRANCH  34  35
ENDBRANCH   1  34
TORSDOF 9
ENDMDL
MODEL 6
REMARK VINA RESULT:     -12.1      3.008      5.043
REMARK  Name = 66599893
REMARK  9 active torsions:
REMARK  status: ('A' for Active; 'I' for Inactive)
REMARK    1  A    between atoms: C_1  and  C_2
REMARK    2  A    between atoms: C_1  and  C_22
REMARK    3  A    between atoms: C_1  and  C_34
REMARK    4  A    between atoms: C_5  and  C_8
REMARK    5  A    between atoms: C_8  and  O_9
REMARK    6  A    between atoms: O_9  and  C_11
REMARK    7  A    between atoms: C_11  and  C_12
REMARK    8  A    between atoms: N_21  and  C_25
REMARK    9  A    between atoms: C_34  and  N_35
REMARK                            x       y       z     vdW  Elec       q    Type
REMARK                         _______ _______ _______ _____ _____    ______ ____
ROOT
ATOM      1  C   UNL     1      34.693 -22.073 -18.972  0.00  0.00    +0.077 C 
ENDROOT
BRANCH   1   2
ATOM      2  C   UNL     1      34.846 -22.156 -17.461  0.00  0.00    -0.016 C 
ATOM      3  C   UNL     1      36.015 -21.697 -16.852  0.00  0.00    -0.004 C 
ATOM      4  C   UNL     1      33.819 -22.692 -16.684  0.00  0.00    -0.004 C 
ATOM      5  C   UNL     1      35.128 -22.309 -14.690  0.00  0.00    +0.021 C 
ATOM      6  C   UNL     1      36.155 -21.775 -15.467  0.00  0.00    -0.001 C 
ATOM      7  C   UNL     1      33.960 -22.769 -15.298  0.00  0.00    -0.001 C 
BRANCH   5   8
ATOM      8  C   UNL     1      35.278 -22.391 -13.208  0.00  0.00    +0.235 C 
BRANCH   8   9
ATOM      9  O   UNL     1      34.934 -23.699 -12.769  0.00  0.00    -0.440 OA
BRANCH   9  11
ATOM     10  O   UNL     1      35.465 -24.434 -10.653  0.00  0.00    -0.245 OA
ATOM     11  C   UNL     1      35.749 -24.246 -11.826  0.00  0.00    +0.341 C 
BRANCH  11  12
ATOM     12  C   UNL     1      37.068 -24.596 -12.412  0.00  0.00    +0.072 C 
ATOM     13  C   UNL     1      38.213 -23.865 -12.098  0.00  0.00    -0.016 C 
ATOM     14  C   UNL     1      39.522 -25.295 -13.540  0.00  0.00    -0.022 C 
ATOM     15  C   UNL     1      39.440 -24.214 -12.661  0.00  0.00    -0.008 C 
ATOM     16  C   UNL     1      37.149 -25.677 -13.290  0.00  0.00    +0.006 C 
ATOM     17  C   UNL     1      38.376 -26.027 -13.854  0.00  0.00    -0.004 C 
ATOM     18  C   UNL     1      38.155 -22.704 -11.160  0.00  0.00    +0.031 C 
ATOM     19  C   UNL     1      40.833 -25.669 -14.144  0.00  0.00    +0.031 C 
ENDBRANCH  11  12
ENDBRANCH   9  11
ENDBRANCH   8   9
ENDBRANCH   5   8
ENDBRANCH   1   2
BRANCH   1  22
ATOM     20  O   UNL     1      33.359 -20.057 -18.940  0.00  0.00    -0.275 OA
ATOM     21  N   UNL     1      35.255 -20.127 -20.330  0.00  0.00    -0.284 N 
ATOM     22  C   UNL     1      34.343 -20.638 -19.392  0.00  0.00    +0.228 C 
ATOM     23  H   UNL     1      35.984 -20.732 -20.594  0.00  0.00    +0.155 HD
BRANCH  21  25
ATOM     24  N   UNL     1      34.883 -14.928 -24.088  0.00  0.00    -0.242 NA
ATOM     25  C   UNL     1      35.258 -18.868 -20.934  0.00  0.00    +0.050 C 
ATOM     26  C   UNL     1      34.867 -18.734 -22.267  0.00  0.00    +0.015 C 
ATOM     27  C   UNL     1      34.867 -17.476 -22.889  0.00  0.00    +0.004 C 
ATOM     28  C   UNL     1      35.652 -17.749 -20.205  0.00  0.00    +0.015 C 
ATOM     29  C   UNL     1      35.266 -16.344 -22.148  0.00  0.00    +0.019 C 
ATOM     30  C   UNL     1      35.657 -16.490 -20.806  0.00  0.00    +0.003 C 
ATOM     31  C   UNL     1      34.481 -17.309 -24.225  0.00  0.00    +0.021 C 
ATOM     32  C   UNL     1      35.252 -15.109 -22.799  0.00  0.00    +0.099 C 
ATOM     33  C   UNL     1      34.507 -16.033 -24.766  0.00  0.00    +0.099 C 
ENDBRANCH  21  25
ENDBRANCH   1  22
BRANCH   1  34
ATOM     34  C   UNL     1      33.646 -23.063 -19.523  0.00  0.00    -0.072 C 
BRANCH  34  35
ATOM     35  N   UNL     1      34.236 -24.362 -19.835  0.00  0.00    +0.381 N 
ATOM     36  H   UNL     1      34.854 -24.646 -19.075  0.00  0.00    -0.089 HD
ATOM     37  H   UNL     1      34.771 -24.292 -20.700  0.00  0.00    -0.089 HD
ATOM     38  H   UNL     1      33.495 -25.053 -19.949  0.00  0.00    -0.089 HD
ENDBRANCH  34  35
ENDBRANCH   1  34
TORSDOF 9
ENDMDL
MODEL 7
REMARK VINA RESULT:     -12.1      3.913      7.265
REMARK  Name = 66599893
REMARK  9 active torsions:
REMARK  status: ('A' for Active; 'I' for Inactive)
REMARK    1  A    between atoms: C_1  and  C_2
REMARK    2  A    between atoms: C_1  and  C_22
REMARK    3  A    between atoms: C_1  and  C_34
REMARK    4  A    between atoms: C_5  and  C_8
REMARK    5  A    between atoms: C_8  and  O_9
REMARK    6  A    between atoms: O_9  and  C_11
REMARK    7  A    between atoms: C_11  and  C_12
REMARK    8  A    between atoms: N_21  and  C_25
REMARK    9  A    between atoms: C_34  and  N_35
REMARK                            x       y       z     vdW  Elec       q    Type
REMARK                         _______ _______ _______ _____ _____    ______ ____
ROOT
ATOM      1  C   UNL     1      31.909 -11.496 -21.315  0.00  0.00    +0.077 C 
ENDROOT
BRANCH   1   2
ATOM      2  C   UNL     1      32.904 -12.625 -21.532  0.00  0.00    -0.016 C 
ATOM      3  C   UNL     1      33.134 -13.115 -22.819  0.00  0.00    -0.004 C 
ATOM      4  C   UNL     1      33.588 -13.171 -20.446  0.00  0.00    -0.004 C 
ATOM      5  C   UNL     1      34.729 -14.697 -21.932  0.00  0.00    +0.021 C 
ATOM      6  C   UNL     1      34.046 -14.151 -23.017  0.00  0.00    -0.001 C 
ATOM      7  C   UNL     1      34.499 -14.208 -20.646  0.00  0.00    -0.001 C 
BRANCH   5   8
ATOM      8  C   UNL     1      35.705 -15.804 -22.144  0.00  0.00    +0.235 C 
BRANCH   8   9
ATOM      9  O   UNL     1      35.435 -16.856 -21.226  0.00  0.00    -0.440 OA
BRANCH   9  11
ATOM     10  O   UNL     1      35.380 -18.382 -22.948  0.00  0.00    -0.245 OA
ATOM     11  C   UNL     1      35.249 -18.090 -21.770  0.00  0.00    +0.341 C 
BRANCH  11  12
ATOM     12  C   UNL     1      34.855 -19.070 -20.726  0.00  0.00    +0.072 C 
ATOM     13  C   UNL     1      35.806 -19.661 -19.896  0.00  0.00    -0.016 C 
ATOM     14  C   UNL     1      34.061 -20.907 -18.782  0.00  0.00    -0.022 C 
ATOM     15  C   UNL     1      35.410 -20.580 -18.924  0.00  0.00    -0.008 C 
ATOM     16  C   UNL     1      33.506 -19.397 -20.585  0.00  0.00    +0.006 C 
ATOM     17  C   UNL     1      33.109 -20.315 -19.613  0.00  0.00    -0.004 C 
ATOM     18  C   UNL     1      37.257 -19.329 -20.026  0.00  0.00    +0.031 C 
ATOM     19  C   UNL     1      33.636 -21.889 -17.744  0.00  0.00    +0.031 C 
ENDBRANCH  11  12
ENDBRANCH   9  11
ENDBRANCH   8   9
ENDBRANCH   5   8
ENDBRANCH   1   2
BRANCH   1  22
ATOM     20  O   UNL     1      33.576 -10.119 -22.396  0.00  0.00    -0.275 OA
ATOM     21  N   UNL     1      31.667  -9.076 -21.504  0.00  0.00    -0.284 N 
ATOM     22  C   UNL     1      32.496 -10.167 -21.813  0.00  0.00    +0.228 C 
ATOM     23  H   UNL     1      30.837  -9.290 -21.021  0.00  0.00    +0.155 HD
BRANCH  21  25
ATOM     24  N   UNL     1      32.353  -3.189 -23.985  0.00  0.00    -0.242 NA
ATOM     25  C   UNL     1      31.871  -7.726 -21.796  0.00  0.00    +0.050 C 
ATOM     26  C   UNL     1      31.731  -7.268 -23.107  0.00  0.00    +0.015 C 
ATOM     27  C   UNL     1      31.935  -5.914 -23.418  0.00  0.00    +0.004 C 
ATOM     28  C   UNL     1      32.215  -6.839 -20.780  0.00  0.00    +0.015 C 
ATOM     29  C   UNL     1      32.283  -5.019 -22.385  0.00  0.00    +0.019 C 
ATOM     30  C   UNL     1      32.421  -5.490 -21.068  0.00  0.00    +0.003 C 
ATOM     31  C   UNL     1      31.802  -5.425 -24.723  0.00  0.00    +0.021 C 
ATOM     32  C   UNL     1      32.476  -3.680 -22.731  0.00  0.00    +0.099 C 
ATOM     33  C   UNL     1      32.019  -4.074 -24.948  0.00  0.00    +0.099 C 
ENDBRANCH  21  25
ENDBRANCH   1  22
BRANCH   1  34
ATOM     34  C   UNL     1      31.463 -11.365 -19.844  0.00  0.00    -0.072 C 
BRANCH  34  35
ATOM     35  N   UNL     1      30.080 -10.907 -19.734  0.00  0.00    +0.381 N 
ATOM     36  H   UNL     1      29.901 -10.594 -18.780  0.00  0.00    -0.089 HD
ATOM     37  H   UNL     1      29.449 -11.674 -19.963  0.00  0.00    -0.089 HD
ATOM     38  H   UNL     1      29.926 -10.134 -20.381  0.00  0.00    -0.089 HD
ENDBRANCH  34  35
ENDBRANCH   1  34
TORSDOF 9
ENDMDL
MODEL 8
REMARK VINA RESULT:     -12.0      3.427      5.877
REMARK  Name = 66599893
REMARK  9 active torsions:
REMARK  status: ('A' for Active; 'I' for Inactive)
REMARK    1  A    between atoms: C_1  and  C_2
REMARK    2  A    between atoms: C_1  and  C_22
REMARK    3  A    between atoms: C_1  and  C_34
REMARK    4  A    between atoms: C_5  and  C_8
REMARK    5  A    between atoms: C_8  and  O_9
REMARK    6  A    between atoms: O_9  and  C_11
REMARK    7  A    between atoms: C_11  and  C_12
REMARK    8  A    between atoms: N_21  and  C_25
REMARK    9  A    between atoms: C_34  and  N_35
REMARK                            x       y       z     vdW  Elec       q    Type
REMARK                         _______ _______ _______ _____ _____    ______ ____
ROOT
ATOM      1  C   UNL     1      34.171 -12.234 -23.760  0.00  0.00    +0.077 C 
ENDROOT
BRANCH   1   2
ATOM      2  C   UNL     1      34.562 -13.423 -22.897  0.00  0.00    -0.016 C 
ATOM      3  C   UNL     1      34.928 -14.630 -23.496  0.00  0.00    -0.004 C 
ATOM      4  C   UNL     1      34.557 -13.309 -21.507  0.00  0.00    -0.004 C 
ATOM      5  C   UNL     1      35.280 -15.606 -21.315  0.00  0.00    +0.021 C 
ATOM      6  C   UNL     1      35.285 -15.721 -22.704  0.00  0.00    -0.001 C 
ATOM      7  C   UNL     1      34.915 -14.400 -20.716  0.00  0.00    -0.001 C 
BRANCH   5   8
ATOM      8  C   UNL     1      35.664 -16.772 -20.468  0.00  0.00    +0.235 C 
BRANCH   8   9
ATOM      9  O   UNL     1      34.545 -17.637 -20.318  0.00  0.00    -0.440 OA
BRANCH   9  11
ATOM     10  O   UNL     1      34.973 -19.189 -21.963  0.00  0.00    -0.245 OA
ATOM     11  C   UNL     1      34.694 -18.897 -20.810  0.00  0.00    +0.341 C 
BRANCH  11  12
ATOM     12  C   UNL     1      34.470 -19.907 -19.745  0.00  0.00    +0.072 C 
ATOM     13  C   UNL     1      35.542 -20.512 -19.089  0.00  0.00    -0.016 C 
ATOM     14  C   UNL     1      33.996 -21.800 -17.752  0.00  0.00    -0.022 C 
ATOM     15  C   UNL     1      35.305 -21.459 -18.092  0.00  0.00    -0.008 C 
ATOM     16  C   UNL     1      33.161 -20.248 -19.405  0.00  0.00    +0.006 C 
ATOM     17  C   UNL     1      32.923 -21.195 -18.409  0.00  0.00    -0.004 C 
ATOM     18  C   UNL     1      36.953 -20.165 -19.432  0.00  0.00    +0.031 C 
ATOM     19  C   UNL     1      33.740 -22.813 -16.687  0.00  0.00    +0.031 C 
ENDBRANCH  11  12
ENDBRANCH   9  11
ENDBRANCH   8   9
ENDBRANCH   5   8
ENDBRANCH   1   2
BRANCH   1  22
ATOM     20  O   UNL     1      32.522 -11.615 -22.104  0.00  0.00    -0.275 OA
ATOM     21  N   UNL     1      33.617  -9.905 -23.291  0.00  0.00    -0.284 N 
ATOM     22  C   UNL     1      33.337 -11.237 -22.942  0.00  0.00    +0.228 C 
ATOM     23  H   UNL     1      34.294  -9.778 -23.994  0.00  0.00    +0.155 HD
BRANCH  21  25
ATOM     24  N   UNL     1      31.563  -4.893 -19.835  0.00  0.00    -0.242 NA
ATOM     25  C   UNL     1      33.059  -8.738 -22.764  0.00  0.00    +0.050 C 
ATOM     26  C   UNL     1      33.256  -8.417 -21.420  0.00  0.00    +0.015 C 
ATOM     27  C   UNL     1      32.700  -7.249 -20.875  0.00  0.00    +0.004 C 
ATOM     28  C   UNL     1      32.306  -7.899 -23.580  0.00  0.00    +0.015 C 
ATOM     29  C   UNL     1      31.938  -6.400 -21.706  0.00  0.00    +0.019 C 
ATOM     30  C   UNL     1      31.746  -6.734 -23.058  0.00  0.00    +0.003 C 
ATOM     31  C   UNL     1      32.879  -6.899 -19.532  0.00  0.00    +0.021 C 
ATOM     32  C   UNL     1      31.401  -5.247 -21.130  0.00  0.00    +0.099 C 
ATOM     33  C   UNL     1      32.298  -5.728 -19.070  0.00  0.00    +0.099 C 
ENDBRANCH  21  25
ENDBRANCH   1  22
BRANCH   1  34
ATOM     34  C   UNL     1      33.413 -12.644 -25.039  0.00  0.00    -0.072 C 
BRANCH  34  35
ATOM     35  N   UNL     1      33.830 -11.856 -26.195  0.00  0.00    +0.381 N 
ATOM     36  H   UNL     1      34.128 -12.481 -26.943  0.00  0.00    -0.089 HD
ATOM     37  H   UNL     1      34.605 -11.249 -25.931  0.00  0.00    -0.089 HD
ATOM     38  H   UNL     1      33.048 -11.286 -26.518  0.00  0.00    -0.089 HD
ENDBRANCH  34  35
ENDBRANCH   1  34
TORSDOF 9
ENDMDL
MODEL 9
REMARK VINA RESULT:     -11.8      2.843     11.217
REMARK  Name = 66599893
REMARK  9 active torsions:
REMARK  status: ('A' for Active; 'I' for Inactive)
REMARK    1  A    between atoms: C_1  and  C_2
REMARK    2  A    between atoms: C_1  and  C_22
REMARK    3  A    between atoms: C_1  and  C_34
REMARK    4  A    between atoms: C_5  and  C_8
REMARK    5  A    between atoms: C_8  and  O_9
REMARK    6  A    between atoms: O_9  and  C_11
REMARK    7  A    between atoms: C_11  and  C_12
REMARK    8  A    between atoms: N_21  and  C_25
REMARK    9  A    between atoms: C_34  and  N_35
REMARK                            x       y       z     vdW  Elec       q    Type
REMARK                         _______ _______ _______ _____ _____    ______ ____
ROOT
ATOM      1  C   UNL     1      36.002 -18.499 -21.316  0.00  0.00    +0.077 C 
ENDROOT
BRANCH   1   2
ATOM      2  C   UNL     1      35.565 -17.045 -21.401  0.00  0.00    -0.016 C 
ATOM      3  C   UNL     1      35.360 -16.308 -20.234  0.00  0.00    -0.004 C 
ATOM      4  C   UNL     1      35.371 -16.446 -22.646  0.00  0.00    -0.004 C 
ATOM      5  C   UNL     1      34.764 -14.377 -21.557  0.00  0.00    +0.021 C 
ATOM      6  C   UNL     1      34.958 -14.975 -20.313  0.00  0.00    -0.001 C 
ATOM      7  C   UNL     1      34.969 -15.113 -22.724  0.00  0.00    -0.001 C 
BRANCH   5   8
ATOM      8  C   UNL     1      34.336 -12.950 -21.642  0.00  0.00    +0.235 C 
BRANCH   8   9
ATOM      9  O   UNL     1      32.919 -12.887 -21.739  0.00  0.00    -0.440 OA
BRANCH   9  11
ATOM     10  O   UNL     1      31.789 -13.037 -19.739  0.00  0.00    -0.245 OA
ATOM     11  C   UNL     1      32.268 -12.385 -20.655  0.00  0.00    +0.341 C 
BRANCH  11  12
ATOM     12  C   UNL     1      32.205 -10.902 -20.720  0.00  0.00    +0.072 C 
ATOM     13  C   UNL     1      31.937 -10.142 -19.582  0.00  0.00    -0.016 C 
ATOM     14  C   UNL     1      32.096  -8.120 -20.895  0.00  0.00    -0.022 C 
ATOM     15  C   UNL     1      31.882  -8.751 -19.669  0.00  0.00    -0.008 C 
ATOM     16  C   UNL     1      32.419 -10.272 -21.945  0.00  0.00    +0.006 C 
ATOM     17  C   UNL     1      32.365  -8.881 -22.034  0.00  0.00    -0.004 C 
ATOM     18  C   UNL     1      31.704 -10.791 -18.257  0.00  0.00    +0.031 C 
ATOM     19  C   UNL     1      32.038  -6.633 -20.990  0.00  0.00    +0.031 C 
ENDBRANCH  11  12
ENDBRANCH   9  11
ENDBRANCH   8   9
ENDBRANCH   5   8
ENDBRANCH   1   2
BRANCH   1  22
ATOM     20  O   UNL     1      33.827 -19.252 -20.576  0.00  0.00    -0.275 OA
ATOM     21  N   UNL     1      35.730 -20.004 -19.416  0.00  0.00    -0.284 N 
ATOM     22  C   UNL     1      35.044 -19.289 -20.412  0.00  0.00    +0.228 C 
ATOM     23  H   UNL     1      36.710 -19.914 -19.419  0.00  0.00    +0.155 HD
BRANCH  21  25
ATOM     24  N   UNL     1      34.378 -23.718 -14.350  0.00  0.00    -0.242 NA
ATOM     25  C   UNL     1      35.196 -20.827 -18.421  0.00  0.00    +0.050 C 
ATOM     26  C   UNL     1      35.994 -21.228 -17.348  0.00  0.00    +0.015 C 
ATOM     27  C   UNL     1      35.473 -22.057 -16.342  0.00  0.00    +0.004 C 
ATOM     28  C   UNL     1      33.871 -21.246 -18.503  0.00  0.00    +0.015 C 
ATOM     29  C   UNL     1      34.130 -22.479 -16.427  0.00  0.00    +0.019 C 
ATOM     30  C   UNL     1      33.336 -22.068 -17.512  0.00  0.00    +0.003 C 
ATOM     31  C   UNL     1      36.247 -22.477 -15.253  0.00  0.00    +0.021 C 
ATOM     32  C   UNL     1      33.647 -23.302 -15.408  0.00  0.00    +0.099 C 
ATOM     33  C   UNL     1      35.659 -23.295 -14.300  0.00  0.00    +0.099 C 
ENDBRANCH  21  25
ENDBRANCH   1  22
BRANCH   1  34
ATOM     34  C   UNL     1      37.455 -18.661 -20.827  0.00  0.00    -0.072 C 
BRANCH  34  35
ATOM     35  N   UNL     1      38.389 -17.865 -21.619  0.00  0.00    +0.381 N 
ATOM     36  H   UNL     1      38.526 -18.307 -22.528  0.00  0.00    -0.089 HD
ATOM     37  H   UNL     1      39.282 -17.804 -21.132  0.00  0.00    -0.089 HD
ATOM     38  H   UNL     1      38.009 -16.927 -21.751  0.00  0.00    -0.089 HD
ENDBRANCH  34  35
ENDBRANCH   1  34
TORSDOF 9
ENDMDL
