MODEL 1
REMARK VINA RESULT:     -11.5      0.000      0.000
REMARK  Name = 4823
REMARK  3 active torsions:
REMARK  status: ('A' for Active; 'I' for Inactive)
REMARK    1  A    between atoms: C_3  and  C_16
REMARK    2  A    between atoms: C_9  and  C_21
REMARK    3  A    between atoms: C_26  and  O_27
REMARK                            x       y       z     vdW  Elec       q    Type
REMARK                         _______ _______ _______ _____ _____    ______ ____
ROOT
ATOM      1  N   UNL     1      35.975 -20.621 -18.232  0.00  0.00    -0.315 N 
ATOM      2  N   UNL     1      33.853 -20.907 -18.827  0.00  0.00    -0.315 N 
ATOM      3  C   UNL     1      35.159 -22.975 -15.480  0.00  0.00    +0.016 C 
ATOM      4  C   UNL     1      35.452 -21.494 -17.313  0.00  0.00    +0.059 C 
ATOM      5  C   UNL     1      36.007 -22.135 -16.206  0.00  0.00    +0.017 C 
ATOM      6  C   UNL     1      34.126 -21.657 -17.706  0.00  0.00    +0.059 C 
ATOM      7  C   UNL     1      33.827 -23.161 -15.845  0.00  0.00    +0.003 C 
ATOM      8  C   UNL     1      33.291 -22.506 -16.961  0.00  0.00    +0.016 C 
ATOM      9  C   UNL     1      34.982 -20.300 -19.114  0.00  0.00    +0.168 C 
ATOM     10  H   UNL     1      36.900 -20.286 -18.252  0.00  0.00    +0.149 HD
ATOM     11  H   UNL     1      32.996 -20.840 -19.308  0.00  0.00    +0.149 HD
ENDROOT
BRANCH   3  16
ATOM     12  O   UNL     1      37.221 -25.209 -10.877  0.00  0.00    -0.273 OA
ATOM     13  N   UNL     1      35.003 -23.678 -13.181  0.00  0.00    -0.184 NA
ATOM     14  N   UNL     1      35.501 -24.286 -12.081  0.00  0.00    -0.206 N 
ATOM     15  C   UNL     1      37.016 -24.450 -14.382  0.00  0.00    +0.051 C 
ATOM     16  C   UNL     1      35.698 -23.695 -14.279  0.00  0.00    +0.076 C 
ATOM     17  C   UNL     1      37.733 -24.346 -13.046  0.00  0.00    +0.093 C 
ATOM     18  C   UNL     1      36.760 -25.907 -14.774  0.00  0.00    +0.007 C 
ATOM     19  C   UNL     1      36.807 -24.680 -11.909  0.00  0.00    +0.241 C 
ATOM     20  H   UNL     1      34.876 -24.462 -11.340  0.00  0.00    +0.177 HD
ENDBRANCH   3  16
BRANCH   9  21
ATOM     21  C   UNL     1      35.202 -19.395 -20.217  0.00  0.00    +0.015 C 
ATOM     22  C   UNL     1      34.245 -19.278 -21.224  0.00  0.00    +0.002 C 
ATOM     23  C   UNL     1      36.374 -18.640 -20.276  0.00  0.00    +0.002 C 
ATOM     24  C   UNL     1      34.458 -18.403 -22.290  0.00  0.00    +0.037 C 
ATOM     25  C   UNL     1      36.587 -17.766 -21.341  0.00  0.00    +0.037 C 
ATOM     26  C   UNL     1      35.629 -17.648 -22.349  0.00  0.00    +0.139 C 
BRANCH  26  27
ATOM     27  O   UNL     1      35.837 -16.795 -23.388  0.00  0.00    -0.471 OA
ATOM     28  C   UNL     1      34.693 -16.406 -24.149  0.00  0.00    +0.252 C 
ENDBRANCH  26  27
ENDBRANCH   9  21
TORSDOF 3
ENDMDL
MODEL 2
REMARK VINA RESULT:     -11.4      1.466      1.925
REMARK  Name = 4823
REMARK  3 active torsions:
REMARK  status: ('A' for Active; 'I' for Inactive)
REMARK    1  A    between atoms: C_3  and  C_16
REMARK    2  A    between atoms: C_9  and  C_21
REMARK    3  A    between atoms: C_26  and  O_27
REMARK                            x       y       z     vdW  Elec       q    Type
REMARK                         _______ _______ _______ _____ _____    ______ ____
ROOT
ATOM      1  N   UNL     1      35.926 -19.671 -19.402  0.00  0.00    -0.315 N 
ATOM      2  N   UNL     1      33.784 -20.057 -19.846  0.00  0.00    -0.315 N 
ATOM      3  C   UNL     1      35.437 -22.113 -16.649  0.00  0.00    +0.016 C 
ATOM      4  C   UNL     1      35.518 -20.586 -18.466  0.00  0.00    +0.059 C 
ATOM      5  C   UNL     1      36.185 -21.217 -17.416  0.00  0.00    +0.017 C 
ATOM      6  C   UNL     1      34.177 -20.811 -18.765  0.00  0.00    +0.059 C 
ATOM      7  C   UNL     1      34.093 -22.362 -16.919  0.00  0.00    +0.003 C 
ATOM      8  C   UNL     1      33.443 -21.716 -17.979  0.00  0.00    +0.016 C 
ATOM      9  C   UNL     1      34.856 -19.387 -20.202  0.00  0.00    +0.168 C 
ATOM     10  H   UNL     1      36.830 -19.287 -19.482  0.00  0.00    +0.149 HD
ATOM     11  H   UNL     1      32.892 -20.027 -20.263  0.00  0.00    +0.149 HD
ENDROOT
BRANCH   3  16
ATOM     12  O   UNL     1      38.144 -24.931 -12.756  0.00  0.00    -0.273 OA
ATOM     13  N   UNL     1      37.303 -22.473 -15.168  0.00  0.00    -0.184 NA
ATOM     14  N   UNL     1      37.925 -23.138 -14.168  0.00  0.00    -0.206 N 
ATOM     15  C   UNL     1      35.339 -23.908 -14.752  0.00  0.00    +0.051 C 
ATOM     16  C   UNL     1      36.099 -22.824 -15.506  0.00  0.00    +0.076 C 
ATOM     17  C   UNL     1      36.332 -24.971 -14.313  0.00  0.00    +0.093 C 
ATOM     18  C   UNL     1      34.597 -23.300 -13.560  0.00  0.00    +0.007 C 
ATOM     19  C   UNL     1      37.531 -24.350 -13.651  0.00  0.00    +0.241 C 
ATOM     20  H   UNL     1      38.726 -22.719 -13.777  0.00  0.00    +0.177 HD
ENDBRANCH   3  16
BRANCH   9  21
ATOM     21  C   UNL     1      34.948 -18.452 -21.299  0.00  0.00    +0.015 C 
ATOM     22  C   UNL     1      34.560 -18.842 -22.580  0.00  0.00    +0.002 C 
ATOM     23  C   UNL     1      35.427 -17.161 -21.076  0.00  0.00    +0.002 C 
ATOM     24  C   UNL     1      34.649 -17.938 -23.640  0.00  0.00    +0.037 C 
ATOM     25  C   UNL     1      35.516 -16.258 -22.135  0.00  0.00    +0.037 C 
ATOM     26  C   UNL     1      35.127 -16.647 -23.417  0.00  0.00    +0.139 C 
BRANCH  26  27
ATOM     27  O   UNL     1      35.213 -15.767 -24.451  0.00  0.00    -0.471 OA
ATOM     28  C   UNL     1      33.987 -15.293 -25.006  0.00  0.00    +0.252 C 
ENDBRANCH  26  27
ENDBRANCH   9  21
TORSDOF 3
ENDMDL
MODEL 3
REMARK VINA RESULT:     -11.0      6.041      6.894
REMARK  Name = 4823
REMARK  3 active torsions:
REMARK  status: ('A' for Active; 'I' for Inactive)
REMARK    1  A    between atoms: C_3  and  C_16
REMARK    2  A    between atoms: C_9  and  C_21
REMARK    3  A    between atoms: C_26  and  O_27
REMARK                            x       y       z     vdW  Elec       q    Type
REMARK                         _______ _______ _______ _____ _____    ______ ____
ROOT
ATOM      1  N   UNL     1      32.676 -23.081 -15.151  0.00  0.00    -0.315 N 
ATOM      2  N   UNL     1      31.856 -23.116 -13.086  0.00  0.00    -0.315 N 
ATOM      3  C   UNL     1      35.934 -23.736 -13.498  0.00  0.00    +0.016 C 
ATOM      4  C   UNL     1      33.751 -23.319 -14.336  0.00  0.00    +0.059 C 
ATOM      5  C   UNL     1      35.106 -23.515 -14.601  0.00  0.00    +0.017 C 
ATOM      6  C   UNL     1      33.213 -23.337 -13.051  0.00  0.00    +0.059 C 
ATOM      7  C   UNL     1      35.430 -23.760 -12.199  0.00  0.00    +0.003 C 
ATOM      8  C   UNL     1      34.065 -23.561 -11.956  0.00  0.00    +0.016 C 
ATOM      9  C   UNL     1      31.568 -22.968 -14.359  0.00  0.00    +0.168 C 
ATOM     10  H   UNL     1      32.698 -23.006 -16.133  0.00  0.00    +0.149 HD
ATOM     11  H   UNL     1      31.235 -23.078 -12.323  0.00  0.00    +0.149 HD
ENDROOT
BRANCH   3  16
ATOM     12  O   UNL     1      41.216 -24.856 -14.625  0.00  0.00    -0.273 OA
ATOM     13  N   UNL     1      37.933 -23.532 -14.826  0.00  0.00    -0.184 NA
ATOM     14  N   UNL     1      39.246 -23.764 -15.054  0.00  0.00    -0.206 N 
ATOM     15  C   UNL     1      38.233 -24.629 -12.636  0.00  0.00    +0.051 C 
ATOM     16  C   UNL     1      37.402 -23.955 -13.719  0.00  0.00    +0.076 C 
ATOM     17  C   UNL     1      39.314 -25.459 -13.310  0.00  0.00    +0.093 C 
ATOM     18  C   UNL     1      38.831 -23.579 -11.698  0.00  0.00    +0.007 C 
ATOM     19  C   UNL     1      40.029 -24.660 -14.365  0.00  0.00    +0.241 C 
ATOM     20  H   UNL     1      39.678 -23.247 -15.773  0.00  0.00    +0.177 HD
ENDBRANCH   3  16
BRANCH   9  21
ATOM     21  C   UNL     1      30.257 -22.715 -14.909  0.00  0.00    +0.015 C 
ATOM     22  C   UNL     1      29.472 -21.685 -14.393  0.00  0.00    +0.002 C 
ATOM     23  C   UNL     1      29.776 -23.502 -15.955  0.00  0.00    +0.002 C 
ATOM     24  C   UNL     1      28.205 -21.440 -14.925  0.00  0.00    +0.037 C 
ATOM     25  C   UNL     1      28.510 -23.258 -16.487  0.00  0.00    +0.037 C 
ATOM     26  C   UNL     1      27.725 -22.227 -15.972  0.00  0.00    +0.139 C 
BRANCH  26  27
ATOM     27  O   UNL     1      26.490 -21.988 -16.490  0.00  0.00    -0.471 OA
ATOM     28  C   UNL     1      26.241 -20.680 -17.003  0.00  0.00    +0.252 C 
ENDBRANCH  26  27
ENDBRANCH   9  21
TORSDOF 3
ENDMDL
MODEL 4
REMARK VINA RESULT:     -11.0      2.431      3.522
REMARK  Name = 4823
REMARK  3 active torsions:
REMARK  status: ('A' for Active; 'I' for Inactive)
REMARK    1  A    between atoms: C_3  and  C_16
REMARK    2  A    between atoms: C_9  and  C_21
REMARK    3  A    between atoms: C_26  and  O_27
REMARK                            x       y       z     vdW  Elec       q    Type
REMARK                         _______ _______ _______ _____ _____    ______ ____
ROOT
ATOM      1  N   UNL     1      33.852 -19.499 -20.362  0.00  0.00    -0.315 N 
ATOM      2  N   UNL     1      36.072 -19.406 -20.408  0.00  0.00    -0.315 N 
ATOM      3  C   UNL     1      34.351 -21.666 -17.389  0.00  0.00    +0.016 C 
ATOM      4  C   UNL     1      34.272 -20.264 -19.304  0.00  0.00    +0.059 C 
ATOM      5  C   UNL     1      33.578 -20.991 -18.337  0.00  0.00    +0.017 C 
ATOM      6  C   UNL     1      35.662 -20.189 -19.354  0.00  0.00    +0.059 C 
ATOM      7  C   UNL     1      35.743 -21.614 -17.410  0.00  0.00    +0.003 C 
ATOM      8  C   UNL     1      36.419 -20.876 -18.390  0.00  0.00    +0.016 C 
ATOM      9  C   UNL     1      34.963 -19.009 -20.990  0.00  0.00    +0.168 C 
ATOM     10  H   UNL     1      32.917 -19.334 -20.622  0.00  0.00    +0.149 HD
ATOM     11  H   UNL     1      36.997 -19.190 -20.669  0.00  0.00    +0.149 HD
ENDROOT
BRANCH   3  16
ATOM     12  O   UNL     1      31.535 -24.248 -13.411  0.00  0.00    -0.273 OA
ATOM     13  N   UNL     1      32.479 -22.942 -16.569  0.00  0.00    -0.184 NA
ATOM     14  N   UNL     1      31.832 -23.626 -15.598  0.00  0.00    -0.206 N 
ATOM     15  C   UNL     1      34.374 -22.727 -15.001  0.00  0.00    +0.051 C 
ATOM     16  C   UNL     1      33.662 -22.465 -16.322  0.00  0.00    +0.076 C 
ATOM     17  C   UNL     1      33.333 -22.750 -13.894  0.00  0.00    +0.093 C 
ATOM     18  C   UNL     1      35.152 -24.043 -15.072  0.00  0.00    +0.007 C 
ATOM     19  C   UNL     1      32.170 -23.628 -14.264  0.00  0.00    +0.241 C 
ATOM     20  H   UNL     1      31.055 -24.167 -15.868  0.00  0.00    +0.177 HD
ENDBRANCH   3  16
BRANCH   9  21
ATOM     21  C   UNL     1      34.871 -18.158 -22.152  0.00  0.00    +0.015 C 
ATOM     22  C   UNL     1      35.354 -16.851 -22.098  0.00  0.00    +0.002 C 
ATOM     23  C   UNL     1      34.297 -18.642 -23.327  0.00  0.00    +0.002 C 
ATOM     24  C   UNL     1      35.266 -16.028 -23.221  0.00  0.00    +0.037 C 
ATOM     25  C   UNL     1      34.208 -17.819 -24.450  0.00  0.00    +0.037 C 
ATOM     26  C   UNL     1      34.693 -16.512 -24.397  0.00  0.00    +0.139 C 
BRANCH  26  27
ATOM     27  O   UNL     1      34.607 -15.709 -25.492  0.00  0.00    -0.471 OA
ATOM     28  C   UNL     1      33.849 -14.507 -25.359  0.00  0.00    +0.252 C 
ENDBRANCH  26  27
ENDBRANCH   9  21
TORSDOF 3
ENDMDL
MODEL 5
REMARK VINA RESULT:     -10.9      3.062      9.716
REMARK  Name = 4823
REMARK  3 active torsions:
REMARK  status: ('A' for Active; 'I' for Inactive)
REMARK    1  A    between atoms: C_3  and  C_16
REMARK    2  A    between atoms: C_9  and  C_21
REMARK    3  A    between atoms: C_26  and  O_27
REMARK                            x       y       z     vdW  Elec       q    Type
REMARK                         _______ _______ _______ _____ _____    ______ ____
ROOT
ATOM      1  N   UNL     1      32.998 -20.835 -18.542  0.00  0.00    -0.315 N 
ATOM      2  N   UNL     1      34.936 -21.526 -17.702  0.00  0.00    -0.315 N 
ATOM      3  C   UNL     1      35.102 -19.127 -21.079  0.00  0.00    +0.016 C 
ATOM      4  C   UNL     1      33.961 -20.300 -19.358  0.00  0.00    +0.059 C 
ATOM      5  C   UNL     1      33.889 -19.489 -20.490  0.00  0.00    +0.017 C 
ATOM      6  C   UNL     1      35.163 -20.746 -18.813  0.00  0.00    +0.059 C 
ATOM      7  C   UNL     1      36.323 -19.556 -20.560  0.00  0.00    +0.003 C 
ATOM      8  C   UNL     1      36.372 -20.370 -19.422  0.00  0.00    +0.016 C 
ATOM      9  C   UNL     1      33.630 -21.559 -17.570  0.00  0.00    +0.168 C 
ATOM     10  H   UNL     1      32.025 -20.718 -18.640  0.00  0.00    +0.149 HD
ATOM     11  H   UNL     1      35.608 -21.965 -17.132  0.00  0.00    +0.149 HD
ENDROOT
BRANCH   3  16
ATOM     12  O   UNL     1      34.776 -15.644 -25.343  0.00  0.00    -0.273 OA
ATOM     13  N   UNL     1      35.720 -17.122 -22.262  0.00  0.00    -0.184 NA
ATOM     14  N   UNL     1      35.678 -16.310 -23.343  0.00  0.00    -0.206 N 
ATOM     15  C   UNL     1      34.376 -18.735 -23.558  0.00  0.00    +0.051 C 
ATOM     16  C   UNL     1      35.090 -18.257 -22.301  0.00  0.00    +0.076 C 
ATOM     17  C   UNL     1      33.779 -17.525 -24.259  0.00  0.00    +0.093 C 
ATOM     18  C   UNL     1      35.351 -19.489 -24.465  0.00  0.00    +0.007 C 
ATOM     19  C   UNL     1      34.793 -16.423 -24.390  0.00  0.00    +0.241 C 
ATOM     20  H   UNL     1      36.335 -15.578 -23.384  0.00  0.00    +0.177 HD
ENDBRANCH   3  16
BRANCH   9  21
ATOM     21  C   UNL     1      32.898 -22.259 -16.541  0.00  0.00    +0.015 C 
ATOM     22  C   UNL     1      33.585 -22.920 -15.525  0.00  0.00    +0.002 C 
ATOM     23  C   UNL     1      31.503 -22.274 -16.565  0.00  0.00    +0.002 C 
ATOM     24  C   UNL     1      32.878 -23.597 -14.530  0.00  0.00    +0.037 C 
ATOM     25  C   UNL     1      30.796 -22.950 -15.572  0.00  0.00    +0.037 C 
ATOM     26  C   UNL     1      31.484 -23.612 -14.554  0.00  0.00    +0.139 C 
BRANCH  26  27
ATOM     27  O   UNL     1      30.794 -24.272 -13.584  0.00  0.00    -0.471 OA
ATOM     28  C   UNL     1      29.489 -24.743 -13.921  0.00  0.00    +0.252 C 
ENDBRANCH  26  27
ENDBRANCH   9  21
TORSDOF 3
ENDMDL
MODEL 6
REMARK VINA RESULT:     -10.9      2.165      9.594
REMARK  Name = 4823
REMARK  3 active torsions:
REMARK  status: ('A' for Active; 'I' for Inactive)
REMARK    1  A    between atoms: C_3  and  C_16
REMARK    2  A    between atoms: C_9  and  C_21
REMARK    3  A    between atoms: C_26  and  O_27
REMARK                            x       y       z     vdW  Elec       q    Type
REMARK                         _______ _______ _______ _____ _____    ______ ____
ROOT
ATOM      1  N   UNL     1      36.406 -20.658 -18.223  0.00  0.00    -0.315 N 
ATOM      2  N   UNL     1      34.385 -21.426 -17.708  0.00  0.00    -0.315 N 
ATOM      3  C   UNL     1      34.682 -19.039 -21.084  0.00  0.00    +0.016 C 
ATOM      4  C   UNL     1      35.570 -20.163 -19.190  0.00  0.00    +0.059 C 
ATOM      5  C   UNL     1      35.796 -19.351 -20.301  0.00  0.00    +0.017 C 
ATOM      6  C   UNL     1      34.314 -20.656 -18.846  0.00  0.00    +0.059 C 
ATOM      7  C   UNL     1      33.411 -19.516 -20.770  0.00  0.00    +0.003 C 
ATOM      8  C   UNL     1      33.208 -20.330 -19.649  0.00  0.00    +0.016 C 
ATOM      9  C   UNL     1      35.652 -21.405 -17.362  0.00  0.00    +0.168 C 
ATOM     10  H   UNL     1      37.377 -20.502 -18.161  0.00  0.00    +0.149 HD
ATOM     11  H   UNL     1      33.647 -21.891 -17.253  0.00  0.00    +0.149 HD
ENDROOT
BRANCH   3  16
ATOM     12  O   UNL     1      35.063 -15.531 -25.324  0.00  0.00    -0.273 OA
ATOM     13  N   UNL     1      35.580 -17.092 -22.183  0.00  0.00    -0.184 NA
ATOM     14  N   UNL     1      35.710 -16.278 -23.255  0.00  0.00    -0.206 N 
ATOM     15  C   UNL     1      34.231 -18.580 -23.617  0.00  0.00    +0.051 C 
ATOM     16  C   UNL     1      34.861 -18.168 -22.293  0.00  0.00    +0.076 C 
ATOM     17  C   UNL     1      33.809 -17.322 -24.358  0.00  0.00    +0.093 C 
ATOM     18  C   UNL     1      35.219 -19.413 -24.436  0.00  0.00    +0.007 C 
ATOM     19  C   UNL     1      34.922 -16.311 -24.382  0.00  0.00    +0.241 C 
ATOM     20  H   UNL     1      36.429 -15.605 -23.226  0.00  0.00    +0.177 HD
ENDBRANCH   3  16
BRANCH   9  21
ATOM     21  C   UNL     1      36.232 -22.072 -16.220  0.00  0.00    +0.015 C 
ATOM     22  C   UNL     1      37.587 -21.914 -15.935  0.00  0.00    +0.002 C 
ATOM     23  C   UNL     1      35.435 -22.874 -15.403  0.00  0.00    +0.002 C 
ATOM     24  C   UNL     1      38.147 -22.558 -14.831  0.00  0.00    +0.037 C 
ATOM     25  C   UNL     1      35.995 -23.518 -14.300  0.00  0.00    +0.037 C 
ATOM     26  C   UNL     1      37.351 -23.360 -14.014  0.00  0.00    +0.139 C 
BRANCH  26  27
ATOM     27  O   UNL     1      37.897 -23.988 -12.938  0.00  0.00    -0.471 OA
ATOM     28  C   UNL     1      39.145 -24.652 -13.136  0.00  0.00    +0.252 C 
ENDBRANCH  26  27
ENDBRANCH   9  21
TORSDOF 3
ENDMDL
MODEL 7
REMARK VINA RESULT:     -10.2      6.724     11.016
REMARK  Name = 4823
REMARK  3 active torsions:
REMARK  status: ('A' for Active; 'I' for Inactive)
REMARK    1  A    between atoms: C_3  and  C_16
REMARK    2  A    between atoms: C_9  and  C_21
REMARK    3  A    between atoms: C_26  and  O_27
REMARK                            x       y       z     vdW  Elec       q    Type
REMARK                         _______ _______ _______ _____ _____    ______ ____
ROOT
ATOM      1  N   UNL     1      34.398 -11.297 -22.488  0.00  0.00    -0.315 N 
ATOM      2  N   UNL     1      33.689 -11.514 -24.583  0.00  0.00    -0.315 N 
ATOM      3  C   UNL     1      34.873 -14.975 -22.632  0.00  0.00    +0.016 C 
ATOM      4  C   UNL     1      34.490 -12.635 -22.767  0.00  0.00    +0.059 C 
ATOM      5  C   UNL     1      34.914 -13.726 -22.009  0.00  0.00    +0.017 C 
ATOM      6  C   UNL     1      34.043 -12.746 -24.081  0.00  0.00    +0.059 C 
ATOM      7  C   UNL     1      34.430 -15.123 -23.945  0.00  0.00    +0.003 C 
ATOM      8  C   UNL     1      34.009 -14.013 -24.689  0.00  0.00    +0.016 C 
ATOM      9  C   UNL     1      33.915 -10.670 -23.602  0.00  0.00    +0.168 C 
ATOM     10  H   UNL     1      34.637 -10.864 -21.636  0.00  0.00    +0.149 HD
ATOM     11  H   UNL     1      33.343 -11.311 -25.482  0.00  0.00    +0.149 HD
ENDROOT
BRANCH   3  16
ATOM     12  O   UNL     1      36.861 -19.182 -19.670  0.00  0.00    -0.273 OA
ATOM     13  N   UNL     1      35.195 -16.187 -20.575  0.00  0.00    -0.184 NA
ATOM     14  N   UNL     1      35.633 -17.257 -19.873  0.00  0.00    -0.206 N 
ATOM     15  C   UNL     1      35.864 -17.393 -22.621  0.00  0.00    +0.051 C 
ATOM     16  C   UNL     1      35.317 -16.188 -21.868  0.00  0.00    +0.076 C 
ATOM     17  C   UNL     1      36.942 -18.041 -21.768  0.00  0.00    +0.093 C 
ATOM     18  C   UNL     1      34.733 -18.373 -22.941  0.00  0.00    +0.007 C 
ATOM     19  C   UNL     1      36.468 -18.238 -20.355  0.00  0.00    +0.241 C 
ATOM     20  H   UNL     1      35.330 -17.340 -18.940  0.00  0.00    +0.177 HD
ENDBRANCH   3  16
BRANCH   9  21
ATOM     21  C   UNL     1      33.698  -9.243 -23.643  0.00  0.00    +0.015 C 
ATOM     22  C   UNL     1      34.690  -8.402 -24.146  0.00  0.00    +0.002 C 
ATOM     23  C   UNL     1      32.497  -8.707 -23.178  0.00  0.00    +0.002 C 
ATOM     24  C   UNL     1      34.480  -7.023 -24.186  0.00  0.00    +0.037 C 
ATOM     25  C   UNL     1      32.288  -7.329 -23.218  0.00  0.00    +0.037 C 
ATOM     26  C   UNL     1      33.279  -6.487 -23.723  0.00  0.00    +0.139 C 
BRANCH  26  27
ATOM     27  O   UNL     1      33.075  -5.142 -23.761  0.00  0.00    -0.471 OA
ATOM     28  C   UNL     1      32.075  -4.611 -22.893  0.00  0.00    +0.252 C 
ENDBRANCH  26  27
ENDBRANCH   9  21
TORSDOF 3
ENDMDL
MODEL 8
REMARK VINA RESULT:     -10.1      5.678     12.362
REMARK  Name = 4823
REMARK  3 active torsions:
REMARK  status: ('A' for Active; 'I' for Inactive)
REMARK    1  A    between atoms: C_3  and  C_16
REMARK    2  A    between atoms: C_9  and  C_21
REMARK    3  A    between atoms: C_26  and  O_27
REMARK                            x       y       z     vdW  Elec       q    Type
REMARK                         _______ _______ _______ _____ _____    ______ ____
ROOT
ATOM      1  N   UNL     1      35.076 -15.321 -21.226  0.00  0.00    -0.315 N 
ATOM      2  N   UNL     1      34.812 -16.509 -23.085  0.00  0.00    -0.315 N 
ATOM      3  C   UNL     1      34.087 -12.436 -23.341  0.00  0.00    +0.016 C 
ATOM      4  C   UNL     1      34.694 -14.419 -22.184  0.00  0.00    +0.059 C 
ATOM      5  C   UNL     1      34.479 -13.041 -22.146  0.00  0.00    +0.017 C 
ATOM      6  C   UNL     1      34.534 -15.185 -23.336  0.00  0.00    +0.059 C 
ATOM      7  C   UNL     1      33.918 -13.172 -24.513  0.00  0.00    +0.003 C 
ATOM      8  C   UNL     1      34.139 -14.555 -24.528  0.00  0.00    +0.016 C 
ATOM      9  C   UNL     1      35.132 -16.555 -21.812  0.00  0.00    +0.168 C 
ATOM     10  H   UNL     1      35.275 -15.116 -20.283  0.00  0.00    +0.149 HD
ATOM     11  H   UNL     1      34.777 -17.260 -23.722  0.00  0.00    +0.149 HD
ENDROOT
BRANCH   3  16
ATOM     12  O   UNL     1      32.729  -7.091 -23.447  0.00  0.00    -0.273 OA
ATOM     13  N   UNL     1      33.321 -10.397 -22.312  0.00  0.00    -0.184 NA
ATOM     14  N   UNL     1      33.054  -9.072 -22.338  0.00  0.00    -0.206 N 
ATOM     15  C   UNL     1      34.230 -10.146 -24.592  0.00  0.00    +0.051 C 
ATOM     16  C   UNL     1      33.839 -10.956 -23.363  0.00  0.00    +0.076 C 
ATOM     17  C   UNL     1      33.222  -9.022 -24.765  0.00  0.00    +0.093 C 
ATOM     18  C   UNL     1      35.654  -9.609 -24.439  0.00  0.00    +0.007 C 
ATOM     19  C   UNL     1      33.001  -8.291 -23.469  0.00  0.00    +0.241 C 
ATOM     20  H   UNL     1      32.882  -8.628 -21.476  0.00  0.00    +0.177 HD
ENDBRANCH   3  16
BRANCH   9  21
ATOM     21  C   UNL     1      35.505 -17.736 -21.072  0.00  0.00    +0.015 C 
ATOM     22  C   UNL     1      34.523 -18.628 -20.643  0.00  0.00    +0.002 C 
ATOM     23  C   UNL     1      36.847 -17.984 -20.784  0.00  0.00    +0.002 C 
ATOM     24  C   UNL     1      34.883 -19.771 -19.927  0.00  0.00    +0.037 C 
ATOM     25  C   UNL     1      37.208 -19.126 -20.069  0.00  0.00    +0.037 C 
ATOM     26  C   UNL     1      36.225 -20.020 -19.641  0.00  0.00    +0.139 C 
BRANCH  26  27
ATOM     27  O   UNL     1      36.576 -21.134 -18.943  0.00  0.00    -0.471 OA
ATOM     28  C   UNL     1      36.850 -20.970 -17.551  0.00  0.00    +0.252 C 
ENDBRANCH  26  27
ENDBRANCH   9  21
TORSDOF 3
ENDMDL
MODEL 9
REMARK VINA RESULT:     -10.1      1.420      2.129
REMARK  Name = 4823
REMARK  3 active torsions:
REMARK  status: ('A' for Active; 'I' for Inactive)
REMARK    1  A    between atoms: C_3  and  C_16
REMARK    2  A    between atoms: C_9  and  C_21
REMARK    3  A    between atoms: C_26  and  O_27
REMARK                            x       y       z     vdW  Elec       q    Type
REMARK                         _______ _______ _______ _____ _____    ______ ____
ROOT
ATOM      1  N   UNL     1      35.146 -21.070 -17.601  0.00  0.00    -0.315 N 
ATOM      2  N   UNL     1      37.253 -20.639 -18.160  0.00  0.00    -0.315 N 
ATOM      3  C   UNL     1      36.629 -22.612 -14.568  0.00  0.00    +0.016 C 
ATOM      4  C   UNL     1      35.905 -21.574 -16.578  0.00  0.00    +0.059 C 
ATOM      5  C   UNL     1      35.569 -22.232 -15.394  0.00  0.00    +0.017 C 
ATOM      6  C   UNL     1      37.217 -21.292 -16.949  0.00  0.00    +0.059 C 
ATOM      7  C   UNL     1      37.954 -22.346 -14.909  0.00  0.00    +0.003 C 
ATOM      8  C   UNL     1      38.268 -21.684 -16.102  0.00  0.00    +0.016 C 
ATOM      9  C   UNL     1      35.995 -20.522 -18.521  0.00  0.00    +0.168 C 
ATOM     10  H   UNL     1      34.163 -21.098 -17.663  0.00  0.00    +0.149 HD
ATOM     11  H   UNL     1      38.049 -20.327 -18.648  0.00  0.00    +0.149 HD
ENDROOT
BRANCH   3  16
ATOM     12  O   UNL     1      35.411 -24.815  -9.660  0.00  0.00    -0.273 OA
ATOM     13  N   UNL     1      35.091 -23.472 -12.925  0.00  0.00    -0.184 NA
ATOM     14  N   UNL     1      34.814 -24.071 -11.745  0.00  0.00    -0.206 N 
ATOM     15  C   UNL     1      37.477 -23.876 -12.444  0.00  0.00    +0.051 C 
ATOM     16  C   UNL     1      36.331 -23.322 -13.280  0.00  0.00    +0.076 C 
ATOM     17  C   UNL     1      37.101 -23.756 -10.976  0.00  0.00    +0.093 C 
ATOM     18  C   UNL     1      37.763 -25.327 -12.836  0.00  0.00    +0.007 C 
ATOM     19  C   UNL     1      35.716 -24.286 -10.729  0.00  0.00    +0.241 C 
ATOM     20  H   UNL     1      33.890 -24.380 -11.601  0.00  0.00    +0.177 HD
ENDBRANCH   3  16
BRANCH   9  21
ATOM     21  C   UNL     1      35.514 -19.899 -19.731  0.00  0.00    +0.015 C 
ATOM     22  C   UNL     1      34.154 -19.930 -20.037  0.00  0.00    +0.002 C 
ATOM     23  C   UNL     1      36.410 -19.268 -20.594  0.00  0.00    +0.002 C 
ATOM     24  C   UNL     1      33.688 -19.328 -21.206  0.00  0.00    +0.037 C 
ATOM     25  C   UNL     1      35.944 -18.666 -21.763  0.00  0.00    +0.037 C 
ATOM     26  C   UNL     1      34.583 -18.696 -22.068  0.00  0.00    +0.139 C 
BRANCH  26  27
ATOM     27  O   UNL     1      34.129 -18.108 -23.209  0.00  0.00    -0.471 OA
ATOM     28  C   UNL     1      34.776 -16.905 -23.623  0.00  0.00    +0.252 C 
ENDBRANCH  26  27
ENDBRANCH   9  21
TORSDOF 3
ENDMDL
