MODEL 1
REMARK VINA RESULT:     -12.2      0.000      0.000
REMARK  Name = 54713659
REMARK  4 active torsions:
REMARK  status: ('A' for Active; 'I' for Inactive)
REMARK    1  A    between atoms: C_14  and  O_30
REMARK    2  A    between atoms: C_15  and  C_19
REMARK    3  A    between atoms: N_18  and  C_21
REMARK    4  A    between atoms: C_21  and  C_24
REMARK                            x       y       z     vdW  Elec       q    Type
REMARK                         _______ _______ _______ _____ _____    ______ ____
ROOT
ATOM      1  O   UNL     1      38.900 -24.017 -13.743  0.00  0.00    -0.334 OA
ATOM      2  O   UNL     1      34.947 -24.221 -11.417  0.00  0.00    -0.268 OA
ATOM      3  O   UNL     1      31.457 -23.154 -15.010  0.00  0.00    -0.283 OA
ATOM      4  N   UNL     1      36.852 -24.216 -12.707  0.00  0.00    -0.251 N 
ATOM      5  N   UNL     1      35.501 -22.950 -14.763  0.00  0.00    -0.275 N 
ATOM      6  C   UNL     1      37.489 -24.086 -13.991  0.00  0.00    +0.215 C 
ATOM      7  C   UNL     1      37.834 -24.515 -11.694  0.00  0.00    +0.107 C 
ATOM      8  C   UNL     1      36.964 -22.849 -14.689  0.00  0.00    +0.147 C 
ATOM      9  C   UNL     1      39.081 -23.911 -12.316  0.00  0.00    +0.164 C 
ATOM     10  C   UNL     1      35.502 -24.033 -12.498  0.00  0.00    +0.268 C 
ATOM     11  C   UNL     1      34.757 -23.519 -13.712  0.00  0.00    +0.143 C 
ATOM     12  C   UNL     1      37.960 -26.019 -11.474  0.00  0.00    +0.024 C 
ATOM     13  C   UNL     1      34.820 -22.430 -15.853  0.00  0.00    +0.074 C 
ATOM     14  C   UNL     1      33.410 -23.612 -13.737  0.00  0.00    +0.191 C 
ATOM     15  C   UNL     1      33.491 -22.453 -16.008  0.00  0.00    +0.110 C 
ATOM     16  C   UNL     1      32.679 -23.079 -14.931  0.00  0.00    +0.236 C 
ENDROOT
BRANCH  15  19
ATOM     17  O   UNL     1      31.698 -21.798 -17.377  0.00  0.00    -0.270 OA
ATOM     18  N   UNL     1      33.877 -21.428 -18.116  0.00  0.00    -0.297 N 
ATOM     19  C   UNL     1      32.918 -21.867 -17.220  0.00  0.00    +0.251 C 
ATOM     20  H   UNL     1      34.826 -21.539 -17.875  0.00  0.00    +0.150 HD
BRANCH  18  21
ATOM     21  C   UNL     1      33.562 -20.815 -19.386  0.00  0.00    +0.119 C 
BRANCH  21  24
ATOM     22  F   UNL     1      33.306 -19.042 -21.576  0.00  0.00    -0.204 F 
ATOM     23  F   UNL     1      37.863 -17.781 -21.386  0.00  0.00    -0.204 F 
ATOM     24  C   UNL     1      34.707 -20.005 -19.921  0.00  0.00    +0.025 C 
ATOM     25  C   UNL     1      34.513 -19.149 -21.005  0.00  0.00    +0.140 C 
ATOM     26  C   UNL     1      35.969 -20.110 -19.332  0.00  0.00    +0.002 C 
ATOM     27  C   UNL     1      35.578 -18.398 -21.500  0.00  0.00    +0.059 C 
ATOM     28  C   UNL     1      37.033 -19.359 -19.828  0.00  0.00    +0.030 C 
ATOM     29  C   UNL     1      36.839 -18.502 -20.911  0.00  0.00    +0.142 C 
ENDBRANCH  21  24
ENDBRANCH  18  21
ENDBRANCH  15  19
BRANCH  14  30
ATOM     30  O   UNL     1      32.658 -24.178 -12.733  0.00  0.00    -0.502 OA
ATOM     31  H   UNL     1      33.075 -24.485 -11.952  0.00  0.00    +0.292 HD
ENDBRANCH  14  30
TORSDOF 4
ENDMDL
MODEL 2
REMARK VINA RESULT:     -11.8      2.514      3.511
REMARK  Name = 54713659
REMARK  4 active torsions:
REMARK  status: ('A' for Active; 'I' for Inactive)
REMARK    1  A    between atoms: C_14  and  O_30
REMARK    2  A    between atoms: C_15  and  C_19
REMARK    3  A    between atoms: N_18  and  C_21
REMARK    4  A    between atoms: C_21  and  C_24
REMARK                            x       y       z     vdW  Elec       q    Type
REMARK                         _______ _______ _______ _____ _____    ______ ____
ROOT
ATOM      1  O   UNL     1      38.316 -22.723 -13.394  0.00  0.00    -0.334 OA
ATOM      2  O   UNL     1      33.801 -22.762 -14.219  0.00  0.00    -0.268 OA
ATOM      3  O   UNL     1      33.544 -21.590 -19.199  0.00  0.00    -0.283 OA
ATOM      4  N   UNL     1      36.084 -22.838 -13.951  0.00  0.00    -0.251 N 
ATOM      5  N   UNL     1      36.448 -21.536 -16.365  0.00  0.00    -0.275 N 
ATOM      6  C   UNL     1      37.410 -22.740 -14.504  0.00  0.00    +0.215 C 
ATOM      7  C   UNL     1      36.155 -23.166 -12.549  0.00  0.00    +0.107 C 
ATOM      8  C   UNL     1      37.509 -21.490 -15.352  0.00  0.00    +0.147 C 
ATOM      9  C   UNL     1      37.524 -22.613 -12.194  0.00  0.00    +0.164 C 
ATOM     10  C   UNL     1      34.932 -22.603 -14.671  0.00  0.00    +0.268 C 
ATOM     11  C   UNL     1      35.179 -22.070 -16.067  0.00  0.00    +0.143 C 
ATOM     12  C   UNL     1      36.057 -24.672 -12.329  0.00  0.00    +0.024 C 
ATOM     13  C   UNL     1      36.662 -20.998 -17.626  0.00  0.00    +0.074 C 
ATOM     14  C   UNL     1      34.174 -22.112 -16.968  0.00  0.00    +0.191 C 
ATOM     15  C   UNL     1      35.757 -20.973 -18.612  0.00  0.00    +0.110 C 
ATOM     16  C   UNL     1      34.419 -21.561 -18.338  0.00  0.00    +0.236 C 
ENDROOT
BRANCH  15  19
ATOM     17  O   UNL     1      37.250 -20.567 -20.379  0.00  0.00    -0.270 OA
ATOM     18  N   UNL     1      35.128 -19.605 -20.449  0.00  0.00    -0.297 N 
ATOM     19  C   UNL     1      36.135 -20.375 -19.892  0.00  0.00    +0.251 C 
ATOM     20  H   UNL     1      34.276 -19.527 -19.961  0.00  0.00    +0.150 HD
BRANCH  18  21
ATOM     21  C   UNL     1      35.260 -18.909 -21.709  0.00  0.00    +0.119 C 
BRANCH  21  24
ATOM     22  F   UNL     1      35.069 -17.120 -23.893  0.00  0.00    -0.204 F 
ATOM     23  F   UNL     1      34.942 -13.323 -21.072  0.00  0.00    -0.204 F 
ATOM     24  C   UNL     1      35.175 -17.420 -21.541  0.00  0.00    +0.025 C 
ATOM     25  C   UNL     1      35.083 -16.593 -22.661  0.00  0.00    +0.140 C 
ATOM     26  C   UNL     1      35.188 -16.861 -20.261  0.00  0.00    +0.002 C 
ATOM     27  C   UNL     1      35.004 -15.210 -22.503  0.00  0.00    +0.059 C 
ATOM     28  C   UNL     1      35.110 -15.478 -20.104  0.00  0.00    +0.030 C 
ATOM     29  C   UNL     1      35.017 -14.652 -21.224  0.00  0.00    +0.142 C 
ENDBRANCH  21  24
ENDBRANCH  18  21
ENDBRANCH  15  19
BRANCH  14  30
ATOM     30  O   UNL     1      32.931 -22.644 -16.710  0.00  0.00    -0.502 OA
ATOM     31  H   UNL     1      32.200 -22.077 -16.561  0.00  0.00    +0.292 HD
ENDBRANCH  14  30
TORSDOF 4
ENDMDL
MODEL 3
REMARK VINA RESULT:     -11.5      8.983     13.402
REMARK  Name = 54713659
REMARK  4 active torsions:
REMARK  status: ('A' for Active; 'I' for Inactive)
REMARK    1  A    between atoms: C_14  and  O_30
REMARK    2  A    between atoms: C_15  and  C_19
REMARK    3  A    between atoms: N_18  and  C_21
REMARK    4  A    between atoms: C_21  and  C_24
REMARK                            x       y       z     vdW  Elec       q    Type
REMARK                         _______ _______ _______ _____ _____    ______ ____
ROOT
ATOM      1  O   UNL     1      33.108  -6.286 -21.919  0.00  0.00    -0.334 OA
ATOM      2  O   UNL     1      31.164  -9.070 -18.830  0.00  0.00    -0.268 OA
ATOM      3  O   UNL     1      32.721 -13.710 -20.342  0.00  0.00    -0.283 OA
ATOM      4  N   UNL     1      32.287  -7.763 -20.354  0.00  0.00    -0.251 N 
ATOM      5  N   UNL     1      32.797  -9.978 -21.932  0.00  0.00    -0.275 N 
ATOM      6  C   UNL     1      33.197  -7.642 -21.463  0.00  0.00    +0.215 C 
ATOM      7  C   UNL     1      31.847  -6.458 -19.928  0.00  0.00    +0.107 C 
ATOM      8  C   UNL     1      32.818  -8.640 -22.536  0.00  0.00    +0.147 C 
ATOM      9  C   UNL     1      32.013  -5.666 -21.214  0.00  0.00    +0.164 C 
ATOM     10  C   UNL     1      31.879  -8.969 -19.824  0.00  0.00    +0.268 C 
ATOM     11  C   UNL     1      32.344 -10.175 -20.614  0.00  0.00    +0.143 C 
ATOM     12  C   UNL     1      32.718  -5.924 -18.796  0.00  0.00    +0.024 C 
ATOM     13  C   UNL     1      33.173 -11.085 -22.678  0.00  0.00    +0.074 C 
ATOM     14  C   UNL     1      32.293 -11.393 -20.033  0.00  0.00    +0.191 C 
ATOM     15  C   UNL     1      33.172 -12.346 -22.229  0.00  0.00    +0.110 C 
ATOM     16  C   UNL     1      32.732 -12.583 -20.829  0.00  0.00    +0.236 C 
ENDROOT
BRANCH  15  19
ATOM     17  O   UNL     1      33.039 -13.594 -24.215  0.00  0.00    -0.270 OA
ATOM     18  N   UNL     1      34.669 -14.145 -22.643  0.00  0.00    -0.297 N 
ATOM     19  C   UNL     1      33.603 -13.411 -23.136  0.00  0.00    +0.251 C 
ATOM     20  H   UNL     1      35.035 -13.901 -21.762  0.00  0.00    +0.150 HD
BRANCH  18  21
ATOM     21  C   UNL     1      35.273 -15.250 -23.352  0.00  0.00    +0.119 C 
BRANCH  21  24
ATOM     22  F   UNL     1      34.524 -17.758 -24.426  0.00  0.00    -0.204 F 
ATOM     23  F   UNL     1      35.216 -19.988 -20.309  0.00  0.00    -0.204 F 
ATOM     24  C   UNL     1      35.257 -16.514 -22.542  0.00  0.00    +0.025 C 
ATOM     25  C   UNL     1      34.876 -17.719 -23.133  0.00  0.00    +0.140 C 
ATOM     26  C   UNL     1      35.624 -16.483 -21.196  0.00  0.00    +0.002 C 
ATOM     27  C   UNL     1      34.863 -18.892 -22.380  0.00  0.00    +0.059 C 
ATOM     28  C   UNL     1      35.609 -17.656 -20.442  0.00  0.00    +0.030 C 
ATOM     29  C   UNL     1      35.229 -18.861 -21.033  0.00  0.00    +0.142 C 
ENDBRANCH  21  24
ENDBRANCH  18  21
ENDBRANCH  15  19
BRANCH  14  30
ATOM     30  O   UNL     1      31.872 -11.613 -18.742  0.00  0.00    -0.502 OA
ATOM     31  H   UNL     1      31.391 -10.950 -18.286  0.00  0.00    +0.292 HD
ENDBRANCH  14  30
TORSDOF 4
ENDMDL
MODEL 4
REMARK VINA RESULT:     -11.4      7.651     12.612
REMARK  Name = 54713659
REMARK  4 active torsions:
REMARK  status: ('A' for Active; 'I' for Inactive)
REMARK    1  A    between atoms: C_14  and  O_30
REMARK    2  A    between atoms: C_15  and  C_19
REMARK    3  A    between atoms: N_18  and  C_21
REMARK    4  A    between atoms: C_21  and  C_24
REMARK                            x       y       z     vdW  Elec       q    Type
REMARK                         _______ _______ _______ _____ _____    ______ ____
ROOT
ATOM      1  O   UNL     1      33.641  -8.486 -23.849  0.00  0.00    -0.334 OA
ATOM      2  O   UNL     1      31.323 -10.486 -20.428  0.00  0.00    -0.268 OA
ATOM      3  O   UNL     1      33.764 -14.952 -19.858  0.00  0.00    -0.283 OA
ATOM      4  N   UNL     1      32.632  -9.528 -22.059  0.00  0.00    -0.251 N 
ATOM      5  N   UNL     1      33.793 -11.977 -22.617  0.00  0.00    -0.275 N 
ATOM      6  C   UNL     1      33.774  -9.582 -22.934  0.00  0.00    +0.215 C 
ATOM      7  C   UNL     1      31.943  -8.272 -22.220  0.00  0.00    +0.107 C 
ATOM      8  C   UNL     1      33.806 -10.922 -23.637  0.00  0.00    +0.147 C 
ATOM      9  C   UNL     1      32.335  -7.910 -23.642  0.00  0.00    +0.164 C 
ATOM     10  C   UNL     1      32.251 -10.562 -21.230  0.00  0.00    +0.268 C 
ATOM     11  C   UNL     1      33.045 -11.835 -21.432  0.00  0.00    +0.143 C 
ATOM     12  C   UNL     1      32.423  -7.245 -21.200  0.00  0.00    +0.024 C 
ATOM     13  C   UNL     1      34.479 -13.163 -22.831  0.00  0.00    +0.074 C 
ATOM     14  C   UNL     1      32.995 -12.792 -20.481  0.00  0.00    +0.191 C 
ATOM     15  C   UNL     1      34.515 -14.192 -21.975  0.00  0.00    +0.110 C 
ATOM     16  C   UNL     1      33.763 -14.059 -20.700  0.00  0.00    +0.236 C 
ENDROOT
BRANCH  15  19
ATOM     17  O   UNL     1      35.751 -15.512 -23.475  0.00  0.00    -0.270 OA
ATOM     18  N   UNL     1      35.424 -16.281 -21.299  0.00  0.00    -0.297 N 
ATOM     19  C   UNL     1      35.290 -15.378 -22.341  0.00  0.00    +0.251 C 
ATOM     20  H   UNL     1      35.007 -16.060 -20.434  0.00  0.00    +0.150 HD
BRANCH  18  21
ATOM     21  C   UNL     1      36.143 -17.530 -21.413  0.00  0.00    +0.119 C 
BRANCH  21  24
ATOM     22  F   UNL     1      37.599 -19.372 -19.834  0.00  0.00    -0.204 F 
ATOM     23  F   UNL     1      33.683 -21.652 -18.469  0.00  0.00    -0.204 F 
ATOM     24  C   UNL     1      35.488 -18.629 -20.627  0.00  0.00    +0.025 C 
ATOM     25  C   UNL     1      36.265 -19.505 -19.869  0.00  0.00    +0.140 C 
ATOM     26  C   UNL     1      34.100 -18.775 -20.657  0.00  0.00    +0.002 C 
ATOM     27  C   UNL     1      35.656 -20.525 -19.139  0.00  0.00    +0.059 C 
ATOM     28  C   UNL     1      33.492 -19.796 -19.928  0.00  0.00    +0.030 C 
ATOM     29  C   UNL     1      34.269 -20.671 -19.169  0.00  0.00    +0.142 C 
ENDBRANCH  21  24
ENDBRANCH  18  21
ENDBRANCH  15  19
BRANCH  14  30
ATOM     30  O   UNL     1      32.287 -12.673 -19.307  0.00  0.00    -0.502 OA
ATOM     31  H   UNL     1      32.558 -13.146 -18.545  0.00  0.00    +0.292 HD
ENDBRANCH  14  30
TORSDOF 4
ENDMDL
MODEL 5
REMARK VINA RESULT:     -11.4      2.768      4.797
REMARK  Name = 54713659
REMARK  4 active torsions:
REMARK  status: ('A' for Active; 'I' for Inactive)
REMARK    1  A    between atoms: C_14  and  O_30
REMARK    2  A    between atoms: C_15  and  C_19
REMARK    3  A    between atoms: N_18  and  C_21
REMARK    4  A    between atoms: C_21  and  C_24
REMARK                            x       y       z     vdW  Elec       q    Type
REMARK                         _______ _______ _______ _____ _____    ______ ____
ROOT
ATOM      1  O   UNL     1      31.342 -23.060 -14.536  0.00  0.00    -0.334 OA
ATOM      2  O   UNL     1      35.861 -23.602 -15.135  0.00  0.00    -0.268 OA
ATOM      3  O   UNL     1      36.900 -20.355 -18.957  0.00  0.00    -0.283 OA
ATOM      4  N   UNL     1      33.623 -23.157 -14.839  0.00  0.00    -0.251 N 
ATOM      5  N   UNL     1      33.524 -21.850 -17.276  0.00  0.00    -0.275 N 
ATOM      6  C   UNL     1      32.442 -22.413 -15.190  0.00  0.00    +0.215 C 
ATOM      7  C   UNL     1      33.332 -24.073 -13.764  0.00  0.00    +0.107 C 
ATOM      8  C   UNL     1      32.289 -22.393 -16.696  0.00  0.00    +0.147 C 
ATOM      9  C   UNL     1      31.841 -24.286 -13.966  0.00  0.00    +0.164 C 
ATOM     10  C   UNL     1      34.834 -23.024 -15.485  0.00  0.00    +0.268 C 
ATOM     11  C   UNL     1      34.781 -22.139 -16.712  0.00  0.00    +0.143 C 
ATOM     12  C   UNL     1      33.656 -23.454 -12.409  0.00  0.00    +0.024 C 
ATOM     13  C   UNL     1      33.473 -21.084 -18.431  0.00  0.00    +0.074 C 
ATOM     14  C   UNL     1      35.938 -21.672 -17.229  0.00  0.00    +0.191 C 
ATOM     15  C   UNL     1      34.539 -20.560 -19.048  0.00  0.00    +0.110 C 
ATOM     16  C   UNL     1      35.878 -20.818 -18.458  0.00  0.00    +0.236 C 
ENDROOT
BRANCH  15  19
ATOM     17  O   UNL     1      33.202 -19.650 -20.753  0.00  0.00    -0.270 OA
ATOM     18  N   UNL     1      35.489 -19.198 -20.748  0.00  0.00    -0.297 N 
ATOM     19  C   UNL     1      34.325 -19.767 -20.259  0.00  0.00    +0.251 C 
ATOM     20  H   UNL     1      36.329 -19.365 -20.263  0.00  0.00    +0.150 HD
BRANCH  18  21
ATOM     21  C   UNL     1      35.537 -18.373 -21.935  0.00  0.00    +0.119 C 
BRANCH  21  24
ATOM     22  F   UNL     1      35.261 -16.389 -23.933  0.00  0.00    -0.204 F 
ATOM     23  F   UNL     1      34.694 -12.933 -20.750  0.00  0.00    -0.204 F 
ATOM     24  C   UNL     1      35.312 -16.923 -21.620  0.00  0.00    +0.025 C 
ATOM     25  C   UNL     1      35.185 -15.995 -22.654  0.00  0.00    +0.140 C 
ATOM     26  C   UNL     1      35.231 -16.502 -20.292  0.00  0.00    +0.002 C 
ATOM     27  C   UNL     1      34.976 -14.648 -22.361  0.00  0.00    +0.059 C 
ATOM     28  C   UNL     1      35.023 -15.155 -19.999  0.00  0.00    +0.030 C 
ATOM     29  C   UNL     1      34.895 -14.227 -21.032  0.00  0.00    +0.142 C 
ENDBRANCH  21  24
ENDBRANCH  18  21
ENDBRANCH  15  19
BRANCH  14  30
ATOM     30  O   UNL     1      37.179 -21.923 -16.690  0.00  0.00    -0.502 OA
ATOM     31  H   UNL     1      37.892 -22.166 -17.246  0.00  0.00    +0.292 HD
ENDBRANCH  14  30
TORSDOF 4
ENDMDL
MODEL 6
REMARK VINA RESULT:     -11.2      6.634     11.647
REMARK  Name = 54713659
REMARK  4 active torsions:
REMARK  status: ('A' for Active; 'I' for Inactive)
REMARK    1  A    between atoms: C_14  and  O_30
REMARK    2  A    between atoms: C_15  and  C_19
REMARK    3  A    between atoms: N_18  and  C_21
REMARK    4  A    between atoms: C_21  and  C_24
REMARK                            x       y       z     vdW  Elec       q    Type
REMARK                         _______ _______ _______ _____ _____    ______ ____
ROOT
ATOM      1  O   UNL     1      32.052 -11.780 -19.058  0.00  0.00    -0.334 OA
ATOM      2  O   UNL     1      33.437 -11.130 -23.386  0.00  0.00    -0.268 OA
ATOM      3  O   UNL     1      35.177 -15.757 -24.730  0.00  0.00    -0.283 OA
ATOM      4  N   UNL     1      32.662 -11.601 -21.271  0.00  0.00    -0.251 N 
ATOM      5  N   UNL     1      34.058 -13.990 -21.253  0.00  0.00    -0.275 N 
ATOM      6  C   UNL     1      32.426 -12.545 -20.211  0.00  0.00    +0.215 C 
ATOM      7  C   UNL     1      32.174 -10.298 -20.894  0.00  0.00    +0.107 C 
ATOM      8  C   UNL     1      33.677 -13.366 -19.980  0.00  0.00    +0.147 C 
ATOM      9  C   UNL     1      32.256 -10.389 -19.380  0.00  0.00    +0.164 C 
ATOM     10  C   UNL     1      33.304 -11.916 -22.450  0.00  0.00    +0.268 C 
ATOM     11  C   UNL     1      33.892 -13.312 -22.475  0.00  0.00    +0.143 C 
ATOM     12  C   UNL     1      30.749 -10.078 -21.391  0.00  0.00    +0.024 C 
ATOM     13  C   UNL     1      34.645 -15.247 -21.265  0.00  0.00    +0.074 C 
ATOM     14  C   UNL     1      34.248 -13.847 -23.662  0.00  0.00    +0.191 C 
ATOM     15  C   UNL     1      35.045 -15.894 -22.366  0.00  0.00    +0.110 C 
ATOM     16  C   UNL     1      34.852 -15.218 -23.675  0.00  0.00    +0.236 C 
ENDROOT
BRANCH  15  19
ATOM     17  O   UNL     1      35.872 -17.929 -23.200  0.00  0.00    -0.270 OA
ATOM     18  N   UNL     1      35.904 -17.555 -20.899  0.00  0.00    -0.297 N 
ATOM     19  C   UNL     1      35.644 -17.221 -22.218  0.00  0.00    +0.251 C 
ATOM     20  H   UNL     1      35.676 -16.901 -20.199  0.00  0.00    +0.150 HD
BRANCH  18  21
ATOM     21  C   UNL     1      36.491 -18.812 -20.495  0.00  0.00    +0.119 C 
BRANCH  21  24
ATOM     22  F   UNL     1      37.267 -20.798 -18.635  0.00  0.00    -0.204 F 
ATOM     23  F   UNL     1      32.792 -22.097 -17.806  0.00  0.00    -0.204 F 
ATOM     24  C   UNL     1      35.506 -19.688 -19.778  0.00  0.00    +0.025 C 
ATOM     25  C   UNL     1      35.955 -20.650 -18.872  0.00  0.00    +0.140 C 
ATOM     26  C   UNL     1      34.139 -19.541 -20.017  0.00  0.00    +0.002 C 
ATOM     27  C   UNL     1      35.040 -21.463 -18.206  0.00  0.00    +0.059 C 
ATOM     28  C   UNL     1      33.224 -20.356 -19.352  0.00  0.00    +0.030 C 
ATOM     29  C   UNL     1      33.672 -21.316 -18.446  0.00  0.00    +0.142 C 
ENDBRANCH  21  24
ENDBRANCH  18  21
ENDBRANCH  15  19
BRANCH  14  30
ATOM     30  O   UNL     1      34.082 -13.215 -24.873  0.00  0.00    -0.502 OA
ATOM     31  H   UNL     1      34.197 -13.691 -25.671  0.00  0.00    +0.292 HD
ENDBRANCH  14  30
TORSDOF 4
ENDMDL
MODEL 7
REMARK VINA RESULT:     -11.0      2.750      4.354
REMARK  Name = 54713659
REMARK  4 active torsions:
REMARK  status: ('A' for Active; 'I' for Inactive)
REMARK    1  A    between atoms: C_14  and  O_30
REMARK    2  A    between atoms: C_15  and  C_19
REMARK    3  A    between atoms: N_18  and  C_21
REMARK    4  A    between atoms: C_21  and  C_24
REMARK                            x       y       z     vdW  Elec       q    Type
REMARK                         _______ _______ _______ _____ _____    ______ ____
ROOT
ATOM      1  O   UNL     1      38.333 -23.052 -14.104  0.00  0.00    -0.334 OA
ATOM      2  O   UNL     1      33.958 -23.057 -15.495  0.00  0.00    -0.268 OA
ATOM      3  O   UNL     1      34.180 -20.545 -19.954  0.00  0.00    -0.283 OA
ATOM      4  N   UNL     1      36.195 -23.104 -14.960  0.00  0.00    -0.251 N 
ATOM      5  N   UNL     1      36.728 -21.162 -16.857  0.00  0.00    -0.275 N 
ATOM      6  C   UNL     1      37.563 -22.797 -15.286  0.00  0.00    +0.215 C 
ATOM      7  C   UNL     1      36.131 -23.810 -13.704  0.00  0.00    +0.107 C 
ATOM      8  C   UNL     1      37.660 -21.355 -15.739  0.00  0.00    +0.147 C 
ATOM      9  C   UNL     1      37.403 -23.319 -13.035  0.00  0.00    +0.164 C 
ATOM     10  C   UNL     1      35.118 -22.728 -15.734  0.00  0.00    +0.268 C 
ATOM     11  C   UNL     1      35.480 -21.814 -16.886  0.00  0.00    +0.143 C 
ATOM     12  C   UNL     1      36.128 -25.320 -13.920  0.00  0.00    +0.024 C 
ATOM     13  C   UNL     1      37.042 -20.283 -17.883  0.00  0.00    +0.074 C 
ATOM     14  C   UNL     1      34.591 -21.645 -17.888  0.00  0.00    +0.191 C 
ATOM     15  C   UNL     1      36.256 -20.021 -18.934  0.00  0.00    +0.110 C 
ATOM     16  C   UNL     1      34.946 -20.720 -19.011  0.00  0.00    +0.236 C 
ENDROOT
BRANCH  15  19
ATOM     17  O   UNL     1      37.791 -19.253 -20.538  0.00  0.00    -0.270 OA
ATOM     18  N   UNL     1      35.871 -17.998 -20.120  0.00  0.00    -0.297 N 
ATOM     19  C   UNL     1      36.729 -19.071 -19.941  0.00  0.00    +0.251 C 
ATOM     20  H   UNL     1      35.048 -17.964 -19.580  0.00  0.00    +0.150 HD
BRANCH  18  21
ATOM     21  C   UNL     1      36.119 -16.925 -21.056  0.00  0.00    +0.119 C 
BRANCH  21  24
ATOM     22  F   UNL     1      35.507 -14.758 -22.769  0.00  0.00    -0.204 F 
ATOM     23  F   UNL     1      33.103 -17.511 -25.775  0.00  0.00    -0.204 F 
ATOM     24  C   UNL     1      35.315 -17.080 -22.315  0.00  0.00    +0.025 C 
ATOM     25  C   UNL     1      35.048 -15.969 -23.115  0.00  0.00    +0.140 C 
ATOM     26  C   UNL     1      34.834 -18.337 -22.684  0.00  0.00    +0.002 C 
ATOM     27  C   UNL     1      34.302 -16.114 -24.284  0.00  0.00    +0.059 C 
ATOM     28  C   UNL     1      34.086 -18.481 -23.852  0.00  0.00    +0.030 C 
ATOM     29  C   UNL     1      33.820 -17.371 -24.653  0.00  0.00    +0.142 C 
ENDBRANCH  21  24
ENDBRANCH  18  21
ENDBRANCH  15  19
BRANCH  14  30
ATOM     30  O   UNL     1      33.372 -22.282 -17.951  0.00  0.00    -0.502 OA
ATOM     31  H   UNL     1      32.998 -22.656 -17.178  0.00  0.00    +0.292 HD
ENDBRANCH  14  30
TORSDOF 4
ENDMDL
MODEL 8
REMARK VINA RESULT:     -11.0      3.846      8.289
REMARK  Name = 54713659
REMARK  4 active torsions:
REMARK  status: ('A' for Active; 'I' for Inactive)
REMARK    1  A    between atoms: C_14  and  O_30
REMARK    2  A    between atoms: C_15  and  C_19
REMARK    3  A    between atoms: N_18  and  C_21
REMARK    4  A    between atoms: C_21  and  C_24
REMARK                            x       y       z     vdW  Elec       q    Type
REMARK                         _______ _______ _______ _____ _____    ______ ____
ROOT
ATOM      1  O   UNL     1      38.070 -18.197 -20.626  0.00  0.00    -0.334 OA
ATOM      2  O   UNL     1      33.667 -19.241 -21.393  0.00  0.00    -0.268 OA
ATOM      3  O   UNL     1      32.385 -21.909 -17.213  0.00  0.00    -0.283 OA
ATOM      4  N   UNL     1      35.827 -18.670 -20.847  0.00  0.00    -0.251 N 
ATOM      5  N   UNL     1      35.854 -20.559 -18.826  0.00  0.00    -0.275 N 
ATOM      6  C   UNL     1      36.925 -18.687 -19.916  0.00  0.00    +0.215 C 
ATOM      7  C   UNL     1      36.187 -17.920 -22.025  0.00  0.00    +0.107 C 
ATOM      8  C   UNL     1      37.124 -20.097 -19.400  0.00  0.00    +0.147 C 
ATOM      9  C   UNL     1      37.698 -18.077 -22.013  0.00  0.00    +0.164 C 
ATOM     10  C   UNL     1      34.630 -19.321 -20.635  0.00  0.00    +0.268 C 
ATOM     11  C   UNL     1      34.621 -20.201 -19.403  0.00  0.00    +0.143 C 
ATOM     12  C   UNL     1      35.749 -16.464 -21.908  0.00  0.00    +0.024 C 
ATOM     13  C   UNL     1      35.853 -21.408 -17.729  0.00  0.00    +0.074 C 
ATOM     14  C   UNL     1      33.435 -20.622 -18.912  0.00  0.00    +0.191 C 
ATOM     15  C   UNL     1      34.755 -21.900 -17.143  0.00  0.00    +0.110 C 
ATOM     16  C   UNL     1      33.436 -21.512 -17.708  0.00  0.00    +0.236 C 
ENDROOT
BRANCH  15  19
ATOM     17  O   UNL     1      34.529 -23.951 -16.021  0.00  0.00    -0.270 OA
ATOM     18  N   UNL     1      35.524 -22.160 -14.910  0.00  0.00    -0.297 N 
ATOM     19  C   UNL     1      34.915 -22.782 -15.987  0.00  0.00    +0.251 C 
ATOM     20  H   UNL     1      35.789 -21.216 -15.005  0.00  0.00    +0.150 HD
BRANCH  18  21
ATOM     21  C   UNL     1      35.791 -22.821 -13.652  0.00  0.00    +0.119 C 
BRANCH  21  24
ATOM     22  F   UNL     1      36.482 -24.835 -11.789  0.00  0.00    -0.204 F 
ATOM     23  F   UNL     1      40.795 -25.403 -13.653  0.00  0.00    -0.204 F 
ATOM     24  C   UNL     1      37.125 -23.510 -13.651  0.00  0.00    +0.025 C 
ATOM     25  C   UNL     1      37.402 -24.495 -12.703  0.00  0.00    +0.140 C 
ATOM     26  C   UNL     1      38.089 -23.164 -14.600  0.00  0.00    +0.002 C 
ATOM     27  C   UNL     1      38.641 -25.135 -12.704  0.00  0.00    +0.059 C 
ATOM     28  C   UNL     1      39.328 -23.803 -14.599  0.00  0.00    +0.030 C 
ATOM     29  C   UNL     1      39.605 -24.789 -13.652  0.00  0.00    +0.142 C 
ENDBRANCH  21  24
ENDBRANCH  18  21
ENDBRANCH  15  19
BRANCH  14  30
ATOM     30  O   UNL     1      32.215 -20.275 -19.445  0.00  0.00    -0.502 OA
ATOM     31  H   UNL     1      32.070 -20.339 -20.368  0.00  0.00    +0.292 HD
ENDBRANCH  14  30
TORSDOF 4
ENDMDL
MODEL 9
REMARK VINA RESULT:     -10.9      3.231      4.902
REMARK  Name = 54713659
REMARK  4 active torsions:
REMARK  status: ('A' for Active; 'I' for Inactive)
REMARK    1  A    between atoms: C_14  and  O_30
REMARK    2  A    between atoms: C_15  and  C_19
REMARK    3  A    between atoms: N_18  and  C_21
REMARK    4  A    between atoms: C_21  and  C_24
REMARK                            x       y       z     vdW  Elec       q    Type
REMARK                         _______ _______ _______ _____ _____    ______ ____
ROOT
ATOM      1  O   UNL     1      38.148 -22.670 -14.488  0.00  0.00    -0.334 OA
ATOM      2  O   UNL     1      33.792 -22.619 -15.936  0.00  0.00    -0.268 OA
ATOM      3  O   UNL     1      34.124 -20.232 -20.456  0.00  0.00    -0.283 OA
ATOM      4  N   UNL     1      36.021 -22.699 -15.371  0.00  0.00    -0.251 N 
ATOM      5  N   UNL     1      36.619 -20.820 -17.311  0.00  0.00    -0.275 N 
ATOM      6  C   UNL     1      37.399 -22.429 -15.687  0.00  0.00    +0.215 C 
ATOM      7  C   UNL     1      35.926 -23.370 -14.098  0.00  0.00    +0.107 C 
ATOM      8  C   UNL     1      37.532 -21.003 -16.177  0.00  0.00    +0.147 C 
ATOM      9  C   UNL     1      37.199 -22.888 -13.425  0.00  0.00    +0.164 C 
ATOM     10  C   UNL     1      34.962 -22.321 -16.168  0.00  0.00    +0.268 C 
ATOM     11  C   UNL     1      35.358 -21.445 -17.339  0.00  0.00    +0.143 C 
ATOM     12  C   UNL     1      35.893 -24.884 -14.274  0.00  0.00    +0.024 C 
ATOM     13  C   UNL     1      36.965 -19.975 -18.355  0.00  0.00    +0.074 C 
ATOM     14  C   UNL     1      34.485 -21.285 -18.357  0.00  0.00    +0.191 C 
ATOM     15  C   UNL     1      36.198 -19.725 -19.424  0.00  0.00    +0.110 C 
ATOM     16  C   UNL     1      34.874 -20.398 -19.499  0.00  0.00    +0.236 C 
ENDROOT
BRANCH  15  19
ATOM     17  O   UNL     1      37.913 -18.647 -20.612  0.00  0.00    -0.270 OA
ATOM     18  N   UNL     1      35.696 -18.191 -21.168  0.00  0.00    -0.297 N 
ATOM     19  C   UNL     1      36.704 -18.812 -20.449  0.00  0.00    +0.251 C 
ATOM     20  H   UNL     1      34.762 -18.406 -20.942  0.00  0.00    +0.150 HD
BRANCH  18  21
ATOM     21  C   UNL     1      35.941 -17.244 -22.232  0.00  0.00    +0.119 C 
BRANCH  21  24
ATOM     22  F   UNL     1      35.610 -16.184 -19.630  0.00  0.00    -0.204 F 
ATOM     23  F   UNL     1      33.492 -12.271 -21.243  0.00  0.00    -0.204 F 
ATOM     24  C   UNL     1      35.289 -15.919 -21.967  0.00  0.00    +0.025 C 
ATOM     25  C   UNL     1      35.156 -15.454 -20.658  0.00  0.00    +0.140 C 
ATOM     26  C   UNL     1      34.814 -15.151 -23.031  0.00  0.00    +0.002 C 
ATOM     27  C   UNL     1      34.550 -14.222 -20.413  0.00  0.00    +0.059 C 
ATOM     28  C   UNL     1      34.207 -13.920 -22.786  0.00  0.00    +0.030 C 
ATOM     29  C   UNL     1      34.075 -13.454 -21.478  0.00  0.00    +0.142 C 
ENDBRANCH  21  24
ENDBRANCH  18  21
ENDBRANCH  15  19
BRANCH  14  30
ATOM     30  O   UNL     1      33.254 -21.897 -18.419  0.00  0.00    -0.502 OA
ATOM     31  H   UNL     1      32.475 -21.380 -18.466  0.00  0.00    +0.292 HD
ENDBRANCH  14  30
TORSDOF 4
ENDMDL
