MODEL 1
REMARK VINA RESULT:     -11.1      0.000      0.000
REMARK  Name = 11442891
REMARK  5 active torsions:
REMARK  status: ('A' for Active; 'I' for Inactive)
REMARK    1  A    between atoms: C_12  and  C_30
REMARK    2  A    between atoms: C_13  and  C_19
REMARK    3  A    between atoms: C_16  and  N_22
REMARK    4  A    between atoms: C_30  and  C_31
REMARK    5  A    between atoms: C_30  and  O_37
REMARK                            x       y       z     vdW  Elec       q    Type
REMARK                         _______ _______ _______ _____ _____    ______ ____
ROOT
ATOM      1  O   UNL     1      34.178 -11.070 -21.566  0.00  0.00    -0.271 OA
ATOM      2  O   UNL     1      34.947 -19.225 -23.536  0.00  0.00    -0.270 OA
ATOM      3  N   UNL     1      34.192 -12.623 -23.280  0.00  0.00    -0.231 N 
ATOM      4  N   UNL     1      34.312 -15.487 -25.450  0.00  0.00    -0.273 N 
ATOM      5  N   UNL     1      34.496 -16.649 -24.774  0.00  0.00    -0.157 NA
ATOM      6  N   UNL     1      34.756 -17.151 -22.442  0.00  0.00    -0.264 N 
ATOM      7  C   UNL     1      34.399 -13.799 -22.374  0.00  0.00    +0.077 C 
ATOM      8  C   UNL     1      34.430 -14.890 -23.349  0.00  0.00    +0.067 A 
ATOM      9  C   UNL     1      34.103 -12.983 -24.736  0.00  0.00    +0.091 C 
ATOM     10  C   UNL     1      34.269 -14.428 -24.618  0.00  0.00    +0.093 A 
ATOM     11  C   UNL     1      34.568 -16.268 -23.485  0.00  0.00    +0.157 A 
ATOM     12  C   UNL     1      34.100 -11.338 -22.766  0.00  0.00    +0.265 C 
ATOM     13  C   UNL     1      34.930 -18.539 -22.520  0.00  0.00    +0.251 C 
ATOM     14  H   UNL     1      34.220 -15.425 -26.428  0.00  0.00    +0.189 HD
ATOM     15  H   UNL     1      34.768 -16.762 -21.538  0.00  0.00    +0.157 HD
ENDROOT
BRANCH  13  19
ATOM     16  C   UNL     1      35.534 -20.518 -18.777  0.00  0.00    +0.048 C 
ATOM     17  C   UNL     1      34.251 -20.420 -19.315  0.00  0.00    +0.015 C 
ATOM     18  C   UNL     1      36.620 -19.971 -19.460  0.00  0.00    +0.015 C 
ATOM     19  C   UNL     1      35.140 -19.227 -21.219  0.00  0.00    +0.054 C 
ATOM     20  C   UNL     1      34.054 -19.774 -20.536  0.00  0.00    +0.006 C 
ATOM     21  C   UNL     1      36.423 -19.326 -20.681  0.00  0.00    +0.006 C 
BRANCH  16  22
ATOM     22  N   UNL     1      35.732 -21.164 -17.552  0.00  0.00    -0.312 N 
ATOM     23  N   UNL     1      36.182 -22.699 -15.186  0.00  0.00    +0.388 N 
ATOM     24  C   UNL     1      37.092 -21.315 -17.022  0.00  0.00    +0.068 C 
ATOM     25  C   UNL     1      34.778 -22.207 -17.159  0.00  0.00    +0.068 C 
ATOM     26  C   UNL     1      37.055 -21.564 -15.512  0.00  0.00    -0.056 C 
ATOM     27  C   UNL     1      34.815 -22.425 -15.645  0.00  0.00    -0.056 C 
ATOM     28  C   UNL     1      36.198 -22.961 -13.747  0.00  0.00    -0.101 C 
ATOM     29  H   UNL     1      36.530 -23.530 -15.663  0.00  0.00    -0.080 HD
ENDBRANCH  16  22
ENDBRANCH  13  19
BRANCH  12  30
ATOM     30  C   UNL     1      33.893 -10.245 -23.784  0.00  0.00    +0.214 C 
BRANCH  30  31
ATOM     31  C   UNL     1      33.393  -8.988 -23.129  0.00  0.00    +0.013 C 
ATOM     32  C   UNL     1      32.046  -8.869 -22.787  0.00  0.00    -0.001 C 
ATOM     33  C   UNL     1      34.276  -7.941 -22.864  0.00  0.00    -0.001 C 
ATOM     34  C   UNL     1      31.582  -7.703 -22.179  0.00  0.00    -0.000 C 
ATOM     35  C   UNL     1      33.812  -6.774 -22.257  0.00  0.00    -0.000 C 
ATOM     36  C   UNL     1      32.465  -6.655 -21.914  0.00  0.00    -0.000 C 
ENDBRANCH  30  31
BRANCH  30  37
ATOM     37  O   UNL     1      35.138 -10.022 -24.417  0.00  0.00    -0.340 OA
ATOM     38  C   UNL     1      35.012  -9.999 -25.836  0.00  0.00    +0.175 C 
ENDBRANCH  30  37
ENDBRANCH  12  30
TORSDOF 5
ENDMDL
MODEL 2
REMARK VINA RESULT:     -10.4      1.742      3.049
REMARK  Name = 11442891
REMARK  5 active torsions:
REMARK  status: ('A' for Active; 'I' for Inactive)
REMARK    1  A    between atoms: C_12  and  C_30
REMARK    2  A    between atoms: C_13  and  C_19
REMARK    3  A    between atoms: C_16  and  N_22
REMARK    4  A    between atoms: C_30  and  C_31
REMARK    5  A    between atoms: C_30  and  O_37
REMARK                            x       y       z     vdW  Elec       q    Type
REMARK                         _______ _______ _______ _____ _____    ______ ____
ROOT
ATOM      1  O   UNL     1      33.382  -8.847 -21.612  0.00  0.00    -0.271 OA
ATOM      2  O   UNL     1      34.794 -16.270 -25.337  0.00  0.00    -0.270 OA
ATOM      3  N   UNL     1      33.604  -9.954 -23.630  0.00  0.00    -0.231 N 
ATOM      4  N   UNL     1      34.043 -12.223 -26.384  0.00  0.00    -0.273 N 
ATOM      5  N   UNL     1      34.259 -13.501 -25.981  0.00  0.00    -0.157 NA
ATOM      6  N   UNL     1      34.402 -14.521 -23.814  0.00  0.00    -0.264 N 
ATOM      7  C   UNL     1      33.828 -11.298 -23.005  0.00  0.00    +0.077 C 
ATOM      8  C   UNL     1      33.990 -12.128 -24.199  0.00  0.00    +0.067 A 
ATOM      9  C   UNL     1      33.630  -9.968 -25.132  0.00  0.00    +0.091 C 
ATOM     10  C   UNL     1      33.881 -11.391 -25.337  0.00  0.00    +0.093 A 
ATOM     11  C   UNL     1      34.224 -13.428 -24.637  0.00  0.00    +0.157 A 
ATOM     12  C   UNL     1      33.398  -8.831 -22.843  0.00  0.00    +0.265 C 
ATOM     13  C   UNL     1      34.669 -15.842 -24.194  0.00  0.00    +0.251 C 
ATOM     14  H   UNL     1      34.009 -11.939 -27.325  0.00  0.00    +0.189 HD
ATOM     15  H   UNL     1      34.332 -14.353 -22.846  0.00  0.00    +0.157 HD
ENDROOT
BRANCH  13  19
ATOM     16  C   UNL     1      35.161 -18.610 -20.971  0.00  0.00    +0.048 C 
ATOM     17  C   UNL     1      34.692 -19.055 -22.207  0.00  0.00    +0.015 C 
ATOM     18  C   UNL     1      35.470 -17.262 -20.786  0.00  0.00    +0.015 C 
ATOM     19  C   UNL     1      34.840 -16.804 -23.074  0.00  0.00    +0.054 C 
ATOM     20  C   UNL     1      34.531 -18.152 -23.258  0.00  0.00    +0.006 C 
ATOM     21  C   UNL     1      35.310 -16.359 -21.838  0.00  0.00    +0.006 C 
BRANCH  16  22
ATOM     22  N   UNL     1      35.321 -19.514 -19.916  0.00  0.00    -0.312 N 
ATOM     23  N   UNL     1      35.644 -21.550 -17.939  0.00  0.00    +0.388 N 
ATOM     24  C   UNL     1      36.663 -19.989 -19.564  0.00  0.00    +0.068 C 
ATOM     25  C   UNL     1      34.222 -20.445 -19.632  0.00  0.00    +0.068 C 
ATOM     26  C   UNL     1      36.683 -20.530 -18.132  0.00  0.00    -0.056 C 
ATOM     27  C   UNL     1      34.321 -20.969 -18.198  0.00  0.00    -0.056 C 
ATOM     28  C   UNL     1      35.708 -22.098 -16.584  0.00  0.00    -0.101 C 
ATOM     29  H   UNL     1      35.804 -22.312 -18.597  0.00  0.00    -0.080 HD
ENDBRANCH  16  22
ENDBRANCH  13  19
BRANCH  12  30
ATOM     30  C   UNL     1      33.186  -7.541 -23.595  0.00  0.00    +0.214 C 
BRANCH  30  31
ATOM     31  C   UNL     1      32.676  -6.463 -22.682  0.00  0.00    +0.013 C 
ATOM     32  C   UNL     1      32.432  -5.183 -23.181  0.00  0.00    -0.001 C 
ATOM     33  C   UNL     1      32.445  -6.741 -21.335  0.00  0.00    -0.001 C 
ATOM     34  C   UNL     1      31.958  -4.182 -22.334  0.00  0.00    -0.000 C 
ATOM     35  C   UNL     1      31.971  -5.740 -20.487  0.00  0.00    -0.000 C 
ATOM     36  C   UNL     1      31.728  -4.460 -20.986  0.00  0.00    -0.000 C 
ENDBRANCH  30  31
BRANCH  30  37
ATOM     37  O   UNL     1      34.431  -7.176 -24.159  0.00  0.00    -0.340 OA
ATOM     38  C   UNL     1      35.503  -7.367 -23.240  0.00  0.00    +0.175 C 
ENDBRANCH  30  37
ENDBRANCH  12  30
TORSDOF 5
ENDMDL
MODEL 3
REMARK VINA RESULT:      -9.3      2.114      3.407
REMARK  Name = 11442891
REMARK  5 active torsions:
REMARK  status: ('A' for Active; 'I' for Inactive)
REMARK    1  A    between atoms: C_12  and  C_30
REMARK    2  A    between atoms: C_13  and  C_19
REMARK    3  A    between atoms: C_16  and  N_22
REMARK    4  A    between atoms: C_30  and  C_31
REMARK    5  A    between atoms: C_30  and  O_37
REMARK                            x       y       z     vdW  Elec       q    Type
REMARK                         _______ _______ _______ _____ _____    ______ ____
ROOT
ATOM      1  O   UNL     1      32.947 -13.255 -19.612  0.00  0.00    -0.271 OA
ATOM      2  O   UNL     1      37.156 -20.504 -20.465  0.00  0.00    -0.270 OA
ATOM      3  N   UNL     1      34.156 -14.598 -21.057  0.00  0.00    -0.231 N 
ATOM      4  N   UNL     1      36.080 -17.104 -22.773  0.00  0.00    -0.273 N 
ATOM      5  N   UNL     1      36.372 -18.170 -21.986  0.00  0.00    -0.157 NA
ATOM      6  N   UNL     1      35.859 -18.696 -19.702  0.00  0.00    -0.264 N 
ATOM      7  C   UNL     1      34.382 -15.685 -20.048  0.00  0.00    +0.077 C 
ATOM      8  C   UNL     1      35.161 -16.634 -20.844  0.00  0.00    +0.067 A 
ATOM      9  C   UNL     1      34.769 -14.876 -22.399  0.00  0.00    +0.091 C 
ATOM     10  C   UNL     1      35.359 -16.179 -22.110  0.00  0.00    +0.093 A 
ATOM     11  C   UNL     1      35.802 -17.868 -20.804  0.00  0.00    +0.157 A 
ATOM     12  C   UNL     1      33.439 -13.459 -20.723  0.00  0.00    +0.265 C 
ATOM     13  C   UNL     1      36.512 -19.930 -19.593  0.00  0.00    +0.251 C 
ATOM     14  H   UNL     1      36.360 -17.017 -23.712  0.00  0.00    +0.189 HD
ATOM     15  H   UNL     1      35.385 -18.383 -18.898  0.00  0.00    +0.157 HD
ENDROOT
BRANCH  13  19
ATOM     16  C   UNL     1      36.252 -21.807 -15.759  0.00  0.00    +0.048 C 
ATOM     17  C   UNL     1      37.345 -20.997 -16.067  0.00  0.00    +0.015 C 
ATOM     18  C   UNL     1      35.243 -22.005 -16.703  0.00  0.00    +0.015 C 
ATOM     19  C   UNL     1      36.421 -20.583 -18.261  0.00  0.00    +0.054 C 
ATOM     20  C   UNL     1      37.430 -20.385 -17.317  0.00  0.00    +0.006 C 
ATOM     21  C   UNL     1      35.328 -21.393 -17.953  0.00  0.00    +0.006 C 
BRANCH  16  22
ATOM     22  N   UNL     1      36.167 -22.422 -14.506  0.00  0.00    -0.312 N 
ATOM     23  N   UNL     1      36.037 -23.904 -12.068  0.00  0.00    +0.388 N 
ATOM     24  C   UNL     1      37.391 -22.695 -13.746  0.00  0.00    +0.068 C 
ATOM     25  C   UNL     1      35.050 -23.343 -14.263  0.00  0.00    +0.068 C 
ATOM     26  C   UNL     1      37.072 -22.881 -12.261  0.00  0.00    -0.056 C 
ATOM     27  C   UNL     1      34.806 -23.506 -12.761  0.00  0.00    -0.056 C 
ATOM     28  C   UNL     1      35.779 -24.111 -10.643  0.00  0.00    -0.101 C 
ATOM     29  H   UNL     1      36.366 -24.785 -12.461  0.00  0.00    -0.080 HD
ENDBRANCH  16  22
ENDBRANCH  13  19
BRANCH  12  30
ATOM     30  C   UNL     1      33.284 -12.443 -21.827  0.00  0.00    +0.214 C 
BRANCH  30  31
ATOM     31  C   UNL     1      32.729 -11.152 -21.296  0.00  0.00    +0.013 C 
ATOM     32  C   UNL     1      32.766 -10.001 -22.083  0.00  0.00    -0.001 C 
ATOM     33  C   UNL     1      32.176 -11.104 -20.017  0.00  0.00    -0.001 C 
ATOM     34  C   UNL     1      32.252  -8.802 -21.591  0.00  0.00    -0.000 C 
ATOM     35  C   UNL     1      31.662  -9.905 -19.523  0.00  0.00    -0.000 C 
ATOM     36  C   UNL     1      31.699  -8.754 -20.310  0.00  0.00    -0.000 C 
ENDBRANCH  30  31
BRANCH  30  37
ATOM     37  O   UNL     1      34.563 -12.245 -22.396  0.00  0.00    -0.340 OA
ATOM     38  C   UNL     1      34.478 -11.842 -23.760  0.00  0.00    +0.175 C 
ENDBRANCH  30  37
ENDBRANCH  12  30
TORSDOF 5
ENDMDL
MODEL 4
REMARK VINA RESULT:      -8.6      3.062     12.217
REMARK  Name = 11442891
REMARK  5 active torsions:
REMARK  status: ('A' for Active; 'I' for Inactive)
REMARK    1  A    between atoms: C_12  and  C_30
REMARK    2  A    between atoms: C_13  and  C_19
REMARK    3  A    between atoms: C_16  and  N_22
REMARK    4  A    between atoms: C_30  and  C_31
REMARK    5  A    between atoms: C_30  and  O_37
REMARK                            x       y       z     vdW  Elec       q    Type
REMARK                         _______ _______ _______ _____ _____    ______ ____
ROOT
ATOM      1  O   UNL     1      30.813 -21.226 -16.703  0.00  0.00    -0.271 OA
ATOM      2  O   UNL     1      36.918 -18.015 -21.541  0.00  0.00    -0.270 OA
ATOM      3  N   UNL     1      32.882 -21.609 -17.664  0.00  0.00    -0.231 N 
ATOM      4  N   UNL     1      36.028 -21.576 -19.404  0.00  0.00    -0.273 N 
ATOM      5  N   UNL     1      36.259 -20.405 -20.048  0.00  0.00    -0.157 NA
ATOM      6  N   UNL     1      34.988 -18.379 -20.246  0.00  0.00    -0.264 N 
ATOM      7  C   UNL     1      32.966 -20.256 -18.308  0.00  0.00    +0.077 C 
ATOM      8  C   UNL     1      34.265 -20.355 -18.975  0.00  0.00    +0.067 A 
ATOM      9  C   UNL     1      34.072 -22.485 -17.930  0.00  0.00    +0.091 C 
ATOM     10  C   UNL     1      34.846 -21.566 -18.759  0.00  0.00    +0.093 A 
ATOM     11  C   UNL     1      35.168 -19.664 -19.777  0.00  0.00    +0.157 A 
ATOM     12  C   UNL     1      31.778 -21.965 -16.904  0.00  0.00    +0.265 C 
ATOM     13  C   UNL     1      35.845 -17.646 -21.077  0.00  0.00    +0.251 C 
ATOM     14  H   UNL     1      36.648 -22.340 -19.407  0.00  0.00    +0.189 HD
ATOM     15  H   UNL     1      34.162 -17.924 -19.963  0.00  0.00    +0.157 HD
ENDROOT
BRANCH  13  19
ATOM     16  C   UNL     1      34.469 -13.735 -22.126  0.00  0.00    +0.048 C 
ATOM     17  C   UNL     1      34.810 -14.646 -23.126  0.00  0.00    +0.015 C 
ATOM     18  C   UNL     1      34.576 -14.099 -20.784  0.00  0.00    +0.015 C 
ATOM     19  C   UNL     1      35.366 -16.286 -21.442  0.00  0.00    +0.054 C 
ATOM     20  C   UNL     1      35.259 -15.921 -22.784  0.00  0.00    +0.006 C 
ATOM     21  C   UNL     1      35.025 -15.375 -20.442  0.00  0.00    +0.006 C 
BRANCH  16  22
ATOM     22  N   UNL     1      34.020 -12.455 -22.469  0.00  0.00    -0.312 N 
ATOM     23  N   UNL     1      32.942  -9.956 -23.336  0.00  0.00    +0.388 N 
ATOM     24  C   UNL     1      32.824 -11.907 -21.821  0.00  0.00    +0.068 C 
ATOM     25  C   UNL     1      34.282 -11.972 -23.830  0.00  0.00    +0.068 C 
ATOM     26  C   UNL     1      32.801 -10.381 -21.937  0.00  0.00    -0.056 C 
ATOM     27  C   UNL     1      34.215 -10.444 -23.880  0.00  0.00    -0.056 C 
ATOM     28  C   UNL     1      32.865  -8.499 -23.439  0.00  0.00    -0.101 C 
ATOM     29  H   UNL     1      32.176 -10.353 -23.879  0.00  0.00    -0.080 HD
ENDBRANCH  16  22
ENDBRANCH  13  19
BRANCH  12  30
ATOM     30  C   UNL     1      31.817 -23.352 -16.313  0.00  0.00    +0.214 C 
BRANCH  30  31
ATOM     31  C   UNL     1      32.646 -23.380 -15.061  0.00  0.00    +0.013 C 
ATOM     32  C   UNL     1      33.941 -23.897 -15.093  0.00  0.00    -0.001 C 
ATOM     33  C   UNL     1      32.121 -22.890 -13.865  0.00  0.00    -0.001 C 
ATOM     34  C   UNL     1      34.711 -23.923 -13.931  0.00  0.00    -0.000 C 
ATOM     35  C   UNL     1      32.890 -22.917 -12.702  0.00  0.00    -0.000 C 
ATOM     36  C   UNL     1      34.185 -23.433 -12.735  0.00  0.00    -0.000 C 
ENDBRANCH  30  31
BRANCH  30  37
ATOM     37  O   UNL     1      30.481 -23.729 -16.042  0.00  0.00    -0.340 OA
ATOM     38  C   UNL     1      30.415 -24.949 -15.311  0.00  0.00    +0.175 C 
ENDBRANCH  30  37
ENDBRANCH  12  30
TORSDOF 5
ENDMDL
MODEL 5
REMARK VINA RESULT:      -8.3      3.340     12.293
REMARK  Name = 11442891
REMARK  5 active torsions:
REMARK  status: ('A' for Active; 'I' for Inactive)
REMARK    1  A    between atoms: C_12  and  C_30
REMARK    2  A    between atoms: C_13  and  C_19
REMARK    3  A    between atoms: C_16  and  N_22
REMARK    4  A    between atoms: C_30  and  C_31
REMARK    5  A    between atoms: C_30  and  O_37
REMARK                            x       y       z     vdW  Elec       q    Type
REMARK                         _______ _______ _______ _____ _____    ______ ____
ROOT
ATOM      1  O   UNL     1      30.251 -21.663 -16.804  0.00  0.00    -0.271 OA
ATOM      2  O   UNL     1      37.292 -18.912 -20.524  0.00  0.00    -0.270 OA
ATOM      3  N   UNL     1      32.516 -22.027 -17.101  0.00  0.00    -0.231 N 
ATOM      4  N   UNL     1      36.009 -22.038 -17.951  0.00  0.00    -0.273 N 
ATOM      5  N   UNL     1      36.356 -21.003 -18.758  0.00  0.00    -0.157 NA
ATOM      6  N   UNL     1      35.102 -19.194 -19.713  0.00  0.00    -0.264 N 
ATOM      7  C   UNL     1      32.714 -20.831 -17.984  0.00  0.00    +0.077 C 
ATOM      8  C   UNL     1      34.147 -20.935 -18.263  0.00  0.00    +0.067 A 
ATOM      9  C   UNL     1      33.769 -22.818 -16.857  0.00  0.00    +0.091 C 
ATOM     10  C   UNL     1      34.698 -22.014 -17.645  0.00  0.00    +0.093 A 
ATOM     11  C   UNL     1      35.203 -20.334 -18.942  0.00  0.00    +0.157 A 
ATOM     12  C   UNL     1      31.264 -22.329 -16.586  0.00  0.00    +0.265 C 
ATOM     13  C   UNL     1      36.119 -18.563 -20.440  0.00  0.00    +0.251 C 
ATOM     14  H   UNL     1      36.639 -22.722 -17.629  0.00  0.00    +0.189 HD
ATOM     15  H   UNL     1      34.212 -18.775 -19.756  0.00  0.00    +0.157 HD
ENDROOT
BRANCH  13  19
ATOM     16  C   UNL     1      34.914 -15.098 -22.639  0.00  0.00    +0.048 C 
ATOM     17  C   UNL     1      35.015 -15.042 -21.249  0.00  0.00    +0.015 C 
ATOM     18  C   UNL     1      35.207 -16.285 -23.312  0.00  0.00    +0.015 C 
ATOM     19  C   UNL     1      35.701 -17.359 -21.205  0.00  0.00    +0.054 C 
ATOM     20  C   UNL     1      35.408 -16.173 -20.531  0.00  0.00    +0.006 C 
ATOM     21  C   UNL     1      35.600 -17.415 -22.595  0.00  0.00    +0.006 C 
BRANCH  16  22
ATOM     22  N   UNL     1      34.519 -13.966 -23.358  0.00  0.00    -0.312 N 
ATOM     23  N   UNL     1      33.466 -11.714 -24.765  0.00  0.00    +0.388 N 
ATOM     24  C   UNL     1      34.291 -12.700 -22.653  0.00  0.00    +0.068 C 
ATOM     25  C   UNL     1      33.726 -14.164 -24.578  0.00  0.00    +0.068 C 
ATOM     26  C   UNL     1      34.372 -11.521 -23.626  0.00  0.00    -0.056 C 
ATOM     27  C   UNL     1      33.828 -12.939 -25.489  0.00  0.00    -0.056 C 
ATOM     28  C   UNL     1      33.512 -10.557 -25.659  0.00  0.00    -0.101 C 
ATOM     29  H   UNL     1      32.513 -11.807 -24.416  0.00  0.00    -0.080 HD
ENDBRANCH  16  22
ENDBRANCH  13  19
BRANCH  12  30
ATOM     30  C   UNL     1      31.201 -23.558 -15.714  0.00  0.00    +0.214 C 
BRANCH  30  31
ATOM     31  C   UNL     1      32.002 -23.367 -14.457  0.00  0.00    +0.013 C 
ATOM     32  C   UNL     1      31.669 -22.347 -13.566  0.00  0.00    -0.001 C 
ATOM     33  C   UNL     1      33.078 -24.210 -14.181  0.00  0.00    -0.001 C 
ATOM     34  C   UNL     1      32.411 -22.169 -12.399  0.00  0.00    -0.000 C 
ATOM     35  C   UNL     1      33.822 -24.033 -13.015  0.00  0.00    -0.000 C 
ATOM     36  C   UNL     1      33.489 -23.012 -12.124  0.00  0.00    -0.000 C 
ENDBRANCH  30  31
BRANCH  30  37
ATOM     37  O   UNL     1      29.838 -23.787 -15.413  0.00  0.00    -0.340 OA
ATOM     38  C   UNL     1      29.659 -24.970 -14.641  0.00  0.00    +0.175 C 
ENDBRANCH  30  37
ENDBRANCH  12  30
TORSDOF 5
ENDMDL
