MODEL 1
REMARK VINA RESULT:     -13.0      0.000      0.000
REMARK  Name = 25191001
REMARK  7 active torsions:
REMARK  status: ('A' for Active; 'I' for Inactive)
REMARK    1  A    between atoms: C_1  and  N_9
REMARK    2  A    between atoms: C_2  and  O_24
REMARK    3  A    between atoms: N_8  and  C_14
REMARK    4  A    between atoms: C_15  and  C_23
REMARK    5  A    between atoms: O_24  and  C_26
REMARK    6  A    between atoms: C_28  and  C_33
REMARK    7  A    between atoms: N_32  and  C_35
REMARK                            x       y       z     vdW  Elec       q    Type
REMARK                         _______ _______ _______ _____ _____    ______ ____
ROOT
ATOM      1  C   UNL     1      35.699 -20.246 -19.172  0.00  0.00    +0.052 C 
ATOM      2  C   UNL     1      35.717 -18.309 -21.180  0.00  0.00    +0.145 C 
ATOM      3  C   UNL     1      34.516 -19.916 -19.834  0.00  0.00    +0.018 C 
ATOM      4  C   UNL     1      36.891 -19.607 -19.515  0.00  0.00    +0.018 C 
ATOM      5  C   UNL     1      34.525 -18.948 -20.837  0.00  0.00    +0.039 C 
ATOM      6  C   UNL     1      36.900 -18.638 -20.519  0.00  0.00    +0.039 C 
ENDROOT
BRANCH   1   9
ATOM      7  O   UNL     1      37.212 -20.366 -16.600  0.00  0.00    -0.252 OA
ATOM      8  N   UNL     1      36.123 -22.404 -16.214  0.00  0.00    -0.268 N 
ATOM      9  N   UNL     1      35.690 -21.227 -18.153  0.00  0.00    -0.268 N 
ATOM     10  C   UNL     1      36.424 -21.237 -16.956  0.00  0.00    +0.308 C 
ATOM     11  H   UNL     1      35.470 -23.015 -16.625  0.00  0.00    +0.156 HD
ATOM     12  H   UNL     1      35.096 -21.998 -18.301  0.00  0.00    +0.156 HD
BRANCH   8  14
ATOM     13 CL   UNL     1      38.232 -24.075 -10.951  0.00  0.00    -0.082 Cl
ATOM     14  C   UNL     1      36.628 -22.803 -14.975  0.00  0.00    +0.052 C 
ATOM     15  C   UNL     1      38.327 -23.918 -13.670  0.00  0.00    +0.083 C 
ATOM     16  C   UNL     1      37.823 -23.520 -14.908  0.00  0.00    +0.019 C 
ATOM     17  C   UNL     1      35.938 -22.484 -13.806  0.00  0.00    +0.016 C 
ATOM     18  C   UNL     1      37.639 -23.600 -12.500  0.00  0.00    +0.062 C 
ATOM     19  C   UNL     1      36.443 -22.883 -12.568  0.00  0.00    +0.013 C 
BRANCH  15  23
ATOM     20  F   UNL     1      40.188 -24.829 -14.868  0.00  0.00    -0.166 F 
ATOM     21  F   UNL     1      40.570 -24.108 -12.859  0.00  0.00    -0.166 F 
ATOM     22  F   UNL     1      39.452 -25.949 -13.156  0.00  0.00    -0.166 F 
ATOM     23  C   UNL     1      39.611 -24.684 -13.640  0.00  0.00    +0.419 C 
ENDBRANCH  15  23
ENDBRANCH   8  14
ENDBRANCH   1   9
BRANCH   2  24
ATOM     24  O   UNL     1      35.725 -17.362 -22.158  0.00  0.00    -0.453 OA
BRANCH  24  26
ATOM     25  N   UNL     1      34.474 -13.507 -21.137  0.00  0.00    -0.239 NA
ATOM     26  C   UNL     1      35.312 -16.085 -21.821  0.00  0.00    +0.149 C 
ATOM     27  C   UNL     1      34.999 -15.166 -22.816  0.00  0.00    +0.061 C 
ATOM     28  C   UNL     1      34.588 -13.901 -22.426  0.00  0.00    +0.137 C 
ATOM     29  C   UNL     1      35.206 -15.717 -20.484  0.00  0.00    +0.058 C 
ATOM     30  C   UNL     1      34.787 -14.427 -20.197  0.00  0.00    +0.102 C 
BRANCH  28  33
ATOM     31  O   UNL     1      33.657 -13.226 -24.469  0.00  0.00    -0.269 OA
ATOM     32  N   UNL     1      34.593 -11.574 -23.137  0.00  0.00    -0.313 N 
ATOM     33  C   UNL     1      34.249 -12.900 -23.422  0.00  0.00    +0.263 C 
ATOM     34  H   UNL     1      35.060 -11.387 -22.291  0.00  0.00    +0.149 HD
ATOM     35  C   UNL     1      34.302 -10.465 -24.016  0.00  0.00    +0.128 C 
ENDBRANCH  28  33
ENDBRANCH  24  26
ENDBRANCH   2  24
TORSDOF 6
ENDMDL
MODEL 2
REMARK VINA RESULT:     -12.3      6.014     11.921
REMARK  Name = 25191001
REMARK  7 active torsions:
REMARK  status: ('A' for Active; 'I' for Inactive)
REMARK    1  A    between atoms: C_1  and  N_9
REMARK    2  A    between atoms: C_2  and  O_24
REMARK    3  A    between atoms: N_8  and  C_14
REMARK    4  A    between atoms: C_15  and  C_23
REMARK    5  A    between atoms: O_24  and  C_26
REMARK    6  A    between atoms: C_28  and  C_33
REMARK    7  A    between atoms: N_32  and  C_35
REMARK                            x       y       z     vdW  Elec       q    Type
REMARK                         _______ _______ _______ _____ _____    ______ ____
ROOT
ATOM      1  C   UNL     1      35.214 -21.313 -18.047  0.00  0.00    +0.052 C 
ATOM      2  C   UNL     1      34.418 -22.816 -15.835  0.00  0.00    +0.145 C 
ATOM      3  C   UNL     1      36.023 -21.367 -16.913  0.00  0.00    +0.018 C 
ATOM      4  C   UNL     1      34.006 -22.011 -18.075  0.00  0.00    +0.018 C 
ATOM      5  C   UNL     1      35.626 -22.119 -15.807  0.00  0.00    +0.039 C 
ATOM      6  C   UNL     1      33.608 -22.762 -16.969  0.00  0.00    +0.039 C 
ENDROOT
BRANCH   1   9
ATOM      7  O   UNL     1      33.644 -19.449 -19.773  0.00  0.00    -0.252 OA
ATOM      8  N   UNL     1      35.625 -19.116 -20.979  0.00  0.00    -0.268 N 
ATOM      9  N   UNL     1      35.617 -20.550 -19.168  0.00  0.00    -0.268 N 
ATOM     10  C   UNL     1      34.835 -19.684 -19.949  0.00  0.00    +0.308 C 
ATOM     11  H   UNL     1      36.568 -19.398 -20.998  0.00  0.00    +0.156 HD
ATOM     12  H   UNL     1      36.560 -20.637 -19.433  0.00  0.00    +0.156 HD
BRANCH   8  14
ATOM     13 CL   UNL     1      34.009 -15.306 -25.198  0.00  0.00    -0.082 Cl
ATOM     14  C   UNL     1      35.244 -18.210 -21.969  0.00  0.00    +0.052 C 
ATOM     15  C   UNL     1      34.799 -15.941 -22.668  0.00  0.00    +0.083 C 
ATOM     16  C   UNL     1      35.179 -16.847 -21.678  0.00  0.00    +0.019 C 
ATOM     17  C   UNL     1      34.928 -18.667 -23.248  0.00  0.00    +0.016 C 
ATOM     18  C   UNL     1      34.483 -16.397 -23.948  0.00  0.00    +0.062 C 
ATOM     19  C   UNL     1      34.548 -17.761 -24.238  0.00  0.00    +0.013 C 
BRANCH  15  23
ATOM     20  F   UNL     1      35.464 -13.696 -23.161  0.00  0.00    -0.166 F 
ATOM     21  F   UNL     1      33.478 -13.974 -22.337  0.00  0.00    -0.166 F 
ATOM     22  F   UNL     1      35.225 -14.235 -21.069  0.00  0.00    -0.166 F 
ATOM     23  C   UNL     1      34.742 -14.489 -22.318  0.00  0.00    +0.419 C 
ENDBRANCH  15  23
ENDBRANCH   8  14
ENDBRANCH   1   9
BRANCH   2  24
ATOM     24  O   UNL     1      34.029 -23.547 -14.755  0.00  0.00    -0.453 OA
BRANCH  24  26
ATOM     25  N   UNL     1      36.954 -24.590 -11.958  0.00  0.00    -0.239 NA
ATOM     26  C   UNL     1      34.998 -23.894 -13.829  0.00  0.00    +0.149 C 
ATOM     27  C   UNL     1      36.133 -24.588 -14.232  0.00  0.00    +0.061 C 
ATOM     28  C   UNL     1      37.074 -24.910 -13.267  0.00  0.00    +0.137 C 
ATOM     29  C   UNL     1      34.840 -23.547 -12.492  0.00  0.00    +0.058 C 
ATOM     30  C   UNL     1      35.837 -23.916 -11.603  0.00  0.00    +0.102 C 
BRANCH  28  33
ATOM     31  O   UNL     1      38.226 -26.845 -13.919  0.00  0.00    -0.269 OA
ATOM     32  N   UNL     1      39.475 -24.907 -13.663  0.00  0.00    -0.313 N 
ATOM     33  C   UNL     1      38.279 -25.635 -13.631  0.00  0.00    +0.263 C 
ATOM     34  H   UNL     1      39.445 -23.953 -13.423  0.00  0.00    +0.149 HD
ATOM     35  C   UNL     1      40.750 -25.480 -14.028  0.00  0.00    +0.128 C 
ENDBRANCH  28  33
ENDBRANCH  24  26
ENDBRANCH   2  24
TORSDOF 6
ENDMDL
MODEL 3
REMARK VINA RESULT:     -12.2      1.672      2.140
REMARK  Name = 25191001
REMARK  7 active torsions:
REMARK  status: ('A' for Active; 'I' for Inactive)
REMARK    1  A    between atoms: C_1  and  N_9
REMARK    2  A    between atoms: C_2  and  O_24
REMARK    3  A    between atoms: N_8  and  C_14
REMARK    4  A    between atoms: C_15  and  C_23
REMARK    5  A    between atoms: O_24  and  C_26
REMARK    6  A    between atoms: C_28  and  C_33
REMARK    7  A    between atoms: N_32  and  C_35
REMARK                            x       y       z     vdW  Elec       q    Type
REMARK                         _______ _______ _______ _____ _____    ______ ____
ROOT
ATOM      1  C   UNL     1      36.534 -19.210 -19.752  0.00  0.00    +0.052 C 
ATOM      2  C   UNL     1      35.650 -18.301 -22.237  0.00  0.00    +0.145 C 
ATOM      3  C   UNL     1      35.231 -19.479 -20.171  0.00  0.00    +0.018 C 
ATOM      4  C   UNL     1      37.395 -18.486 -20.577  0.00  0.00    +0.018 C 
ATOM      5  C   UNL     1      34.789 -19.025 -21.413  0.00  0.00    +0.039 C 
ATOM      6  C   UNL     1      36.954 -18.031 -21.820  0.00  0.00    +0.039 C 
ENDROOT
BRANCH   1   9
ATOM      7  O   UNL     1      35.779 -21.658 -18.215  0.00  0.00    -0.252 OA
ATOM      8  N   UNL     1      37.280 -20.922 -16.574  0.00  0.00    -0.268 N 
ATOM      9  N   UNL     1      36.982 -19.670 -18.491  0.00  0.00    -0.268 N 
ATOM     10  C   UNL     1      36.593 -20.834 -17.809  0.00  0.00    +0.308 C 
ATOM     11  H   UNL     1      37.905 -20.186 -16.379  0.00  0.00    +0.156 HD
ATOM     12  H   UNL     1      37.647 -19.105 -18.037  0.00  0.00    +0.156 HD
BRANCH   8  14
ATOM     13 CL   UNL     1      36.862 -25.110 -12.425  0.00  0.00    -0.082 Cl
ATOM     14  C   UNL     1      37.190 -21.913 -15.596  0.00  0.00    +0.052 C 
ATOM     15  C   UNL     1      38.211 -23.692 -14.320  0.00  0.00    +0.083 C 
ATOM     16  C   UNL     1      38.302 -22.702 -15.298  0.00  0.00    +0.019 C 
ATOM     17  C   UNL     1      35.989 -22.115 -14.917  0.00  0.00    +0.016 C 
ATOM     18  C   UNL     1      37.011 -23.895 -13.640  0.00  0.00    +0.062 C 
ATOM     19  C   UNL     1      35.899 -23.106 -13.939  0.00  0.00    +0.013 C 
BRANCH  15  23
ATOM     20  F   UNL     1      40.479 -24.241 -14.852  0.00  0.00    -0.166 F 
ATOM     21  F   UNL     1      39.905 -24.348 -12.763  0.00  0.00    -0.166 F 
ATOM     22  F   UNL     1      39.192 -25.852 -14.163  0.00  0.00    -0.166 F 
ATOM     23  C   UNL     1      39.425 -24.516 -14.030  0.00  0.00    +0.419 C 
ENDBRANCH  15  23
ENDBRANCH   8  14
ENDBRANCH   1   9
BRANCH   2  24
ATOM     24  O   UNL     1      35.219 -17.855 -23.449  0.00  0.00    -0.453 OA
BRANCH  24  26
ATOM     25  N   UNL     1      34.065 -13.848 -23.749  0.00  0.00    -0.239 NA
ATOM     26  C   UNL     1      34.836 -16.528 -23.547  0.00  0.00    +0.149 C 
ATOM     27  C   UNL     1      34.674 -15.760 -22.400  0.00  0.00    +0.061 C 
ATOM     28  C   UNL     1      34.292 -14.437 -22.552  0.00  0.00    +0.137 C 
ATOM     29  C   UNL     1      34.613 -15.958 -24.796  0.00  0.00    +0.058 C 
ATOM     30  C   UNL     1      34.232 -14.626 -24.842  0.00  0.00    +0.102 C 
BRANCH  28  33
ATOM     31  O   UNL     1      35.060 -13.353 -20.621  0.00  0.00    -0.269 OA
ATOM     32  N   UNL     1      32.834 -13.039 -21.194  0.00  0.00    -0.313 N 
ATOM     33  C   UNL     1      34.108 -13.588 -21.388  0.00  0.00    +0.263 C 
ATOM     34  H   UNL     1      32.127 -13.267 -21.839  0.00  0.00    +0.149 HD
ATOM     35  C   UNL     1      32.501 -12.158 -20.099  0.00  0.00    +0.128 C 
ENDBRANCH  28  33
ENDBRANCH  24  26
ENDBRANCH   2  24
TORSDOF 6
ENDMDL
MODEL 4
REMARK VINA RESULT:     -11.9      8.609     13.904
REMARK  Name = 25191001
REMARK  7 active torsions:
REMARK  status: ('A' for Active; 'I' for Inactive)
REMARK    1  A    between atoms: C_1  and  N_9
REMARK    2  A    between atoms: C_2  and  O_24
REMARK    3  A    between atoms: N_8  and  C_14
REMARK    4  A    between atoms: C_15  and  C_23
REMARK    5  A    between atoms: O_24  and  C_26
REMARK    6  A    between atoms: C_28  and  C_33
REMARK    7  A    between atoms: N_32  and  C_35
REMARK                            x       y       z     vdW  Elec       q    Type
REMARK                         _______ _______ _______ _____ _____    ______ ____
ROOT
ATOM      1  C   UNL     1      33.630 -13.195 -22.299  0.00  0.00    +0.052 C 
ATOM      2  C   UNL     1      34.962 -15.597 -22.787  0.00  0.00    +0.145 C 
ATOM      3  C   UNL     1      34.321 -13.832 -21.268  0.00  0.00    +0.018 C 
ATOM      4  C   UNL     1      33.604 -13.760 -23.574  0.00  0.00    +0.018 C 
ATOM      5  C   UNL     1      34.987 -15.033 -21.512  0.00  0.00    +0.039 C 
ATOM      6  C   UNL     1      34.270 -14.961 -23.819  0.00  0.00    +0.039 C 
ENDROOT
BRANCH   1   9
ATOM      7  O   UNL     1      34.242 -10.425 -23.232  0.00  0.00    -0.252 OA
ATOM      8  N   UNL     1      32.345  -9.750 -22.034  0.00  0.00    -0.268 N 
ATOM      9  N   UNL     1      32.953 -11.978 -22.050  0.00  0.00    -0.268 N 
ATOM     10  C   UNL     1      33.283 -10.695 -22.515  0.00  0.00    +0.308 C 
ATOM     11  H   UNL     1      31.626 -10.112 -21.467  0.00  0.00    +0.156 HD
ATOM     12  H   UNL     1      32.152 -12.038 -21.481  0.00  0.00    +0.156 HD
BRANCH   8  14
ATOM     13 CL   UNL     1      32.175  -3.925 -23.018  0.00  0.00    -0.082 Cl
ATOM     14  C   UNL     1      32.303  -8.373 -22.257  0.00  0.00    +0.052 C 
ATOM     15  C   UNL     1      32.020  -6.125 -21.418  0.00  0.00    +0.083 C 
ATOM     16  C   UNL     1      32.062  -7.501 -21.195  0.00  0.00    +0.019 C 
ATOM     17  C   UNL     1      32.502  -7.869 -23.542  0.00  0.00    +0.016 C 
ATOM     18  C   UNL     1      32.220  -5.620 -22.703  0.00  0.00    +0.062 C 
ATOM     19  C   UNL     1      32.460  -6.493 -23.766  0.00  0.00    +0.013 C 
BRANCH  15  23
ATOM     20  F   UNL     1      31.742  -5.876 -19.055  0.00  0.00    -0.166 F 
ATOM     21  F   UNL     1      32.692  -4.238 -20.112  0.00  0.00    -0.166 F 
ATOM     22  F   UNL     1      30.559  -4.587 -20.346  0.00  0.00    -0.166 F 
ATOM     23  C   UNL     1      31.760  -5.225 -20.254  0.00  0.00    +0.419 C 
ENDBRANCH  15  23
ENDBRANCH   8  14
ENDBRANCH   1   9
BRANCH   2  24
ATOM     24  O   UNL     1      35.610 -16.771 -23.026  0.00  0.00    -0.453 OA
BRANCH  24  26
ATOM     25  N   UNL     1      36.217 -19.351 -19.794  0.00  0.00    -0.239 NA
ATOM     26  C   UNL     1      35.810 -17.625 -21.955  0.00  0.00    +0.149 C 
ATOM     27  C   UNL     1      34.747 -18.354 -21.434  0.00  0.00    +0.061 C 
ATOM     28  C   UNL     1      35.000 -19.196 -20.363  0.00  0.00    +0.137 C 
ATOM     29  C   UNL     1      37.077 -17.758 -21.397  0.00  0.00    +0.058 C 
ATOM     30  C   UNL     1      37.227 -18.626 -20.327  0.00  0.00    +0.102 C 
BRANCH  28  33
ATOM     31  O   UNL     1      32.768 -19.900 -20.225  0.00  0.00    -0.269 OA
ATOM     32  N   UNL     1      34.266 -20.838 -18.724  0.00  0.00    -0.313 N 
ATOM     33  C   UNL     1      33.928 -19.982 -19.779  0.00  0.00    +0.263 C 
ATOM     34  H   UNL     1      35.202 -20.854 -18.421  0.00  0.00    +0.149 HD
ATOM     35  C   UNL     1      33.318 -21.699 -18.057  0.00  0.00    +0.128 C 
ENDBRANCH  28  33
ENDBRANCH  24  26
ENDBRANCH   2  24
TORSDOF 6
ENDMDL
MODEL 5
REMARK VINA RESULT:     -11.8      7.553     12.932
REMARK  Name = 25191001
REMARK  7 active torsions:
REMARK  status: ('A' for Active; 'I' for Inactive)
REMARK    1  A    between atoms: C_1  and  N_9
REMARK    2  A    between atoms: C_2  and  O_24
REMARK    3  A    between atoms: N_8  and  C_14
REMARK    4  A    between atoms: C_15  and  C_23
REMARK    5  A    between atoms: O_24  and  C_26
REMARK    6  A    between atoms: C_28  and  C_33
REMARK    7  A    between atoms: N_32  and  C_35
REMARK                            x       y       z     vdW  Elec       q    Type
REMARK                         _______ _______ _______ _____ _____    ______ ____
ROOT
ATOM      1  C   UNL     1      35.021 -15.739 -22.247  0.00  0.00    +0.052 C 
ATOM      2  C   UNL     1      35.928 -18.131 -21.133  0.00  0.00    +0.145 C 
ATOM      3  C   UNL     1      35.292 -16.833 -23.069  0.00  0.00    +0.018 C 
ATOM      4  C   UNL     1      35.204 -15.841 -20.868  0.00  0.00    +0.018 C 
ATOM      5  C   UNL     1      35.745 -18.029 -22.512  0.00  0.00    +0.039 C 
ATOM      6  C   UNL     1      35.658 -17.037 -20.310  0.00  0.00    +0.039 C 
ENDROOT
BRANCH   1   9
ATOM      7  O   UNL     1      34.864 -13.001 -21.064  0.00  0.00    -0.252 OA
ATOM      8  N   UNL     1      33.983 -12.312 -23.123  0.00  0.00    -0.268 N 
ATOM      9  N   UNL     1      34.563 -14.526 -22.812  0.00  0.00    -0.268 N 
ATOM     10  C   UNL     1      34.509 -13.258 -22.211  0.00  0.00    +0.308 C 
ATOM     11  H   UNL     1      33.741 -12.663 -24.011  0.00  0.00    +0.156 HD
ATOM     12  H   UNL     1      34.242 -14.577 -23.741  0.00  0.00    +0.156 HD
BRANCH   8  14
ATOM     13 CL   UNL     1      33.019  -6.540 -22.294  0.00  0.00    -0.082 Cl
ATOM     14  C   UNL     1      33.763 -10.947 -22.932  0.00  0.00    +0.052 C 
ATOM     15  C   UNL     1      34.397  -8.650 -23.329  0.00  0.00    +0.083 C 
ATOM     16  C   UNL     1      34.618 -10.014 -23.520  0.00  0.00    +0.019 C 
ATOM     17  C   UNL     1      32.689 -10.517 -22.154  0.00  0.00    +0.016 C 
ATOM     18  C   UNL     1      33.323  -8.219 -22.552  0.00  0.00    +0.062 C 
ATOM     19  C   UNL     1      32.468  -9.153 -21.963  0.00  0.00    +0.013 C 
BRANCH  15  23
ATOM     20  F   UNL     1      36.140  -8.252 -24.920  0.00  0.00    -0.166 F 
ATOM     21  F   UNL     1      34.702  -6.657 -24.616  0.00  0.00    -0.166 F 
ATOM     22  F   UNL     1      36.177  -7.094 -23.080  0.00  0.00    -0.166 F 
ATOM     23  C   UNL     1      35.335  -7.683 -23.976  0.00  0.00    +0.419 C 
ENDBRANCH  15  23
ENDBRANCH   8  14
ENDBRANCH   1   9
BRANCH   2  24
ATOM     24  O   UNL     1      36.373 -19.297 -20.589  0.00  0.00    -0.453 OA
BRANCH  24  26
ATOM     25  N   UNL     1      33.775 -21.366 -18.050  0.00  0.00    -0.239 NA
ATOM     26  C   UNL     1      35.513 -19.983 -19.748  0.00  0.00    +0.149 C 
ATOM     27  C   UNL     1      36.011 -20.663 -18.642  0.00  0.00    +0.061 C 
ATOM     28  C   UNL     1      35.110 -21.333 -17.831  0.00  0.00    +0.137 C 
ATOM     29  C   UNL     1      34.147 -19.994 -20.006  0.00  0.00    +0.058 C 
ATOM     30  C   UNL     1      33.327 -20.694 -19.135  0.00  0.00    +0.102 C 
BRANCH  28  33
ATOM     31  O   UNL     1      34.871 -22.953 -16.153  0.00  0.00    -0.269 OA
ATOM     32  N   UNL     1      36.839 -21.726 -16.165  0.00  0.00    -0.313 N 
ATOM     33  C   UNL     1      35.574 -22.060 -16.663  0.00  0.00    +0.263 C 
ATOM     34  H   UNL     1      37.342 -21.010 -16.616  0.00  0.00    +0.149 HD
ATOM     35  C   UNL     1      37.448 -22.374 -15.027  0.00  0.00    +0.128 C 
ENDBRANCH  28  33
ENDBRANCH  24  26
ENDBRANCH   2  24
TORSDOF 6
ENDMDL
MODEL 6
REMARK VINA RESULT:     -11.8      1.717      2.342
REMARK  Name = 25191001
REMARK  7 active torsions:
REMARK  status: ('A' for Active; 'I' for Inactive)
REMARK    1  A    between atoms: C_1  and  N_9
REMARK    2  A    between atoms: C_2  and  O_24
REMARK    3  A    between atoms: N_8  and  C_14
REMARK    4  A    between atoms: C_15  and  C_23
REMARK    5  A    between atoms: O_24  and  C_26
REMARK    6  A    between atoms: C_28  and  C_33
REMARK    7  A    between atoms: N_32  and  C_35
REMARK                            x       y       z     vdW  Elec       q    Type
REMARK                         _______ _______ _______ _____ _____    ______ ____
ROOT
ATOM      1  C   UNL     1      35.669 -20.162 -19.263  0.00  0.00    +0.052 C 
ATOM      2  C   UNL     1      35.671 -18.214 -21.262  0.00  0.00    +0.145 C 
ATOM      3  C   UNL     1      36.866 -19.554 -19.645  0.00  0.00    +0.018 C 
ATOM      4  C   UNL     1      34.474 -19.795 -19.881  0.00  0.00    +0.018 C 
ATOM      5  C   UNL     1      36.867 -18.581 -20.643  0.00  0.00    +0.039 C 
ATOM      6  C   UNL     1      34.474 -18.821 -20.881  0.00  0.00    +0.039 C 
ENDROOT
BRANCH   1   9
ATOM      7  O   UNL     1      37.260 -20.338 -16.741  0.00  0.00    -0.252 OA
ATOM      8  N   UNL     1      36.135 -22.353 -16.336  0.00  0.00    -0.268 N 
ATOM      9  N   UNL     1      35.669 -21.150 -18.252  0.00  0.00    -0.268 N 
ATOM     10  C   UNL     1      36.440 -21.187 -17.079  0.00  0.00    +0.308 C 
ATOM     11  H   UNL     1      35.455 -22.945 -16.731  0.00  0.00    +0.156 HD
ATOM     12  H   UNL     1      35.052 -21.905 -18.387  0.00  0.00    +0.156 HD
BRANCH   8  14
ATOM     13 CL   UNL     1      38.433 -24.140 -11.192  0.00  0.00    -0.082 Cl
ATOM     14  C   UNL     1      36.670 -22.773 -15.117  0.00  0.00    +0.052 C 
ATOM     15  C   UNL     1      36.390 -23.266 -12.769  0.00  0.00    +0.083 C 
ATOM     16  C   UNL     1      35.855 -22.845 -13.986  0.00  0.00    +0.019 C 
ATOM     17  C   UNL     1      38.017 -23.121 -15.030  0.00  0.00    +0.016 C 
ATOM     18  C   UNL     1      37.738 -23.615 -12.681  0.00  0.00    +0.062 C 
ATOM     19  C   UNL     1      38.552 -23.542 -13.813  0.00  0.00    +0.013 C 
BRANCH  15  23
ATOM     20  F   UNL     1      35.341 -24.588 -11.073  0.00  0.00    -0.166 F 
ATOM     21  F   UNL     1      35.910 -22.567 -10.532  0.00  0.00    -0.166 F 
ATOM     22  F   UNL     1      34.223 -22.899 -11.863  0.00  0.00    -0.166 F 
ATOM     23  C   UNL     1      35.485 -23.330 -11.581  0.00  0.00    +0.419 C 
ENDBRANCH  15  23
ENDBRANCH   8  14
ENDBRANCH   1   9
BRANCH   2  24
ATOM     24  O   UNL     1      35.672 -17.266 -22.238  0.00  0.00    -0.453 OA
BRANCH  24  26
ATOM     25  N   UNL     1      34.425 -13.413 -21.200  0.00  0.00    -0.239 NA
ATOM     26  C   UNL     1      35.260 -15.989 -21.895  0.00  0.00    +0.149 C 
ATOM     27  C   UNL     1      34.956 -15.063 -22.886  0.00  0.00    +0.061 C 
ATOM     28  C   UNL     1      34.547 -13.799 -22.491  0.00  0.00    +0.137 C 
ATOM     29  C   UNL     1      35.146 -15.630 -20.557  0.00  0.00    +0.058 C 
ATOM     30  C   UNL     1      34.729 -14.341 -20.264  0.00  0.00    +0.102 C 
BRANCH  28  33
ATOM     31  O   UNL     1      33.630 -13.108 -24.534  0.00  0.00    -0.269 OA
ATOM     32  N   UNL     1      34.564 -11.468 -23.187  0.00  0.00    -0.313 N 
ATOM     33  C   UNL     1      34.216 -12.791 -23.483  0.00  0.00    +0.263 C 
ATOM     34  H   UNL     1      35.027 -11.288 -22.337  0.00  0.00    +0.149 HD
ATOM     35  C   UNL     1      34.282 -10.352 -24.061  0.00  0.00    +0.128 C 
ENDBRANCH  28  33
ENDBRANCH  24  26
ENDBRANCH   2  24
TORSDOF 6
ENDMDL
MODEL 7
REMARK VINA RESULT:     -11.7      7.373     12.874
REMARK  Name = 25191001
REMARK  7 active torsions:
REMARK  status: ('A' for Active; 'I' for Inactive)
REMARK    1  A    between atoms: C_1  and  N_9
REMARK    2  A    between atoms: C_2  and  O_24
REMARK    3  A    between atoms: N_8  and  C_14
REMARK    4  A    between atoms: C_15  and  C_23
REMARK    5  A    between atoms: O_24  and  C_26
REMARK    6  A    between atoms: C_28  and  C_33
REMARK    7  A    between atoms: N_32  and  C_35
REMARK                            x       y       z     vdW  Elec       q    Type
REMARK                         _______ _______ _______ _____ _____    ______ ____
ROOT
ATOM      1  C   UNL     1      34.959 -15.921 -22.553  0.00  0.00    +0.052 C 
ATOM      2  C   UNL     1      35.677 -18.285 -21.257  0.00  0.00    +0.145 C 
ATOM      3  C   UNL     1      35.326 -15.895 -21.208  0.00  0.00    +0.018 C 
ATOM      4  C   UNL     1      34.951 -17.129 -23.251  0.00  0.00    +0.018 C 
ATOM      5  C   UNL     1      35.685 -17.077 -20.560  0.00  0.00    +0.039 C 
ATOM      6  C   UNL     1      35.310 -18.312 -22.603  0.00  0.00    +0.039 C 
ENDROOT
BRANCH   1   9
ATOM      7  O   UNL     1      34.972 -13.102 -21.565  0.00  0.00    -0.252 OA
ATOM      8  N   UNL     1      34.171 -12.502 -23.683  0.00  0.00    -0.268 N 
ATOM      9  N   UNL     1      34.593 -14.722 -23.210  0.00  0.00    -0.268 N 
ATOM     10  C   UNL     1      34.617 -13.415 -22.698  0.00  0.00    +0.308 C 
ATOM     11  H   UNL     1      33.918 -12.897 -24.549  0.00  0.00    +0.156 HD
ATOM     12  H   UNL     1      34.284 -14.816 -24.139  0.00  0.00    +0.156 HD
BRANCH   8  14
ATOM     13 CL   UNL     1      33.652  -6.625 -23.319  0.00  0.00    -0.082 Cl
ATOM     14  C   UNL     1      34.041 -11.115 -23.591  0.00  0.00    +0.052 C 
ATOM     15  C   UNL     1      32.981  -9.173 -22.623  0.00  0.00    +0.083 C 
ATOM     16  C   UNL     1      33.109 -10.559 -22.715  0.00  0.00    +0.019 C 
ATOM     17  C   UNL     1      34.844 -10.287 -24.375  0.00  0.00    +0.016 C 
ATOM     18  C   UNL     1      33.783  -8.343 -23.406  0.00  0.00    +0.062 C 
ATOM     19  C   UNL     1      34.715  -8.901 -24.283  0.00  0.00    +0.013 C 
BRANCH  15  23
ATOM     20  F   UNL     1      31.283  -9.573 -20.984  0.00  0.00    -0.166 F 
ATOM     21  F   UNL     1      32.514  -7.808 -20.714  0.00  0.00    -0.166 F 
ATOM     22  F   UNL     1      31.026  -7.860 -22.298  0.00  0.00    -0.166 F 
ATOM     23  C   UNL     1      31.971  -8.615 -21.671  0.00  0.00    +0.419 C 
ENDBRANCH  15  23
ENDBRANCH   8  14
ENDBRANCH   1   9
BRANCH   2  24
ATOM     24  O   UNL     1      36.025 -19.439 -20.625  0.00  0.00    -0.453 OA
BRANCH  24  26
ATOM     25  N   UNL     1      33.169 -21.236 -18.158  0.00  0.00    -0.239 NA
ATOM     26  C   UNL     1      35.080 -20.036 -19.808  0.00  0.00    +0.149 C 
ATOM     27  C   UNL     1      35.481 -20.826 -18.737  0.00  0.00    +0.061 C 
ATOM     28  C   UNL     1      34.496 -21.399 -17.948  0.00  0.00    +0.137 C 
ATOM     29  C   UNL     1      33.725 -19.844 -20.055  0.00  0.00    +0.058 C 
ATOM     30  C   UNL     1      32.818 -20.461 -19.209  0.00  0.00    +0.102 C 
BRANCH  28  33
ATOM     31  O   UNL     1      34.138 -23.195 -16.485  0.00  0.00    -0.269 OA
ATOM     32  N   UNL     1      36.045 -21.920 -16.145  0.00  0.00    -0.313 N 
ATOM     33  C   UNL     1      34.856 -22.234 -16.816  0.00  0.00    +0.263 C 
ATOM     34  H   UNL     1      36.565 -21.146 -16.459  0.00  0.00    +0.149 HD
ATOM     35  C   UNL     1      36.549 -22.670 -15.018  0.00  0.00    +0.128 C 
ENDBRANCH  28  33
ENDBRANCH  24  26
ENDBRANCH   2  24
TORSDOF 6
ENDMDL
MODEL 8
REMARK VINA RESULT:     -11.6      1.525      1.983
REMARK  Name = 25191001
REMARK  7 active torsions:
REMARK  status: ('A' for Active; 'I' for Inactive)
REMARK    1  A    between atoms: C_1  and  N_9
REMARK    2  A    between atoms: C_2  and  O_24
REMARK    3  A    between atoms: N_8  and  C_14
REMARK    4  A    between atoms: C_15  and  C_23
REMARK    5  A    between atoms: O_24  and  C_26
REMARK    6  A    between atoms: C_28  and  C_33
REMARK    7  A    between atoms: N_32  and  C_35
REMARK                            x       y       z     vdW  Elec       q    Type
REMARK                         _______ _______ _______ _____ _____    ______ ____
ROOT
ATOM      1  C   UNL     1      35.634 -20.311 -19.141  0.00  0.00    +0.052 C 
ATOM      2  C   UNL     1      36.268 -18.424 -21.096  0.00  0.00    +0.145 C 
ATOM      3  C   UNL     1      34.619 -19.713 -19.890  0.00  0.00    +0.018 C 
ATOM      4  C   UNL     1      36.965 -19.964 -19.370  0.00  0.00    +0.018 C 
ATOM      5  C   UNL     1      34.936 -18.770 -20.867  0.00  0.00    +0.039 C 
ATOM      6  C   UNL     1      37.283 -19.021 -20.348  0.00  0.00    +0.039 C 
ENDROOT
BRANCH   1   9
ATOM      7  O   UNL     1      36.781 -20.717 -16.414  0.00  0.00    -0.252 OA
ATOM      8  N   UNL     1      35.274 -22.497 -16.195  0.00  0.00    -0.268 N 
ATOM      9  N   UNL     1      35.312 -21.266 -18.149  0.00  0.00    -0.268 N 
ATOM     10  C   UNL     1      35.884 -21.416 -16.876  0.00  0.00    +0.308 C 
ATOM     11  H   UNL     1      34.566 -22.969 -16.691  0.00  0.00    +0.156 HD
ATOM     12  H   UNL     1      34.599 -21.904 -18.380  0.00  0.00    +0.156 HD
BRANCH   8  14
ATOM     13 CL   UNL     1      36.372 -24.547 -10.761  0.00  0.00    -0.082 Cl
ATOM     14  C   UNL     1      35.542 -22.983 -14.915  0.00  0.00    +0.052 C 
ATOM     15  C   UNL     1      37.093 -23.911 -13.311  0.00  0.00    +0.083 C 
ATOM     16  C   UNL     1      36.825 -23.425 -14.591  0.00  0.00    +0.019 C 
ATOM     17  C   UNL     1      34.527 -23.026 -13.959  0.00  0.00    +0.016 C 
ATOM     18  C   UNL     1      36.078 -23.954 -12.355  0.00  0.00    +0.062 C 
ATOM     19  C   UNL     1      34.795 -23.511 -12.679  0.00  0.00    +0.013 C 
BRANCH  15  23
ATOM     20  F   UNL     1      39.053 -23.719 -11.953  0.00  0.00    -0.166 F 
ATOM     21  F   UNL     1      38.551 -25.699 -12.682  0.00  0.00    -0.166 F 
ATOM     22  F   UNL     1      39.332 -24.203 -14.054  0.00  0.00    -0.166 F 
ATOM     23  C   UNL     1      38.480 -24.374 -13.003  0.00  0.00    +0.419 C 
ENDBRANCH  15  23
ENDBRANCH   8  14
ENDBRANCH   1   9
BRANCH   2  24
ATOM     24  O   UNL     1      36.578 -17.502 -22.048  0.00  0.00    -0.453 OA
BRANCH  24  26
ATOM     25  N   UNL     1      33.558 -16.358 -24.703  0.00  0.00    -0.239 NA
ATOM     26  C   UNL     1      35.577 -17.122 -22.927  0.00  0.00    +0.149 C 
ATOM     27  C   UNL     1      35.234 -15.781 -23.058  0.00  0.00    +0.061 C 
ATOM     28  C   UNL     1      34.227 -15.454 -23.952  0.00  0.00    +0.137 C 
ATOM     29  C   UNL     1      34.913 -18.082 -23.683  0.00  0.00    +0.058 C 
ATOM     30  C   UNL     1      33.919 -17.652 -24.548  0.00  0.00    +0.102 C 
BRANCH  28  33
ATOM     31  O   UNL     1      33.111 -13.737 -25.093  0.00  0.00    -0.269 OA
ATOM     32  N   UNL     1      34.259 -13.151 -23.165  0.00  0.00    -0.313 N 
ATOM     33  C   UNL     1      33.826 -14.069 -24.130  0.00  0.00    +0.263 C 
ATOM     34  H   UNL     1      34.822 -13.482 -22.429  0.00  0.00    +0.149 HD
ATOM     35  C   UNL     1      33.924 -11.746 -23.190  0.00  0.00    +0.128 C 
ENDBRANCH  28  33
ENDBRANCH  24  26
ENDBRANCH   2  24
TORSDOF 6
ENDMDL
MODEL 9
REMARK VINA RESULT:     -11.5      6.577     11.088
REMARK  Name = 25191001
REMARK  7 active torsions:
REMARK  status: ('A' for Active; 'I' for Inactive)
REMARK    1  A    between atoms: C_1  and  N_9
REMARK    2  A    between atoms: C_2  and  O_24
REMARK    3  A    between atoms: N_8  and  C_14
REMARK    4  A    between atoms: C_15  and  C_23
REMARK    5  A    between atoms: O_24  and  C_26
REMARK    6  A    between atoms: C_28  and  C_33
REMARK    7  A    between atoms: N_32  and  C_35
REMARK                            x       y       z     vdW  Elec       q    Type
REMARK                         _______ _______ _______ _____ _____    ______ ____
ROOT
ATOM      1  C   UNL     1      35.338 -21.295 -18.027  0.00  0.00    +0.052 C 
ATOM      2  C   UNL     1      34.590 -22.843 -15.829  0.00  0.00    +0.145 C 
ATOM      3  C   UNL     1      34.140 -22.009 -18.051  0.00  0.00    +0.018 C 
ATOM      4  C   UNL     1      36.163 -21.356 -16.903  0.00  0.00    +0.018 C 
ATOM      5  C   UNL     1      33.765 -22.782 -16.953  0.00  0.00    +0.039 C 
ATOM      6  C   UNL     1      35.789 -22.130 -15.804  0.00  0.00    +0.039 C 
ENDROOT
BRANCH   1   9
ATOM      7  O   UNL     1      33.701 -19.513 -19.777  0.00  0.00    -0.252 OA
ATOM      8  N   UNL     1      35.680 -19.079 -20.952  0.00  0.00    -0.268 N 
ATOM      9  N   UNL     1      35.718 -20.512 -19.142  0.00  0.00    -0.268 N 
ATOM     10  C   UNL     1      34.905 -19.687 -19.935  0.00  0.00    +0.308 C 
ATOM     11  H   UNL     1      36.637 -19.312 -20.957  0.00  0.00    +0.156 HD
ATOM     12  H   UNL     1      36.669 -20.551 -19.392  0.00  0.00    +0.156 HD
BRANCH   8  14
ATOM     13 CL   UNL     1      33.934 -15.355 -25.197  0.00  0.00    -0.082 Cl
ATOM     14  C   UNL     1      35.269 -18.193 -21.949  0.00  0.00    +0.052 C 
ATOM     15  C   UNL     1      34.785 -15.940 -22.675  0.00  0.00    +0.083 C 
ATOM     16  C   UNL     1      35.197 -16.826 -21.679  0.00  0.00    +0.019 C 
ATOM     17  C   UNL     1      34.930 -18.674 -23.213  0.00  0.00    +0.016 C 
ATOM     18  C   UNL     1      34.447 -16.421 -23.940  0.00  0.00    +0.062 C 
ATOM     19  C   UNL     1      34.518 -17.789 -24.209  0.00  0.00    +0.013 C 
BRANCH  15  23
ATOM     20  F   UNL     1      33.459 -13.969 -22.392  0.00  0.00    -0.166 F 
ATOM     21  F   UNL     1      35.186 -14.186 -21.099  0.00  0.00    -0.166 F 
ATOM     22  F   UNL     1      35.460 -13.723 -23.205  0.00  0.00    -0.166 F 
ATOM     23  C   UNL     1      34.722 -14.483 -22.348  0.00  0.00    +0.419 C 
ENDBRANCH  15  23
ENDBRANCH   8  14
ENDBRANCH   1   9
BRANCH   2  24
ATOM     24  O   UNL     1      34.226 -23.600 -14.758  0.00  0.00    -0.453 OA
BRANCH  24  26
ATOM     25  N   UNL     1      30.215 -23.513 -13.585  0.00  0.00    -0.239 NA
ATOM     26  C   UNL     1      32.898 -23.570 -14.370  0.00  0.00    +0.149 C 
ATOM     27  C   UNL     1      31.951 -22.936 -15.166  0.00  0.00    +0.061 C 
ATOM     28  C   UNL     1      30.635 -22.935 -14.734  0.00  0.00    +0.137 C 
ATOM     29  C   UNL     1      32.505 -24.177 -13.182  0.00  0.00    +0.058 C 
ATOM     30  C   UNL     1      31.164 -24.120 -12.837  0.00  0.00    +0.102 C 
BRANCH  28  33
ATOM     31  O   UNL     1      29.873 -21.803 -16.640  0.00  0.00    -0.269 OA
ATOM     32  N   UNL     1      28.310 -22.261 -14.989  0.00  0.00    -0.313 N 
ATOM     33  C   UNL     1      29.603 -22.288 -15.526  0.00  0.00    +0.263 C 
ATOM     34  H   UNL     1      28.167 -22.663 -14.102  0.00  0.00    +0.149 HD
ATOM     35  C   UNL     1      27.176 -21.676 -15.665  0.00  0.00    +0.128 C 
ENDBRANCH  28  33
ENDBRANCH  24  26
ENDBRANCH   2  24
TORSDOF 6
ENDMDL
