MODEL 1
REMARK VINA RESULT:     -12.4      0.000      0.000
REMARK  Name = 118598754
REMARK  1 active torsions:
REMARK  status: ('A' for Active; 'I' for Inactive)
REMARK    1  A    between atoms: C_15  and  N_19
REMARK                            x       y       z     vdW  Elec       q    Type
REMARK                         _______ _______ _______ _____ _____    ______ ____
ROOT
ATOM      1  O   UNL     1      32.409 -23.990 -12.663  0.00  0.00    -0.269 OA
ATOM      2  O   UNL     1      37.201 -22.527 -15.657  0.00  0.00    -0.268 OA
ATOM      3  N   UNL     1      35.293 -23.110 -14.467  0.00  0.00    -0.238 N 
ATOM      4  N   UNL     1      34.737 -24.014 -12.429  0.00  0.00    -0.288 N 
ATOM      5  C   UNL     1      35.903 -23.632 -13.218  0.00  0.00    +0.124 C 
ATOM      6  C   UNL     1      36.775 -24.873 -13.494  0.00  0.00    +0.038 C 
ATOM      7  C   UNL     1      36.697 -22.537 -12.480  0.00  0.00    +0.038 C 
ATOM      8  C   UNL     1      37.408 -23.067 -11.233  0.00  0.00    +0.003 C 
ATOM      9  C   UNL     1      37.486 -25.382 -12.240  0.00  0.00    +0.003 C 
ATOM     10  C   UNL     1      38.281 -24.276 -11.554  0.00  0.00    +0.000 C 
ATOM     11  C   UNL     1      33.913 -23.189 -14.391  0.00  0.00    +0.105 C 
ATOM     12  C   UNL     1      33.533 -23.772 -13.077  0.00  0.00    +0.260 C 
ATOM     13  C   UNL     1      35.977 -22.609 -15.567  0.00  0.00    +0.267 C 
ATOM     14  C   UNL     1      33.124 -22.781 -15.395  0.00  0.00    -0.002 C 
ATOM     15  C   UNL     1      35.108 -22.144 -16.707  0.00  0.00    +0.104 C 
ATOM     16  C   UNL     1      33.773 -22.245 -16.580  0.00  0.00    +0.016 C 
ATOM     17  C   UNL     1      31.626 -22.811 -15.441  0.00  0.00    +0.033 C 
ATOM     18  H   UNL     1      34.797 -24.404 -11.527  0.00  0.00    +0.151 HD
ENDROOT
BRANCH  15  19
ATOM     19  N   UNL     1      35.755 -21.648 -17.801  0.00  0.00    -0.298 N 
ATOM     20  N   UNL     1      33.956 -20.732 -19.036  0.00  0.00    -0.233 NA
ATOM     21  N   UNL     1      34.378 -18.976 -20.632  0.00  0.00    -0.234 NA
ATOM     22  C   UNL     1      35.277 -20.746 -18.759  0.00  0.00    +0.113 C 
ATOM     23  C   UNL     1      36.197 -19.919 -19.368  0.00  0.00    +0.121 C 
ATOM     24  C   UNL     1      35.685 -19.045 -20.306  0.00  0.00    +0.107 C 
ATOM     25  C   UNL     1      33.581 -19.835 -19.968  0.00  0.00    +0.252 C 
ATOM     26  H   UNL     1      36.678 -21.965 -17.933  0.00  0.00    +0.153 HD
ATOM     27  N   UNL     1      36.599 -18.180 -20.957  0.00  0.00    -0.346 N 
ATOM     28  H   UNL     1      36.276 -17.540 -21.633  0.00  0.00    +0.143 HD
ATOM     29  H   UNL     1      37.557 -18.216 -20.733  0.00  0.00    +0.143 HD
ENDBRANCH  15  19
TORSDOF 1
ENDMDL
MODEL 2
REMARK VINA RESULT:     -10.4      2.839      6.466
REMARK  Name = 118598754
REMARK  1 active torsions:
REMARK  status: ('A' for Active; 'I' for Inactive)
REMARK    1  A    between atoms: C_15  and  N_19
REMARK                            x       y       z     vdW  Elec       q    Type
REMARK                         _______ _______ _______ _____ _____    ______ ____
ROOT
ATOM      1  O   UNL     1      32.328 -21.036 -18.711  0.00  0.00    -0.269 OA
ATOM      2  O   UNL     1      34.440 -23.432 -13.825  0.00  0.00    -0.268 OA
ATOM      3  N   UNL     1      33.601 -22.479 -15.770  0.00  0.00    -0.238 N 
ATOM      4  N   UNL     1      31.566 -22.085 -16.763  0.00  0.00    -0.288 N 
ATOM      5  C   UNL     1      32.144 -22.673 -15.559  0.00  0.00    +0.124 C 
ATOM      6  C   UNL     1      31.781 -24.168 -15.483  0.00  0.00    +0.038 C 
ATOM      7  C   UNL     1      31.650 -21.907 -14.316  0.00  0.00    +0.038 C 
ATOM      8  C   UNL     1      30.169 -22.156 -14.024  0.00  0.00    +0.003 C 
ATOM      9  C   UNL     1      30.299 -24.398 -15.179  0.00  0.00    +0.003 C 
ATOM     10  C   UNL     1      29.856 -23.646 -13.929  0.00  0.00    +0.000 C 
ATOM     11  C   UNL     1      33.825 -21.843 -16.979  0.00  0.00    +0.105 C 
ATOM     12  C   UNL     1      32.519 -21.579 -17.638  0.00  0.00    +0.260 C 
ATOM     13  C   UNL     1      34.614 -22.868 -14.904  0.00  0.00    +0.267 C 
ATOM     14  C   UNL     1      35.062 -21.552 -17.407  0.00  0.00    -0.002 C 
ATOM     15  C   UNL     1      36.012 -22.550 -15.367  0.00  0.00    +0.104 C 
ATOM     16  C   UNL     1      36.172 -21.931 -16.549  0.00  0.00    +0.016 C 
ATOM     17  C   UNL     1      35.442 -20.870 -18.687  0.00  0.00    +0.033 C 
ATOM     18  H   UNL     1      30.598 -22.050 -16.939  0.00  0.00    +0.151 HD
ENDROOT
BRANCH  15  19
ATOM     19  N   UNL     1      37.028 -22.921 -14.534  0.00  0.00    -0.298 N 
ATOM     20  N   UNL     1      36.889 -25.281 -14.646  0.00  0.00    -0.233 NA
ATOM     21  N   UNL     1      38.831 -26.614 -14.137  0.00  0.00    -0.234 NA
ATOM     22  C   UNL     1      37.628 -24.178 -14.403  0.00  0.00    +0.113 C 
ATOM     23  C   UNL     1      38.955 -24.213 -14.027  0.00  0.00    +0.121 C 
ATOM     24  C   UNL     1      39.510 -25.471 -13.908  0.00  0.00    +0.107 C 
ATOM     25  C   UNL     1      37.543 -26.449 -14.497  0.00  0.00    +0.252 C 
ATOM     26  H   UNL     1      37.384 -22.213 -13.951  0.00  0.00    +0.153 HD
ATOM     27  N   UNL     1      40.870 -25.549 -13.521  0.00  0.00    -0.346 N 
ATOM     28  H   UNL     1      41.306 -26.427 -13.426  0.00  0.00    +0.143 HD
ATOM     29  H   UNL     1      41.382 -24.726 -13.350  0.00  0.00    +0.143 HD
ENDBRANCH  15  19
TORSDOF 1
ENDMDL
MODEL 3
REMARK VINA RESULT:     -10.4      2.737      5.116
REMARK  Name = 118598754
REMARK  1 active torsions:
REMARK  status: ('A' for Active; 'I' for Inactive)
REMARK    1  A    between atoms: C_15  and  N_19
REMARK                            x       y       z     vdW  Elec       q    Type
REMARK                         _______ _______ _______ _____ _____    ______ ____
ROOT
ATOM      1  O   UNL     1      38.534 -21.486 -15.904  0.00  0.00    -0.269 OA
ATOM      2  O   UNL     1      33.730 -24.210 -14.015  0.00  0.00    -0.268 OA
ATOM      3  N   UNL     1      35.640 -23.124 -14.767  0.00  0.00    -0.238 N 
ATOM      4  N   UNL     1      37.832 -22.847 -14.135  0.00  0.00    -0.288 N 
ATOM      5  C   UNL     1      36.605 -23.508 -13.705  0.00  0.00    +0.124 C 
ATOM      6  C   UNL     1      36.172 -22.963 -12.330  0.00  0.00    +0.038 C 
ATOM      7  C   UNL     1      36.820 -25.034 -13.666  0.00  0.00    +0.038 C 
ATOM      8  C   UNL     1      37.743 -25.467 -12.526  0.00  0.00    +0.003 C 
ATOM      9  C   UNL     1      37.100 -23.415 -11.201  0.00  0.00    +0.003 C 
ATOM     10  C   UNL     1      37.266 -24.931 -11.181  0.00  0.00    +0.000 C 
ATOM     11  C   UNL     1      36.264 -22.322 -15.708  0.00  0.00    +0.105 C 
ATOM     12  C   UNL     1      37.685 -22.131 -15.316  0.00  0.00    +0.260 C 
ATOM     13  C   UNL     1      34.304 -23.497 -14.836  0.00  0.00    +0.267 C 
ATOM     14  C   UNL     1      35.608 -21.838 -16.773  0.00  0.00    -0.002 C 
ATOM     15  C   UNL     1      33.549 -22.964 -16.026  0.00  0.00    +0.104 C 
ATOM     16  C   UNL     1      34.204 -22.189 -16.908  0.00  0.00    +0.016 C 
ATOM     17  C   UNL     1      36.161 -20.965 -17.858  0.00  0.00    +0.033 C 
ATOM     18  H   UNL     1      38.680 -22.902 -13.638  0.00  0.00    +0.151 HD
ENDROOT
BRANCH  15  19
ATOM     19  N   UNL     1      32.234 -23.315 -16.118  0.00  0.00    -0.298 N 
ATOM     20  N   UNL     1      31.283 -22.041 -14.366  0.00  0.00    -0.233 NA
ATOM     21  N   UNL     1      28.940 -21.479 -14.436  0.00  0.00    -0.234 NA
ATOM     22  C   UNL     1      31.124 -22.689 -15.539  0.00  0.00    +0.113 C 
ATOM     23  C   UNL     1      29.923 -22.775 -16.211  0.00  0.00    +0.121 C 
ATOM     24  C   UNL     1      28.854 -22.145 -15.607  0.00  0.00    +0.107 C 
ATOM     25  C   UNL     1      30.166 -21.466 -13.878  0.00  0.00    +0.252 C 
ATOM     26  H   UNL     1      32.040 -24.111 -16.664  0.00  0.00    +0.153 HD
ATOM     27  N   UNL     1      27.601 -22.213 -16.264  0.00  0.00    -0.346 N 
ATOM     28  H   UNL     1      26.812 -21.777 -15.868  0.00  0.00    +0.143 HD
ATOM     29  H   UNL     1      27.518 -22.695 -17.119  0.00  0.00    +0.143 HD
ENDBRANCH  15  19
TORSDOF 1
ENDMDL
MODEL 4
REMARK VINA RESULT:      -9.7     10.240     14.203
REMARK  Name = 118598754
REMARK  1 active torsions:
REMARK  status: ('A' for Active; 'I' for Inactive)
REMARK    1  A    between atoms: C_15  and  N_19
REMARK                            x       y       z     vdW  Elec       q    Type
REMARK                         _______ _______ _______ _____ _____    ______ ____
ROOT
ATOM      1  O   UNL     1      31.443  -9.180 -18.608  0.00  0.00    -0.269 OA
ATOM      2  O   UNL     1      33.496 -10.470 -23.917  0.00  0.00    -0.268 OA
ATOM      3  N   UNL     1      32.680  -9.958 -21.803  0.00  0.00    -0.238 N 
ATOM      4  N   UNL     1      32.037  -8.109 -20.601  0.00  0.00    -0.288 N 
ATOM      5  C   UNL     1      32.551  -8.483 -21.914  0.00  0.00    +0.124 C 
ATOM      6  C   UNL     1      33.920  -7.815 -22.148  0.00  0.00    +0.038 C 
ATOM      7  C   UNL     1      31.536  -8.088 -23.004  0.00  0.00    +0.038 C 
ATOM      8  C   UNL     1      31.445  -6.574 -23.200  0.00  0.00    +0.003 C 
ATOM      9  C   UNL     1      33.808  -6.303 -22.352  0.00  0.00    +0.003 C 
ATOM     10  C   UNL     1      32.815  -5.955 -23.456  0.00  0.00    +0.000 C 
ATOM     11  C   UNL     1      32.277 -10.378 -20.547  0.00  0.00    +0.105 C 
ATOM     12  C   UNL     1      31.856  -9.194 -19.753  0.00  0.00    +0.260 C 
ATOM     13  C   UNL     1      33.135 -10.819 -22.794  0.00  0.00    +0.267 C 
ATOM     14  C   UNL     1      32.299 -11.670 -20.191  0.00  0.00    -0.002 C 
ATOM     15  C   UNL     1      33.167 -12.276 -22.414  0.00  0.00    +0.104 C 
ATOM     16  C   UNL     1      32.764 -12.628 -21.180  0.00  0.00    +0.016 C 
ATOM     17  C   UNL     1      31.892 -12.255 -18.872  0.00  0.00    +0.033 C 
ATOM     18  H   UNL     1      31.837  -7.180 -20.342  0.00  0.00    +0.151 HD
ENDROOT
BRANCH  15  19
ATOM     19  N   UNL     1      33.610 -13.144 -23.370  0.00  0.00    -0.298 N 
ATOM     20  N   UNL     1      34.972 -14.596 -22.091  0.00  0.00    -0.233 NA
ATOM     21  N   UNL     1      35.409 -16.829 -22.887  0.00  0.00    -0.234 NA
ATOM     22  C   UNL     1      34.224 -14.389 -23.195  0.00  0.00    +0.113 C 
ATOM     23  C   UNL     1      34.026 -15.339 -24.176  0.00  0.00    +0.121 C 
ATOM     24  C   UNL     1      34.649 -16.553 -23.967  0.00  0.00    +0.107 C 
ATOM     25  C   UNL     1      35.527 -15.821 -22.002  0.00  0.00    +0.252 C 
ATOM     26  H   UNL     1      33.480 -12.857 -24.302  0.00  0.00    +0.153 HD
ATOM     27  N   UNL     1      34.471 -17.554 -24.953  0.00  0.00    -0.346 N 
ATOM     28  H   UNL     1      34.897 -18.435 -24.843  0.00  0.00    +0.143 HD
ATOM     29  H   UNL     1      33.920 -17.371 -25.748  0.00  0.00    +0.143 HD
ENDBRANCH  15  19
TORSDOF 1
ENDMDL
MODEL 5
REMARK VINA RESULT:      -9.6      6.334      9.786
REMARK  Name = 118598754
REMARK  1 active torsions:
REMARK  status: ('A' for Active; 'I' for Inactive)
REMARK    1  A    between atoms: C_15  and  N_19
REMARK                            x       y       z     vdW  Elec       q    Type
REMARK                         _______ _______ _______ _____ _____    ______ ____
ROOT
ATOM      1  O   UNL     1      35.066 -18.552 -24.665  0.00  0.00    -0.269 OA
ATOM      2  O   UNL     1      35.016 -15.809 -19.513  0.00  0.00    -0.268 OA
ATOM      3  N   UNL     1      35.037 -16.899 -21.564  0.00  0.00    -0.238 N 
ATOM      4  N   UNL     1      35.391 -19.012 -22.394  0.00  0.00    -0.288 N 
ATOM      5  C   UNL     1      35.367 -18.281 -21.132  0.00  0.00    +0.124 C 
ATOM      6  C   UNL     1      36.755 -18.344 -20.465  0.00  0.00    +0.038 C 
ATOM      7  C   UNL     1      34.272 -18.859 -20.214  0.00  0.00    +0.038 C 
ATOM      8  C   UNL     1      34.626 -20.250 -19.684  0.00  0.00    +0.003 C 
ATOM      9  C   UNL     1      37.087 -19.738 -19.932  0.00  0.00    +0.003 C 
ATOM     10  C   UNL     1      35.993 -20.264 -19.009  0.00  0.00    +0.000 C 
ATOM     11  C   UNL     1      34.888 -16.854 -22.940  0.00  0.00    +0.105 C 
ATOM     12  C   UNL     1      35.114 -18.214 -23.496  0.00  0.00    +0.260 C 
ATOM     13  C   UNL     1      34.891 -15.793 -20.736  0.00  0.00    +0.267 C 
ATOM     14  C   UNL     1      34.588 -15.716 -23.583  0.00  0.00    -0.002 C 
ATOM     15  C   UNL     1      34.554 -14.504 -21.440  0.00  0.00    +0.104 C 
ATOM     16  C   UNL     1      34.421 -14.517 -22.778  0.00  0.00    +0.016 C 
ATOM     17  C   UNL     1      34.401 -15.531 -25.059  0.00  0.00    +0.033 C 
ATOM     18  H   UNL     1      35.584 -19.975 -22.459  0.00  0.00    +0.151 HD
ENDROOT
BRANCH  15  19
ATOM     19  N   UNL     1      34.405 -13.401 -20.650  0.00  0.00    -0.298 N 
ATOM     20  N   UNL     1      32.620 -12.285 -21.730  0.00  0.00    -0.233 NA
ATOM     21  N   UNL     1      31.253 -10.739 -20.485  0.00  0.00    -0.234 NA
ATOM     22  C   UNL     1      33.335 -12.501 -20.605  0.00  0.00    +0.113 C 
ATOM     23  C   UNL     1      33.073 -11.882 -19.400  0.00  0.00    +0.121 C 
ATOM     24  C   UNL     1      32.010 -11.002 -19.399  0.00  0.00    +0.107 C 
ATOM     25  C   UNL     1      31.608 -11.405 -21.600  0.00  0.00    +0.252 C 
ATOM     26  H   UNL     1      35.148 -13.216 -20.030  0.00  0.00    +0.153 HD
ATOM     27  N   UNL     1      31.711 -10.344 -18.181  0.00  0.00    -0.346 N 
ATOM     28  H   UNL     1      30.960  -9.709 -18.135  0.00  0.00    +0.143 HD
ATOM     29  H   UNL     1      32.253 -10.524 -17.378  0.00  0.00    +0.143 HD
ENDBRANCH  15  19
TORSDOF 1
ENDMDL
MODEL 6
REMARK VINA RESULT:      -9.5     11.060     15.777
REMARK  Name = 118598754
REMARK  1 active torsions:
REMARK  status: ('A' for Active; 'I' for Inactive)
REMARK    1  A    between atoms: C_15  and  N_19
REMARK                            x       y       z     vdW  Elec       q    Type
REMARK                         _______ _______ _______ _____ _____    ______ ____
ROOT
ATOM      1  O   UNL     1      35.113  -6.271 -25.257  0.00  0.00    -0.269 OA
ATOM      2  O   UNL     1      32.762 -10.191 -21.627  0.00  0.00    -0.268 OA
ATOM      3  N   UNL     1      33.697  -8.632 -23.073  0.00  0.00    -0.238 N 
ATOM      4  N   UNL     1      33.691  -6.358 -23.401  0.00  0.00    -0.288 N 
ATOM      5  C   UNL     1      33.129  -7.376 -22.521  0.00  0.00    +0.124 C 
ATOM      6  C   UNL     1      31.591  -7.363 -22.624  0.00  0.00    +0.038 C 
ATOM      7  C   UNL     1      33.600  -7.134 -21.074  0.00  0.00    +0.038 C 
ATOM      8  C   UNL     1      32.963  -5.892 -20.449  0.00  0.00    +0.003 C 
ATOM      9  C   UNL     1      30.971  -6.119 -21.985  0.00  0.00    +0.003 C 
ATOM     10  C   UNL     1      31.441  -5.930 -20.546  0.00  0.00    +0.000 C 
ATOM     11  C   UNL     1      34.505  -8.350 -24.162  0.00  0.00    +0.105 C 
ATOM     12  C   UNL     1      34.514  -6.881 -24.390  0.00  0.00    +0.260 C 
ATOM     13  C   UNL     1      33.472  -9.916 -22.592  0.00  0.00    +0.267 C 
ATOM     14  C   UNL     1      35.138  -9.316 -24.843  0.00  0.00    -0.002 C 
ATOM     15  C   UNL     1      34.176 -11.016 -23.344  0.00  0.00    +0.104 C 
ATOM     16  C   UNL     1      34.947 -10.685 -24.394  0.00  0.00    +0.016 C 
ATOM     17  C   UNL     1      36.036  -9.147 -26.031  0.00  0.00    +0.033 C 
ATOM     18  H   UNL     1      33.507  -5.395 -23.304  0.00  0.00    +0.151 HD
ENDROOT
BRANCH  15  19
ATOM     19  N   UNL     1      33.971 -12.287 -22.892  0.00  0.00    -0.298 N 
ATOM     20  N   UNL     1      33.809 -13.488 -24.925  0.00  0.00    -0.233 NA
ATOM     21  N   UNL     1      34.288 -15.849 -24.956  0.00  0.00    -0.234 NA
ATOM     22  C   UNL     1      34.076 -13.489 -23.602  0.00  0.00    +0.113 C 
ATOM     23  C   UNL     1      34.449 -14.614 -22.896  0.00  0.00    +0.121 C 
ATOM     24  C   UNL     1      34.540 -15.778 -23.632  0.00  0.00    +0.107 C 
ATOM     25  C   UNL     1      33.933 -14.684 -25.531  0.00  0.00    +0.252 C 
ATOM     26  H   UNL     1      33.719 -12.369 -21.945  0.00  0.00    +0.153 HD
ATOM     27  N   UNL     1      34.917 -16.956 -22.943  0.00  0.00    -0.346 N 
ATOM     28  H   UNL     1      34.995 -17.809 -23.430  0.00  0.00    +0.143 HD
ATOM     29  H   UNL     1      35.104 -16.924 -21.977  0.00  0.00    +0.143 HD
ENDBRANCH  15  19
TORSDOF 1
ENDMDL
