MODEL 1
REMARK VINA RESULT:     -13.8      0.000      0.000
REMARK  Name = 24882195
REMARK  2 active torsions:
REMARK  status: ('A' for Active; 'I' for Inactive)
REMARK    1  A    between atoms: C_5  and  N_15
REMARK    2  A    between atoms: N_15  and  C_21
REMARK                            x       y       z     vdW  Elec       q    Type
REMARK                         _______ _______ _______ _____ _____    ______ ____
ROOT
ATOM      1  C   UNL     1      35.258 -21.704 -17.172  0.00  0.00    +0.001 C 
ATOM      2  C   UNL     1      33.912 -21.671 -17.597  0.00  0.00    +0.000 C 
ATOM      3  C   UNL     1      35.882 -20.236 -19.032  0.00  0.00    +0.000 C 
ATOM      4  C   UNL     1      34.535 -20.202 -19.457  0.00  0.00    +0.000 C 
ATOM      5  C   UNL     1      34.629 -23.163 -15.328  0.00  0.00    +0.049 C 
ATOM      6  C   UNL     1      36.225 -20.987 -17.896  0.00  0.00    +0.000 C 
ATOM      7  C   UNL     1      35.601 -22.456 -16.036  0.00  0.00    +0.015 C 
ATOM      8  C   UNL     1      33.567 -20.920 -18.734  0.00  0.00    +0.000 C 
ATOM      9  C   UNL     1      32.945 -22.388 -16.873  0.00  0.00    +0.001 C 
ATOM     10  C   UNL     1      33.302 -23.129 -15.746  0.00  0.00    +0.015 C 
ATOM     11  C   UNL     1      36.848 -19.519 -19.756  0.00  0.00    +0.000 C 
ATOM     12  C   UNL     1      34.192 -19.451 -20.593  0.00  0.00    +0.000 C 
ATOM     13  C   UNL     1      36.491 -18.778 -20.883  0.00  0.00    +0.000 C 
ATOM     14  C   UNL     1      35.165 -18.744 -21.301  0.00  0.00    +0.000 C 
ENDROOT
BRANCH   5  15
ATOM     15  N   UNL     1      34.991 -23.912 -14.189  0.00  0.00    -0.299 N 
ATOM     16  H   UNL     1      34.254 -24.383 -13.736  0.00  0.00    +0.153 HD
BRANCH  15  21
ATOM     17  N   UNL     1      36.316 -23.940 -12.244  0.00  0.00    -0.106 N 
ATOM     18  N   UNL     1      38.684 -24.353 -12.253  0.00  0.00    -0.340 NA
ATOM     19  N   UNL     1      35.340 -23.676 -11.336  0.00  0.00    -0.139 NA
ATOM     20  N   UNL     1      37.343 -23.914 -10.280  0.00  0.00    -0.145 NA
ATOM     21  C   UNL     1      36.213 -24.067 -13.635  0.00  0.00    +0.138 C 
ATOM     22  C   UNL     1      37.327 -24.334 -14.334  0.00  0.00    +0.061 C 
ATOM     23  C   UNL     1      37.534 -24.083 -11.574  0.00  0.00    +0.174 C 
ATOM     24  C   UNL     1      38.589 -24.472 -13.545  0.00  0.00    +0.125 C 
ATOM     25  C   UNL     1      39.849 -24.770 -14.317  0.00  0.00    +0.068 C 
ATOM     26  C   UNL     1      36.011 -23.674 -10.189  0.00  0.00    +0.230 C 
ENDBRANCH  15  21
ENDBRANCH   5  15
TORSDOF 2
ENDMDL
MODEL 2
REMARK VINA RESULT:     -13.4      1.291      2.202
REMARK  Name = 24882195
REMARK  2 active torsions:
REMARK  status: ('A' for Active; 'I' for Inactive)
REMARK    1  A    between atoms: C_5  and  N_15
REMARK    2  A    between atoms: N_15  and  C_21
REMARK                            x       y       z     vdW  Elec       q    Type
REMARK                         _______ _______ _______ _____ _____    ______ ____
ROOT
ATOM      1  C   UNL     1      35.202 -21.402 -17.625  0.00  0.00    +0.001 C 
ATOM      2  C   UNL     1      33.895 -21.278 -18.145  0.00  0.00    +0.000 C 
ATOM      3  C   UNL     1      36.045 -19.931 -19.395  0.00  0.00    +0.000 C 
ATOM      4  C   UNL     1      34.737 -19.807 -19.915  0.00  0.00    +0.000 C 
ATOM      5  C   UNL     1      34.355 -22.862 -15.872  0.00  0.00    +0.049 C 
ATOM      6  C   UNL     1      36.260 -20.727 -18.258  0.00  0.00    +0.000 C 
ATOM      7  C   UNL     1      35.416 -22.198 -16.489  0.00  0.00    +0.015 C 
ATOM      8  C   UNL     1      33.679 -20.482 -19.283  0.00  0.00    +0.000 C 
ATOM      9  C   UNL     1      32.837 -21.952 -17.512  0.00  0.00    +0.001 C 
ATOM     10  C   UNL     1      33.067 -22.739 -16.383  0.00  0.00    +0.015 C 
ATOM     11  C   UNL     1      37.101 -19.257 -20.028  0.00  0.00    +0.000 C 
ATOM     12  C   UNL     1      34.522 -19.011 -21.052  0.00  0.00    +0.000 C 
ATOM     13  C   UNL     1      36.872 -18.471 -21.157  0.00  0.00    +0.000 C 
ATOM     14  C   UNL     1      35.584 -18.347 -21.668  0.00  0.00    +0.000 C 
ENDROOT
BRANCH   5  15
ATOM     15  N   UNL     1      34.588 -23.657 -14.730  0.00  0.00    -0.299 N 
ATOM     16  H   UNL     1      33.824 -24.195 -14.421  0.00  0.00    +0.153 HD
BRANCH  15  21
ATOM     17  N   UNL     1      36.550 -24.874 -14.273  0.00  0.00    -0.106 N 
ATOM     18  N   UNL     1      38.155 -24.234 -12.601  0.00  0.00    -0.340 NA
ATOM     19  N   UNL     1      36.384 -25.867 -15.185  0.00  0.00    -0.139 NA
ATOM     20  N   UNL     1      38.321 -26.185 -14.032  0.00  0.00    -0.145 NA
ATOM     21  C   UNL     1      35.721 -23.777 -14.004  0.00  0.00    +0.138 C 
ATOM     22  C   UNL     1      36.097 -22.916 -13.046  0.00  0.00    +0.061 C 
ATOM     23  C   UNL     1      37.745 -25.089 -13.579  0.00  0.00    +0.174 C 
ATOM     24  C   UNL     1      37.385 -23.216 -12.351  0.00  0.00    +0.125 C 
ATOM     25  C   UNL     1      37.818 -22.257 -11.272  0.00  0.00    +0.068 C 
ATOM     26  C   UNL     1      37.466 -26.614 -14.994  0.00  0.00    +0.230 C 
ENDBRANCH  15  21
ENDBRANCH   5  15
TORSDOF 2
ENDMDL
MODEL 3
REMARK VINA RESULT:     -12.8      1.339      2.966
REMARK  Name = 24882195
REMARK  2 active torsions:
REMARK  status: ('A' for Active; 'I' for Inactive)
REMARK    1  A    between atoms: C_5  and  N_15
REMARK    2  A    between atoms: N_15  and  C_21
REMARK                            x       y       z     vdW  Elec       q    Type
REMARK                         _______ _______ _______ _____ _____    ______ ____
ROOT
ATOM      1  C   UNL     1      35.199 -21.276 -17.740  0.00  0.00    +0.001 C 
ATOM      2  C   UNL     1      36.537 -20.832 -17.656  0.00  0.00    +0.000 C 
ATOM      3  C   UNL     1      34.898 -19.980 -19.797  0.00  0.00    +0.000 C 
ATOM      4  C   UNL     1      36.236 -19.535 -19.713  0.00  0.00    +0.000 C 
ATOM      5  C   UNL     1      35.508 -22.561 -15.696  0.00  0.00    +0.049 C 
ATOM      6  C   UNL     1      34.397 -20.844 -18.810  0.00  0.00    +0.000 C 
ATOM      7  C   UNL     1      34.699 -22.140 -16.752  0.00  0.00    +0.015 C 
ATOM      8  C   UNL     1      37.039 -19.967 -18.643  0.00  0.00    +0.000 C 
ATOM      9  C   UNL     1      37.339 -21.265 -16.587  0.00  0.00    +0.001 C 
ATOM     10  C   UNL     1      36.827 -22.124 -15.613  0.00  0.00    +0.015 C 
ATOM     11  C   UNL     1      34.097 -19.546 -20.866  0.00  0.00    +0.000 C 
ATOM     12  C   UNL     1      36.737 -18.671 -20.701  0.00  0.00    +0.000 C 
ATOM     13  C   UNL     1      34.609 -18.687 -21.839  0.00  0.00    +0.000 C 
ATOM     14  C   UNL     1      35.927 -18.251 -21.757  0.00  0.00    +0.000 C 
ENDROOT
BRANCH   5  15
ATOM     15  N   UNL     1      34.990 -23.429 -14.713  0.00  0.00    -0.299 N 
ATOM     16  H   UNL     1      34.064 -23.732 -14.855  0.00  0.00    +0.153 HD
BRANCH  15  21
ATOM     17  N   UNL     1      36.544 -24.917 -13.760  0.00  0.00    -0.106 N 
ATOM     18  N   UNL     1      36.995 -25.042 -11.402  0.00  0.00    -0.340 NA
ATOM     19  N   UNL     1      36.964 -25.523 -14.902  0.00  0.00    -0.139 NA
ATOM     20  N   UNL     1      38.055 -26.402 -13.108  0.00  0.00    -0.145 NA
ATOM     21  C   UNL     1      35.595 -23.900 -13.601  0.00  0.00    +0.138 C 
ATOM     22  C   UNL     1      35.343 -23.454 -12.360  0.00  0.00    +0.061 C 
ATOM     23  C   UNL     1      37.228 -25.472 -12.674  0.00  0.00    +0.174 C 
ATOM     24  C   UNL     1      36.113 -24.098 -11.254  0.00  0.00    +0.125 C 
ATOM     25  C   UNL     1      35.839 -23.607  -9.855  0.00  0.00    +0.068 C 
ATOM     26  C   UNL     1      37.860 -26.393 -14.450  0.00  0.00    +0.230 C 
ENDBRANCH  15  21
ENDBRANCH   5  15
TORSDOF 2
ENDMDL
MODEL 4
REMARK VINA RESULT:     -12.4      6.066     10.354
REMARK  Name = 24882195
REMARK  2 active torsions:
REMARK  status: ('A' for Active; 'I' for Inactive)
REMARK    1  A    between atoms: C_5  and  N_15
REMARK    2  A    between atoms: N_15  and  C_21
REMARK                            x       y       z     vdW  Elec       q    Type
REMARK                         _______ _______ _______ _____ _____    ______ ____
ROOT
ATOM      1  C   UNL     1      34.680 -20.071 -19.549  0.00  0.00    +0.001 C 
ATOM      2  C   UNL     1      35.961 -20.296 -19.002  0.00  0.00    +0.000 C 
ATOM      3  C   UNL     1      33.689 -21.488 -17.813  0.00  0.00    +0.000 C 
ATOM      4  C   UNL     1      34.971 -21.714 -17.265  0.00  0.00    +0.000 C 
ATOM      5  C   UNL     1      35.673 -18.665 -21.270  0.00  0.00    +0.049 C 
ATOM      6  C   UNL     1      33.560 -20.670 -18.948  0.00  0.00    +0.000 C 
ATOM      7  C   UNL     1      34.552 -19.253 -20.684  0.00  0.00    +0.015 C 
ATOM      8  C   UNL     1      36.091 -21.115 -17.867  0.00  0.00    +0.000 C 
ATOM      9  C   UNL     1      37.081 -19.697 -19.603  0.00  0.00    +0.001 C 
ATOM     10  C   UNL     1      36.937 -18.887 -20.730  0.00  0.00    +0.015 C 
ATOM     11  C   UNL     1      32.570 -22.087 -17.212  0.00  0.00    +0.000 C 
ATOM     12  C   UNL     1      35.099 -22.532 -16.131  0.00  0.00    +0.000 C 
ATOM     13  C   UNL     1      32.714 -22.897 -16.086  0.00  0.00    +0.000 C 
ATOM     14  C   UNL     1      33.977 -23.119 -15.546  0.00  0.00    +0.000 C 
ENDROOT
BRANCH   5  15
ATOM     15  N   UNL     1      35.527 -17.846 -22.409  0.00  0.00    -0.299 N 
ATOM     16  H   UNL     1      35.751 -18.267 -23.270  0.00  0.00    +0.153 HD
BRANCH  15  21
ATOM     17  N   UNL     1      34.526 -16.127 -23.666  0.00  0.00    -0.106 N 
ATOM     18  N   UNL     1      34.193 -13.894 -22.840  0.00  0.00    -0.340 NA
ATOM     19  N   UNL     1      34.285 -16.830 -24.804  0.00  0.00    -0.139 NA
ATOM     20  N   UNL     1      33.559 -14.685 -25.044  0.00  0.00    -0.145 NA
ATOM     21  C   UNL     1      35.122 -16.559 -22.475  0.00  0.00    +0.138 C 
ATOM     22  C   UNL     1      35.256 -15.675 -21.474  0.00  0.00    +0.061 C 
ATOM     23  C   UNL     1      34.072 -14.816 -23.837  0.00  0.00    +0.174 C 
ATOM     24  C   UNL     1      34.746 -14.295 -21.734  0.00  0.00    +0.125 C 
ATOM     25  C   UNL     1      34.891 -13.291 -20.619  0.00  0.00    +0.068 C 
ATOM     26  C   UNL     1      33.709 -15.920 -25.584  0.00  0.00    +0.230 C 
ENDBRANCH  15  21
ENDBRANCH   5  15
TORSDOF 2
ENDMDL
MODEL 5
REMARK VINA RESULT:     -12.4      5.380      9.468
REMARK  Name = 24882195
REMARK  2 active torsions:
REMARK  status: ('A' for Active; 'I' for Inactive)
REMARK    1  A    between atoms: C_5  and  N_15
REMARK    2  A    between atoms: N_15  and  C_21
REMARK                            x       y       z     vdW  Elec       q    Type
REMARK                         _______ _______ _______ _____ _____    ______ ____
ROOT
ATOM      1  C   UNL     1      35.695 -20.367 -18.875  0.00  0.00    +0.001 C 
ATOM      2  C   UNL     1      34.331 -20.732 -18.881  0.00  0.00    +0.000 C 
ATOM      3  C   UNL     1      36.039 -21.689 -16.841  0.00  0.00    +0.000 C 
ATOM      4  C   UNL     1      34.675 -22.055 -16.846  0.00  0.00    +0.000 C 
ATOM      5  C   UNL     1      35.342 -19.057 -20.895  0.00  0.00    +0.049 C 
ATOM      6  C   UNL     1      36.531 -20.850 -17.854  0.00  0.00    +0.000 C 
ATOM      7  C   UNL     1      36.185 -19.528 -19.888  0.00  0.00    +0.015 C 
ATOM      8  C   UNL     1      33.838 -21.572 -17.867  0.00  0.00    +0.000 C 
ATOM      9  C   UNL     1      33.495 -20.250 -19.901  0.00  0.00    +0.001 C 
ATOM     10  C   UNL     1      33.998 -19.417 -20.902  0.00  0.00    +0.015 C 
ATOM     11  C   UNL     1      36.874 -22.172 -15.820  0.00  0.00    +0.000 C 
ATOM     12  C   UNL     1      34.183 -22.894 -15.833  0.00  0.00    +0.000 C 
ATOM     13  C   UNL     1      36.371 -23.004 -14.820  0.00  0.00    +0.000 C 
ATOM     14  C   UNL     1      35.027 -23.365 -14.827  0.00  0.00    +0.000 C 
ENDROOT
BRANCH   5  15
ATOM     15  N   UNL     1      35.852 -18.215 -21.906  0.00  0.00    -0.299 N 
ATOM     16  H   UNL     1      36.667 -18.534 -22.357  0.00  0.00    +0.153 HD
BRANCH  15  21
ATOM     17  N   UNL     1      35.165 -16.027 -21.379  0.00  0.00    -0.106 N 
ATOM     18  N   UNL     1      34.366 -14.453 -23.012  0.00  0.00    -0.340 NA
ATOM     19  N   UNL     1      35.382 -16.069 -20.038  0.00  0.00    -0.139 NA
ATOM     20  N   UNL     1      34.576 -14.025 -20.634  0.00  0.00    -0.145 NA
ATOM     21  C   UNL     1      35.371 -17.029 -22.336  0.00  0.00    +0.138 C 
ATOM     22  C   UNL     1      35.081 -16.754 -23.617  0.00  0.00    +0.061 C 
ATOM     23  C   UNL     1      34.671 -14.764 -21.721  0.00  0.00    +0.174 C 
ATOM     24  C   UNL     1      34.558 -15.383 -23.900  0.00  0.00    +0.125 C 
ATOM     25  C   UNL     1      34.227 -15.061 -25.335  0.00  0.00    +0.068 C 
ATOM     26  C   UNL     1      35.015 -14.852 -19.652  0.00  0.00    +0.230 C 
ENDBRANCH  15  21
ENDBRANCH   5  15
TORSDOF 2
ENDMDL
MODEL 6
REMARK VINA RESULT:     -12.4      1.590      2.753
REMARK  Name = 24882195
REMARK  2 active torsions:
REMARK  status: ('A' for Active; 'I' for Inactive)
REMARK    1  A    between atoms: C_5  and  N_15
REMARK    2  A    between atoms: N_15  and  C_21
REMARK                            x       y       z     vdW  Elec       q    Type
REMARK                         _______ _______ _______ _____ _____    ______ ____
ROOT
ATOM      1  C   UNL     1      36.064 -20.495 -18.489  0.00  0.00    +0.001 C 
ATOM      2  C   UNL     1      34.735 -20.754 -18.891  0.00  0.00    +0.000 C 
ATOM      3  C   UNL     1      36.353 -19.000 -20.409  0.00  0.00    +0.000 C 
ATOM      4  C   UNL     1      35.024 -19.259 -20.811  0.00  0.00    +0.000 C 
ATOM      5  C   UNL     1      35.767 -21.982 -16.585  0.00  0.00    +0.049 C 
ATOM      6  C   UNL     1      36.856 -19.622 -19.254  0.00  0.00    +0.000 C 
ATOM      7  C   UNL     1      36.566 -21.118 -17.335  0.00  0.00    +0.015 C 
ATOM      8  C   UNL     1      34.232 -20.133 -20.046  0.00  0.00    +0.000 C 
ATOM      9  C   UNL     1      33.944 -21.627 -18.126  0.00  0.00    +0.001 C 
ATOM     10  C   UNL     1      34.457 -22.237 -16.981  0.00  0.00    +0.015 C 
ATOM     11  C   UNL     1      37.144 -18.128 -21.174  0.00  0.00    +0.000 C 
ATOM     12  C   UNL     1      34.522 -18.637 -21.966  0.00  0.00    +0.000 C 
ATOM     13  C   UNL     1      36.631 -17.518 -22.319  0.00  0.00    +0.000 C 
ATOM     14  C   UNL     1      35.321 -17.772 -22.714  0.00  0.00    +0.000 C 
ENDROOT
BRANCH   5  15
ATOM     15  N   UNL     1      36.287 -22.598 -15.428  0.00  0.00    -0.299 N 
ATOM     16  H   UNL     1      37.248 -22.812 -15.452  0.00  0.00    +0.153 HD
BRANCH  15  21
ATOM     17  N   UNL     1      36.357 -22.856 -13.090  0.00  0.00    -0.106 N 
ATOM     18  N   UNL     1      34.485 -23.598 -11.775  0.00  0.00    -0.340 NA
ATOM     19  N   UNL     1      37.647 -22.477 -12.887  0.00  0.00    -0.139 NA
ATOM     20  N   UNL     1      36.673 -23.019 -10.902  0.00  0.00    -0.145 NA
ATOM     21  C   UNL     1      35.641 -22.936 -14.291  0.00  0.00    +0.138 C 
ATOM     22  C   UNL     1      34.362 -23.341 -14.243  0.00  0.00    +0.061 C 
ATOM     23  C   UNL     1      35.781 -23.182 -11.858  0.00  0.00    +0.174 C 
ATOM     24  C   UNL     1      33.820 -23.671 -12.890  0.00  0.00    +0.125 C 
ATOM     25  C   UNL     1      32.386 -24.129 -12.822  0.00  0.00    +0.068 C 
ATOM     26  C   UNL     1      37.775 -22.594 -11.570  0.00  0.00    +0.230 C 
ENDBRANCH  15  21
ENDBRANCH   5  15
TORSDOF 2
ENDMDL
MODEL 7
REMARK VINA RESULT:     -12.3      5.958     10.251
REMARK  Name = 24882195
REMARK  2 active torsions:
REMARK  status: ('A' for Active; 'I' for Inactive)
REMARK    1  A    between atoms: C_5  and  N_15
REMARK    2  A    between atoms: N_15  and  C_21
REMARK                            x       y       z     vdW  Elec       q    Type
REMARK                         _______ _______ _______ _____ _____    ______ ____
ROOT
ATOM      1  C   UNL     1      35.930 -19.964 -19.195  0.00  0.00    +0.001 C 
ATOM      2  C   UNL     1      34.585 -20.393 -19.160  0.00  0.00    +0.000 C 
ATOM      3  C   UNL     1      36.399 -21.270 -17.176  0.00  0.00    +0.000 C 
ATOM      4  C   UNL     1      35.054 -21.699 -17.140  0.00  0.00    +0.000 C 
ATOM      5  C   UNL     1      35.455 -18.670 -21.201  0.00  0.00    +0.049 C 
ATOM      6  C   UNL     1      36.819 -20.408 -18.202  0.00  0.00    +0.000 C 
ATOM      7  C   UNL     1      36.350 -19.102 -20.221  0.00  0.00    +0.015 C 
ATOM      8  C   UNL     1      34.164 -21.255 -18.133  0.00  0.00    +0.000 C 
ATOM      9  C   UNL     1      33.697 -19.949 -20.153  0.00  0.00    +0.001 C 
ATOM     10  C   UNL     1      34.129 -19.093 -21.167  0.00  0.00    +0.015 C 
ATOM     11  C   UNL     1      37.287 -21.714 -16.182  0.00  0.00    +0.000 C 
ATOM     12  C   UNL     1      34.634 -22.561 -16.113  0.00  0.00    +0.000 C 
ATOM     13  C   UNL     1      36.854 -22.569 -15.169  0.00  0.00    +0.000 C 
ATOM     14  C   UNL     1      35.530 -22.992 -15.135  0.00  0.00    +0.000 C 
ENDROOT
BRANCH   5  15
ATOM     15  N   UNL     1      35.893 -17.805 -22.225  0.00  0.00    -0.299 N 
ATOM     16  H   UNL     1      36.767 -18.022 -22.622  0.00  0.00    +0.153 HD
BRANCH  15  21
ATOM     17  N   UNL     1      34.440 -16.906 -23.844  0.00  0.00    -0.106 N 
ATOM     18  N   UNL     1      33.865 -14.575 -23.968  0.00  0.00    -0.340 NA
ATOM     19  N   UNL     1      34.152 -18.055 -24.510  0.00  0.00    -0.139 NA
ATOM     20  N   UNL     1      33.048 -16.304 -25.460  0.00  0.00    -0.145 NA
ATOM     21  C   UNL     1      35.273 -16.718 -22.733  0.00  0.00    +0.138 C 
ATOM     22  C   UNL     1      35.405 -15.477 -22.240  0.00  0.00    +0.061 C 
ATOM     23  C   UNL     1      33.752 -15.847 -24.443  0.00  0.00    +0.174 C 
ATOM     24  C   UNL     1      34.637 -14.400 -22.937  0.00  0.00    +0.125 C 
ATOM     25  C   UNL     1      34.778 -13.001 -22.395  0.00  0.00    +0.068 C 
ATOM     26  C   UNL     1      33.321 -17.633 -25.458  0.00  0.00    +0.230 C 
ENDBRANCH  15  21
ENDBRANCH   5  15
TORSDOF 2
ENDMDL
MODEL 8
REMARK VINA RESULT:     -12.1      2.715      4.800
REMARK  Name = 24882195
REMARK  2 active torsions:
REMARK  status: ('A' for Active; 'I' for Inactive)
REMARK    1  A    between atoms: C_5  and  N_15
REMARK    2  A    between atoms: N_15  and  C_21
REMARK                            x       y       z     vdW  Elec       q    Type
REMARK                         _______ _______ _______ _____ _____    ______ ____
ROOT
ATOM      1  C   UNL     1      34.452 -20.594 -19.320  0.00  0.00    +0.001 C 
ATOM      2  C   UNL     1      35.770 -20.376 -18.862  0.00  0.00    +0.000 C 
ATOM      3  C   UNL     1      34.808 -18.969 -21.118  0.00  0.00    +0.000 C 
ATOM      4  C   UNL     1      36.126 -18.750 -20.661  0.00  0.00    +0.000 C 
ATOM      5  C   UNL     1      34.108 -22.207 -17.530  0.00  0.00    +0.049 C 
ATOM      6  C   UNL     1      33.988 -19.887 -20.442  0.00  0.00    +0.000 C 
ATOM      7  C   UNL     1      33.633 -21.512 -18.643  0.00  0.00    +0.015 C 
ATOM      8  C   UNL     1      36.590 -19.457 -19.538  0.00  0.00    +0.000 C 
ATOM      9  C   UNL     1      36.234 -21.083 -17.740  0.00  0.00    +0.001 C 
ATOM     10  C   UNL     1      35.407 -21.993 -17.079  0.00  0.00    +0.015 C 
ATOM     11  C   UNL     1      34.345 -18.261 -22.239  0.00  0.00    +0.000 C 
ATOM     12  C   UNL     1      36.946 -17.832 -21.337  0.00  0.00    +0.000 C 
ATOM     13  C   UNL     1      35.171 -17.352 -22.901  0.00  0.00    +0.000 C 
ATOM     14  C   UNL     1      36.469 -17.138 -22.450  0.00  0.00    +0.000 C 
ENDROOT
BRANCH   5  15
ATOM     15  N   UNL     1      33.273 -23.126 -16.862  0.00  0.00    -0.299 N 
ATOM     16  H   UNL     1      33.331 -24.059 -17.170  0.00  0.00    +0.153 HD
BRANCH  15  21
ATOM     17  N   UNL     1      32.859 -23.082 -14.546  0.00  0.00    -0.106 N 
ATOM     18  N   UNL     1      30.742 -22.470 -13.583  0.00  0.00    -0.340 NA
ATOM     19  N   UNL     1      34.088 -23.471 -14.118  0.00  0.00    -0.139 NA
ATOM     20  N   UNL     1      32.719 -23.117 -12.334  0.00  0.00    -0.145 NA
ATOM     21  C   UNL     1      32.401 -22.896 -15.857  0.00  0.00    +0.138 C 
ATOM     22  C   UNL     1      31.130 -22.502 -16.036  0.00  0.00    +0.061 C 
ATOM     23  C   UNL     1      32.037 -22.869 -13.435  0.00  0.00    +0.174 C 
ATOM     24  C   UNL     1      30.317 -22.298 -14.800  0.00  0.00    +0.125 C 
ATOM     25  C   UNL     1      28.888 -21.857 -14.987  0.00  0.00    +0.068 C 
ATOM     26  C   UNL     1      33.943 -23.473 -12.797  0.00  0.00    +0.230 C 
ENDBRANCH  15  21
ENDBRANCH   5  15
TORSDOF 2
ENDMDL
MODEL 9
REMARK VINA RESULT:     -12.1      6.296     10.670
REMARK  Name = 24882195
REMARK  2 active torsions:
REMARK  status: ('A' for Active; 'I' for Inactive)
REMARK    1  A    between atoms: C_5  and  N_15
REMARK    2  A    between atoms: N_15  and  C_21
REMARK                            x       y       z     vdW  Elec       q    Type
REMARK                         _______ _______ _______ _____ _____    ______ ____
ROOT
ATOM      1  C   UNL     1      34.959 -19.532 -20.020  0.00  0.00    +0.001 C 
ATOM      2  C   UNL     1      36.220 -19.828 -19.459  0.00  0.00    +0.000 C 
ATOM      3  C   UNL     1      33.887 -21.023 -18.399  0.00  0.00    +0.000 C 
ATOM      4  C   UNL     1      35.148 -21.320 -17.837  0.00  0.00    +0.000 C 
ATOM      5  C   UNL     1      36.033 -18.052 -21.627  0.00  0.00    +0.049 C 
ATOM      6  C   UNL     1      33.809 -20.134 -19.483  0.00  0.00    +0.000 C 
ATOM      7  C   UNL     1      34.882 -18.643 -21.105  0.00  0.00    +0.015 C 
ATOM      8  C   UNL     1      36.299 -20.718 -18.374  0.00  0.00    +0.000 C 
ATOM      9  C   UNL     1      37.370 -19.226 -19.996  0.00  0.00    +0.001 C 
ATOM     10  C   UNL     1      37.276 -18.344 -21.073  0.00  0.00    +0.015 C 
ATOM     11  C   UNL     1      32.738 -21.626 -17.862  0.00  0.00    +0.000 C 
ATOM     12  C   UNL     1      35.226 -22.209 -16.753  0.00  0.00    +0.000 C 
ATOM     13  C   UNL     1      32.831 -22.507 -16.785  0.00  0.00    +0.000 C 
ATOM     14  C   UNL     1      34.074 -22.798 -16.231  0.00  0.00    +0.000 C 
ENDROOT
BRANCH   5  15
ATOM     15  N   UNL     1      35.938 -17.161 -22.716  0.00  0.00    -0.299 N 
ATOM     16  H   UNL     1      36.722 -16.585 -22.867  0.00  0.00    +0.153 HD
BRANCH  15  21
ATOM     17  N   UNL     1      34.535 -15.678 -23.887  0.00  0.00    -0.106 N 
ATOM     18  N   UNL     1      32.782 -16.393 -25.369  0.00  0.00    -0.340 NA
ATOM     19  N   UNL     1      35.062 -14.509 -23.436  0.00  0.00    -0.139 NA
ATOM     20  N   UNL     1      33.349 -14.087 -24.875  0.00  0.00    -0.145 NA
ATOM     21  C   UNL     1      34.912 -16.991 -23.579  0.00  0.00    +0.138 C 
ATOM     22  C   UNL     1      34.237 -17.998 -24.154  0.00  0.00    +0.061 C 
ATOM     23  C   UNL     1      33.487 -15.394 -24.769  0.00  0.00    +0.174 C 
ATOM     24  C   UNL     1      33.132 -17.612 -25.083  0.00  0.00    +0.125 C 
ATOM     25  C   UNL     1      32.365 -18.734 -25.735  0.00  0.00    +0.068 C 
ATOM     26  C   UNL     1      34.317 -13.602 -24.058  0.00  0.00    +0.230 C 
ENDBRANCH  15  21
ENDBRANCH   5  15
TORSDOF 2
ENDMDL
