MODEL 1
REMARK VINA RESULT:     -12.3      0.000      0.000
REMARK  Name = 44129603
REMARK  3 active torsions:
REMARK  status: ('A' for Active; 'I' for Inactive)
REMARK    1  A    between atoms: N_5  and  C_17
REMARK    2  A    between atoms: C_12  and  C_24
REMARK    3  A    between atoms: C_24  and  O_25
REMARK                            x       y       z     vdW  Elec       q    Type
REMARK                         _______ _______ _______ _____ _____    ______ ____
ROOT
ATOM      1  N   UNL     1      36.904 -22.283 -14.664  0.00  0.00    -0.246 N 
ATOM      2  N   UNL     1      37.873 -22.369 -13.730  0.00  0.00    -0.163 NA
ATOM      3  N   UNL     1      34.320 -22.187 -16.120  0.00  0.00    -0.336 NA
ATOM      4  N   UNL     1      32.008 -22.885 -16.158  0.00  0.00    -0.170 NA
ATOM      5  N   UNL     1      32.943 -21.698 -17.954  0.00  0.00    -0.247 N 
ATOM      6  C   UNL     1      34.729 -23.505 -12.049  0.00  0.00    +0.035 C 
ATOM      7  C   UNL     1      35.862 -23.046 -12.896  0.00  0.00    +0.024 A 
ATOM      8  C   UNL     1      33.578 -24.092 -12.911  0.00  0.00    +0.035 C 
ATOM      9  C   UNL     1      35.685 -22.684 -14.213  0.00  0.00    +0.106 A 
ATOM     10  C   UNL     1      33.371 -23.401 -14.242  0.00  0.00    +0.030 C 
ATOM     11  C   UNL     1      34.418 -22.756 -14.905  0.00  0.00    +0.158 C 
ATOM     12  C   UNL     1      37.228 -22.832 -12.651  0.00  0.00    +0.174 A 
ATOM     13  C   UNL     1      32.178 -23.441 -14.938  0.00  0.00    +0.110 C 
ATOM     14  C   UNL     1      37.249 -21.775 -15.972  0.00  0.00    +0.154 C 
ATOM     15  C   UNL     1      33.099 -22.287 -16.680  0.00  0.00    +0.149 C 
ATOM     16  H   UNL     1      32.036 -21.792 -18.326  0.00  0.00    +0.165 HD
ENDROOT
BRANCH   5  17
ATOM     17  C   UNL     1      33.829 -21.003 -18.797  0.00  0.00    +0.058 C 
ATOM     18  C   UNL     1      33.363 -19.950 -19.583  0.00  0.00    +0.015 C 
ATOM     19  C   UNL     1      35.175 -21.367 -18.845  0.00  0.00    +0.015 C 
ATOM     20  C   UNL     1      34.242 -19.259 -20.418  0.00  0.00    +0.001 C 
ATOM     21  C   UNL     1      36.055 -20.677 -19.681  0.00  0.00    +0.001 C 
ATOM     22  C   UNL     1      35.588 -19.624 -20.467  0.00  0.00    +0.000 C 
ENDBRANCH   5  17
BRANCH  12  24
ATOM     23  O   UNL     1      37.807 -24.025 -10.661  0.00  0.00    -0.243 OA
ATOM     24  C   UNL     1      37.952 -23.058 -11.433  0.00  0.00    +0.357 C 
BRANCH  24  25
ATOM     25  O   UNL     1      38.870 -22.079 -11.161  0.00  0.00    -0.476 OA
ATOM     26  H   UNL     1      38.642 -21.178 -11.279  0.00  0.00    +0.295 HD
ENDBRANCH  24  25
ENDBRANCH  12  24
TORSDOF 3
ENDMDL
MODEL 2
REMARK VINA RESULT:     -11.1      3.623      6.687
REMARK  Name = 44129603
REMARK  3 active torsions:
REMARK  status: ('A' for Active; 'I' for Inactive)
REMARK    1  A    between atoms: N_5  and  C_17
REMARK    2  A    between atoms: C_12  and  C_24
REMARK    3  A    between atoms: C_24  and  O_25
REMARK                            x       y       z     vdW  Elec       q    Type
REMARK                         _______ _______ _______ _____ _____    ______ ____
ROOT
ATOM      1  N   UNL     1      36.541 -21.175 -17.389  0.00  0.00    -0.246 N 
ATOM      2  N   UNL     1      36.748 -20.376 -18.455  0.00  0.00    -0.163 NA
ATOM      3  N   UNL     1      35.433 -23.078 -15.399  0.00  0.00    -0.336 NA
ATOM      4  N   UNL     1      33.439 -24.028 -14.421  0.00  0.00    -0.170 NA
ATOM      5  N   UNL     1      35.568 -24.555 -13.584  0.00  0.00    -0.247 N 
ATOM      6  C   UNL     1      33.127 -21.311 -18.567  0.00  0.00    +0.035 C 
ATOM      7  C   UNL     1      34.571 -21.041 -18.335  0.00  0.00    +0.024 A 
ATOM      8  C   UNL     1      32.405 -21.706 -17.250  0.00  0.00    +0.035 C 
ATOM      9  C   UNL     1      35.251 -21.593 -17.273  0.00  0.00    +0.106 A 
ATOM     10  C   UNL     1      33.242 -22.529 -16.294  0.00  0.00    +0.030 C 
ATOM     11  C   UNL     1      34.636 -22.432 -16.270  0.00  0.00    +0.158 C 
ATOM     12  C   UNL     1      35.541 -20.302 -19.031  0.00  0.00    +0.174 A 
ATOM     13  C   UNL     1      32.698 -23.346 -15.322  0.00  0.00    +0.110 C 
ATOM     14  C   UNL     1      37.666 -21.503 -16.543  0.00  0.00    +0.154 C 
ATOM     15  C   UNL     1      34.774 -23.851 -14.515  0.00  0.00    +0.149 C 
ATOM     16  H   UNL     1      35.047 -25.108 -12.958  0.00  0.00    +0.165 HD
ENDROOT
BRANCH   5  17
ATOM     17  C   UNL     1      36.958 -24.622 -13.375  0.00  0.00    +0.058 C 
ATOM     18  C   UNL     1      37.739 -25.480 -14.148  0.00  0.00    +0.015 C 
ATOM     19  C   UNL     1      37.554 -23.829 -12.394  0.00  0.00    +0.015 C 
ATOM     20  C   UNL     1      39.117 -25.546 -13.941  0.00  0.00    +0.001 C 
ATOM     21  C   UNL     1      38.932 -23.894 -12.187  0.00  0.00    +0.001 C 
ATOM     22  C   UNL     1      39.713 -24.753 -12.960  0.00  0.00    +0.000 C 
ENDBRANCH   5  17
BRANCH  12  24
ATOM     23  O   UNL     1      34.331 -19.446 -20.909  0.00  0.00    -0.243 OA
ATOM     24  C   UNL     1      35.367 -19.517 -20.220  0.00  0.00    +0.357 C 
BRANCH  24  25
ATOM     25  O   UNL     1      36.486 -18.808 -20.567  0.00  0.00    -0.476 OA
ATOM     26  H   UNL     1      36.443 -18.173 -21.255  0.00  0.00    +0.295 HD
ENDBRANCH  24  25
ENDBRANCH  12  24
TORSDOF 3
ENDMDL
MODEL 3
REMARK VINA RESULT:     -10.7      3.544      7.008
REMARK  Name = 44129603
REMARK  3 active torsions:
REMARK  status: ('A' for Active; 'I' for Inactive)
REMARK    1  A    between atoms: N_5  and  C_17
REMARK    2  A    between atoms: C_12  and  C_24
REMARK    3  A    between atoms: C_24  and  O_25
REMARK                            x       y       z     vdW  Elec       q    Type
REMARK                         _______ _______ _______ _____ _____    ______ ____
ROOT
ATOM      1  N   UNL     1      32.708 -23.392 -14.807  0.00  0.00    -0.246 N 
ATOM      2  N   UNL     1      31.365 -23.509 -14.765  0.00  0.00    -0.163 NA
ATOM      3  N   UNL     1      35.503 -22.581 -15.387  0.00  0.00    -0.336 NA
ATOM      4  N   UNL     1      37.017 -21.594 -16.988  0.00  0.00    -0.170 NA
ATOM      5  N   UNL     1      37.808 -22.491 -14.969  0.00  0.00    -0.247 N 
ATOM      6  C   UNL     1      32.109 -21.306 -17.697  0.00  0.00    +0.035 C 
ATOM      7  C   UNL     1      32.025 -22.206 -16.516  0.00  0.00    +0.024 A 
ATOM      8  C   UNL     1      33.490 -21.420 -18.400  0.00  0.00    +0.035 C 
ATOM      9  C   UNL     1      33.149 -22.628 -15.842  0.00  0.00    +0.106 A 
ATOM     10  C   UNL     1      34.658 -21.644 -17.463  0.00  0.00    +0.030 C 
ATOM     11  C   UNL     1      34.498 -22.286 -16.232  0.00  0.00    +0.158 C 
ATOM     12  C   UNL     1      30.954 -22.778 -15.810  0.00  0.00    +0.174 A 
ATOM     13  C   UNL     1      35.962 -21.331 -17.791  0.00  0.00    +0.110 C 
ATOM     14  C   UNL     1      33.489 -24.044 -13.781  0.00  0.00    +0.154 C 
ATOM     15  C   UNL     1      36.721 -22.209 -15.824  0.00  0.00    +0.149 C 
ATOM     16  H   UNL     1      38.678 -22.201 -15.326  0.00  0.00    +0.165 HD
ENDROOT
BRANCH   5  17
ATOM     17  C   UNL     1      37.892 -23.106 -13.706  0.00  0.00    +0.058 C 
ATOM     18  C   UNL     1      37.470 -22.421 -12.567  0.00  0.00    +0.015 C 
ATOM     19  C   UNL     1      38.397 -24.401 -13.594  0.00  0.00    +0.015 C 
ATOM     20  C   UNL     1      37.552 -23.031 -11.315  0.00  0.00    +0.001 C 
ATOM     21  C   UNL     1      38.479 -25.012 -12.342  0.00  0.00    +0.001 C 
ATOM     22  C   UNL     1      38.057 -24.326 -11.203  0.00  0.00    +0.000 C 
ENDBRANCH   5  17
BRANCH  12  24
ATOM     23  O   UNL     1      28.960 -21.642 -16.484  0.00  0.00    -0.243 OA
ATOM     24  C   UNL     1      29.551 -22.666 -16.092  0.00  0.00    +0.357 C 
BRANCH  24  25
ATOM     25  O   UNL     1      28.865 -23.834 -15.888  0.00  0.00    -0.476 OA
ATOM     26  H   UNL     1      27.929 -23.826 -15.852  0.00  0.00    +0.295 HD
ENDBRANCH  24  25
ENDBRANCH  12  24
TORSDOF 3
ENDMDL
MODEL 4
REMARK VINA RESULT:     -10.0      3.280      6.226
REMARK  Name = 44129603
REMARK  3 active torsions:
REMARK  status: ('A' for Active; 'I' for Inactive)
REMARK    1  A    between atoms: N_5  and  C_17
REMARK    2  A    between atoms: C_12  and  C_24
REMARK    3  A    between atoms: C_24  and  O_25
REMARK                            x       y       z     vdW  Elec       q    Type
REMARK                         _______ _______ _______ _____ _____    ______ ____
ROOT
ATOM      1  N   UNL     1      34.310 -21.694 -17.622  0.00  0.00    -0.246 N 
ATOM      2  N   UNL     1      34.795 -21.090 -18.726  0.00  0.00    -0.163 NA
ATOM      3  N   UNL     1      33.880 -22.755 -14.884  0.00  0.00    -0.336 NA
ATOM      4  N   UNL     1      34.914 -23.506 -12.835  0.00  0.00    -0.170 NA
ATOM      5  N   UNL     1      32.591 -23.652 -13.143  0.00  0.00    -0.247 N 
ATOM      6  C   UNL     1      37.621 -21.159 -16.275  0.00  0.00    +0.035 C 
ATOM      7  C   UNL     1      36.391 -21.249 -17.106  0.00  0.00    +0.024 A 
ATOM      8  C   UNL     1      37.640 -22.251 -15.171  0.00  0.00    +0.035 C 
ATOM      9  C   UNL     1      35.231 -21.818 -16.629  0.00  0.00    +0.106 A 
ATOM     10  C   UNL     1      36.284 -22.578 -14.583  0.00  0.00    +0.030 C 
ATOM     11  C   UNL     1      35.107 -22.415 -15.319  0.00  0.00    +0.158 C 
ATOM     12  C   UNL     1      36.065 -20.816 -18.402  0.00  0.00    +0.174 A 
ATOM     13  C   UNL     1      36.117 -23.147 -13.336  0.00  0.00    +0.110 C 
ATOM     14  C   UNL     1      32.924 -22.103 -17.612  0.00  0.00    +0.154 C 
ATOM     15  C   UNL     1      33.858 -23.286 -13.647  0.00  0.00    +0.149 C 
ATOM     16  H   UNL     1      32.621 -24.034 -12.236  0.00  0.00    +0.165 HD
ENDROOT
BRANCH   5  17
ATOM     17  C   UNL     1      31.294 -23.578 -13.682  0.00  0.00    +0.058 C 
ATOM     18  C   UNL     1      30.781 -22.350 -14.098  0.00  0.00    +0.015 C 
ATOM     19  C   UNL     1      30.521 -24.733 -13.800  0.00  0.00    +0.015 C 
ATOM     20  C   UNL     1      29.494 -22.277 -14.634  0.00  0.00    +0.001 C 
ATOM     21  C   UNL     1      29.235 -24.660 -14.336  0.00  0.00    +0.001 C 
ATOM     22  C   UNL     1      28.722 -23.432 -14.752  0.00  0.00    +0.000 C 
ENDBRANCH   5  17
BRANCH  12  24
ATOM     23  O   UNL     1      37.746 -20.713 -20.101  0.00  0.00    -0.243 OA
ATOM     24  C   UNL     1      36.916 -20.160 -19.353  0.00  0.00    +0.357 C 
BRANCH  24  25
ATOM     25  O   UNL     1      36.744 -18.802 -19.385  0.00  0.00    -0.476 OA
ATOM     26  H   UNL     1      35.886 -18.436 -19.285  0.00  0.00    +0.295 HD
ENDBRANCH  24  25
ENDBRANCH  12  24
TORSDOF 3
ENDMDL
MODEL 5
REMARK VINA RESULT:      -9.8      2.583      4.434
REMARK  Name = 44129603
REMARK  3 active torsions:
REMARK  status: ('A' for Active; 'I' for Inactive)
REMARK    1  A    between atoms: N_5  and  C_17
REMARK    2  A    between atoms: C_12  and  C_24
REMARK    3  A    between atoms: C_24  and  O_25
REMARK                            x       y       z     vdW  Elec       q    Type
REMARK                         _______ _______ _______ _____ _____    ______ ____
ROOT
ATOM      1  N   UNL     1      32.494 -22.436 -16.059  0.00  0.00    -0.246 N 
ATOM      2  N   UNL     1      31.392 -23.030 -15.561  0.00  0.00    -0.163 NA
ATOM      3  N   UNL     1      35.274 -21.654 -16.744  0.00  0.00    -0.336 NA
ATOM      4  N   UNL     1      37.584 -21.620 -16.039  0.00  0.00    -0.170 NA
ATOM      5  N   UNL     1      36.910 -20.569 -18.026  0.00  0.00    -0.247 N 
ATOM      6  C   UNL     1      34.260 -24.351 -13.554  0.00  0.00    +0.035 C 
ATOM      7  C   UNL     1      33.264 -23.697 -14.443  0.00  0.00    +0.024 A 
ATOM      8  C   UNL     1      35.553 -23.499 -13.429  0.00  0.00    +0.035 C 
ATOM      9  C   UNL     1      33.638 -22.799 -15.418  0.00  0.00    +0.106 A 
ATOM     10  C   UNL     1      35.949 -22.763 -14.691  0.00  0.00    +0.030 C 
ATOM     11  C   UNL     1      35.000 -22.373 -15.640  0.00  0.00    +0.158 C 
ATOM     12  C   UNL     1      31.869 -23.803 -14.576  0.00  0.00    +0.174 A 
ATOM     13  C   UNL     1      37.238 -22.339 -14.947  0.00  0.00    +0.110 C 
ATOM     14  C   UNL     1      32.347 -21.539 -17.183  0.00  0.00    +0.154 C 
ATOM     15  C   UNL     1      36.571 -21.318 -16.879  0.00  0.00    +0.149 C 
ATOM     16  H   UNL     1      37.867 -20.347 -18.086  0.00  0.00    +0.165 HD
ENDROOT
BRANCH   5  17
ATOM     17  C   UNL     1      36.148 -20.078 -19.102  0.00  0.00    +0.058 C 
ATOM     18  C   UNL     1      34.814 -20.459 -19.244  0.00  0.00    +0.015 C 
ATOM     19  C   UNL     1      36.728 -19.209 -20.027  0.00  0.00    +0.015 C 
ATOM     20  C   UNL     1      34.059 -19.970 -20.311  0.00  0.00    +0.001 C 
ATOM     21  C   UNL     1      35.972 -18.721 -21.094  0.00  0.00    +0.001 C 
ATOM     22  C   UNL     1      34.639 -19.102 -21.235  0.00  0.00    +0.000 C 
ENDBRANCH   5  17
BRANCH  12  24
ATOM     23  O   UNL     1      30.151 -25.433 -14.244  0.00  0.00    -0.243 OA
ATOM     24  C   UNL     1      30.967 -24.603 -13.799  0.00  0.00    +0.357 C 
BRANCH  24  25
ATOM     25  O   UNL     1      31.071 -24.380 -12.452  0.00  0.00    -0.476 OA
ATOM     26  H   UNL     1      31.279 -23.523 -12.134  0.00  0.00    +0.295 HD
ENDBRANCH  24  25
ENDBRANCH  12  24
TORSDOF 3
ENDMDL
MODEL 6
REMARK VINA RESULT:      -9.8     10.385     13.401
REMARK  Name = 44129603
REMARK  3 active torsions:
REMARK  status: ('A' for Active; 'I' for Inactive)
REMARK    1  A    between atoms: N_5  and  C_17
REMARK    2  A    between atoms: C_12  and  C_24
REMARK    3  A    between atoms: C_24  and  O_25
REMARK                            x       y       z     vdW  Elec       q    Type
REMARK                         _______ _______ _______ _____ _____    ______ ____
ROOT
ATOM      1  N   UNL     1      34.161 -12.421 -22.883  0.00  0.00    -0.246 N 
ATOM      2  N   UNL     1      34.844 -13.518 -23.268  0.00  0.00    -0.163 NA
ATOM      3  N   UNL     1      32.672 -10.353 -21.363  0.00  0.00    -0.336 NA
ATOM      4  N   UNL     1      31.236  -9.890 -19.476  0.00  0.00    -0.170 NA
ATOM      5  N   UNL     1      31.785  -8.209 -21.021  0.00  0.00    -0.247 N 
ATOM      6  C   UNL     1      33.482 -14.302 -19.872  0.00  0.00    +0.035 C 
ATOM      7  C   UNL     1      33.910 -13.809 -21.209  0.00  0.00    +0.024 A 
ATOM      8  C   UNL     1      32.208 -13.565 -19.378  0.00  0.00    +0.035 C 
ATOM      9  C   UNL     1      33.579 -12.552 -21.660  0.00  0.00    +0.106 A 
ATOM     10  C   UNL     1      32.131 -12.105 -19.769  0.00  0.00    +0.030 C 
ATOM     11  C   UNL     1      32.760 -11.620 -20.919  0.00  0.00    +0.158 C 
ATOM     12  C   UNL     1      34.691 -14.361 -22.238  0.00  0.00    +0.174 A 
ATOM     13  C   UNL     1      31.364 -11.179 -19.090  0.00  0.00    +0.110 C 
ATOM     14  C   UNL     1      34.144 -11.275 -23.762  0.00  0.00    +0.154 C 
ATOM     15  C   UNL     1      31.904  -9.552 -20.600  0.00  0.00    +0.149 C 
ATOM     16  H   UNL     1      31.217  -7.659 -20.434  0.00  0.00    +0.165 HD
ENDROOT
BRANCH   5  17
ATOM     17  C   UNL     1      32.320  -7.503 -22.113  0.00  0.00    +0.058 C 
ATOM     18  C   UNL     1      33.659  -7.670 -22.464  0.00  0.00    +0.015 C 
ATOM     19  C   UNL     1      31.509  -6.636 -22.846  0.00  0.00    +0.015 C 
ATOM     20  C   UNL     1      34.189  -6.970 -23.549  0.00  0.00    +0.001 C 
ATOM     21  C   UNL     1      32.039  -5.935 -23.931  0.00  0.00    +0.001 C 
ATOM     22  C   UNL     1      33.379  -6.102 -24.281  0.00  0.00    +0.000 C 
ENDBRANCH   5  17
BRANCH  12  24
ATOM     23  O   UNL     1      35.500 -16.415 -21.318  0.00  0.00    -0.243 OA
ATOM     24  C   UNL     1      35.291 -15.663 -22.289  0.00  0.00    +0.357 C 
BRANCH  24  25
ATOM     25  O   UNL     1      35.641 -16.046 -23.556  0.00  0.00    -0.476 OA
ATOM     26  H   UNL     1      34.987 -16.105 -24.226  0.00  0.00    +0.295 HD
ENDBRANCH  24  25
ENDBRANCH  12  24
TORSDOF 3
ENDMDL
MODEL 7
REMARK VINA RESULT:      -9.3     11.079     13.999
REMARK  Name = 44129603
REMARK  3 active torsions:
REMARK  status: ('A' for Active; 'I' for Inactive)
REMARK    1  A    between atoms: N_5  and  C_17
REMARK    2  A    between atoms: C_12  and  C_24
REMARK    3  A    between atoms: C_24  and  O_25
REMARK                            x       y       z     vdW  Elec       q    Type
REMARK                         _______ _______ _______ _____ _____    ______ ____
ROOT
ATOM      1  N   UNL     1      33.595 -11.793 -23.342  0.00  0.00    -0.246 N 
ATOM      2  N   UNL     1      34.199 -12.809 -23.992  0.00  0.00    -0.163 NA
ATOM      3  N   UNL     1      32.428  -9.977 -21.306  0.00  0.00    -0.336 NA
ATOM      4  N   UNL     1      31.416  -9.795 -19.120  0.00  0.00    -0.170 NA
ATOM      5  N   UNL     1      31.600  -7.926 -20.529  0.00  0.00    -0.247 N 
ATOM      6  C   UNL     1      33.598 -14.036 -20.508  0.00  0.00    +0.035 C 
ATOM      7  C   UNL     1      33.726 -13.375 -21.834  0.00  0.00    +0.024 A 
ATOM      8  C   UNL     1      32.445 -13.414 -19.674  0.00  0.00    +0.035 C 
ATOM      9  C   UNL     1      33.287 -12.088 -22.050  0.00  0.00    +0.106 A 
ATOM     10  C   UNL     1      32.264 -11.923 -19.860  0.00  0.00    +0.030 C 
ATOM     11  C   UNL     1      32.628 -11.283 -21.048  0.00  0.00    +0.158 C 
ATOM     12  C   UNL     1      34.280 -13.771 -23.063  0.00  0.00    +0.174 A 
ATOM     13  C   UNL     1      31.643 -11.113 -18.929  0.00  0.00    +0.110 C 
ATOM     14  C   UNL     1      33.374 -10.555 -24.053  0.00  0.00    +0.154 C 
ATOM     15  C   UNL     1      31.826  -9.302 -20.308  0.00  0.00    +0.149 C 
ATOM     16  H   UNL     1      31.160  -7.471 -19.774  0.00  0.00    +0.165 HD
ENDROOT
BRANCH   5  17
ATOM     17  C   UNL     1      31.880  -7.077 -21.615  0.00  0.00    +0.058 C 
ATOM     18  C   UNL     1      31.595  -7.490 -22.915  0.00  0.00    +0.015 C 
ATOM     19  C   UNL     1      32.444  -5.821 -21.389  0.00  0.00    +0.015 C 
ATOM     20  C   UNL     1      31.872  -6.646 -23.992  0.00  0.00    +0.001 C 
ATOM     21  C   UNL     1      32.721  -4.977 -22.466  0.00  0.00    +0.001 C 
ATOM     22  C   UNL     1      32.435  -5.390 -23.766  0.00  0.00    +0.000 C 
ENDBRANCH   5  17
BRANCH  12  24
ATOM     23  O   UNL     1      34.427 -15.868 -24.204  0.00  0.00    -0.243 OA
ATOM     24  C   UNL     1      34.877 -15.032 -23.396  0.00  0.00    +0.357 C 
BRANCH  24  25
ATOM     25  O   UNL     1      36.046 -15.270 -22.725  0.00  0.00    -0.476 OA
ATOM     26  H   UNL     1      36.372 -16.146 -22.647  0.00  0.00    +0.295 HD
ENDBRANCH  24  25
ENDBRANCH  12  24
TORSDOF 3
ENDMDL
