MODEL 1
REMARK VINA RESULT:     -11.7      0.000      0.000
REMARK  Name = 16719221
REMARK  6 active torsions:
REMARK  status: ('A' for Active; 'I' for Inactive)
REMARK    1  A    between atoms: C_3  and  C_20
REMARK    2  A    between atoms: C_11  and  O_13
REMARK    3  A    between atoms: O_13  and  C_16
REMARK    4  A    between atoms: C_20  and  C_24
REMARK    5  A    between atoms: N_22  and  S_30
REMARK    6  A    between atoms: S_30  and  N_33
REMARK                            x       y       z     vdW  Elec       q    Type
REMARK                         _______ _______ _______ _____ _____    ______ ____
ROOT
ATOM      1  O   UNL     1      33.635 -20.909 -18.661  0.00  0.00    -0.421 OA
ATOM      2  O   UNL     1      32.735 -20.002 -20.537  0.00  0.00    -0.245 OA
ATOM      3  C   UNL     1      35.094 -19.780 -20.286  0.00  0.00    +0.054 A 
ATOM      4  C   UNL     1      36.179 -20.003 -19.515  0.00  0.00    -0.016 A 
ATOM      5  C   UNL     1      36.029 -20.753 -18.251  0.00  0.00    +0.031 A 
ATOM      6  C   UNL     1      34.760 -21.178 -17.867  0.00  0.00    +0.151 A 
ATOM      7  C   UNL     1      33.735 -20.228 -19.863  0.00  0.00    +0.342 A 
ATOM      8  C   UNL     1      37.565 -19.515 -19.857  0.00  0.00    +0.031 C 
ATOM      9  C   UNL     1      37.096 -21.079 -17.400  0.00  0.00    +0.006 C 
ATOM     10  C   UNL     1      34.530 -21.892 -16.688  0.00  0.00    +0.076 C 
ATOM     11  C   UNL     1      35.602 -22.200 -15.858  0.00  0.00    +0.162 C 
ATOM     12  C   UNL     1      36.885 -21.795 -16.214  0.00  0.00    +0.039 C 
ENDROOT
BRANCH  11  13
ATOM     13  O   UNL     1      35.400 -22.893 -14.706  0.00  0.00    -0.392 OA
BRANCH  13  16
ATOM     14  N   UNL     1      36.106 -25.087 -15.001  0.00  0.00    -0.185 NA
ATOM     15  N   UNL     1      37.268 -23.589 -13.513  0.00  0.00    -0.162 NA
ATOM     16  C   UNL     1      36.297 -23.901 -14.392  0.00  0.00    +0.196 C 
ATOM     17  C   UNL     1      36.998 -26.045 -14.673  0.00  0.00    +0.167 C 
ATOM     18  C   UNL     1      38.124 -24.593 -13.231  0.00  0.00    +0.110 C 
ATOM     19  C   UNL     1      38.038 -25.853 -13.785  0.00  0.00    +0.022 C 
ENDBRANCH  13  16
ENDBRANCH  11  13
BRANCH   3  20
ATOM     20  C   UNL     1      35.116 -19.088 -21.626  0.00  0.00    +0.061 C 
BRANCH  20  24
ATOM     21  F   UNL     1      34.875 -17.333 -23.845  0.00  0.00    -0.202 F 
ATOM     22  N   UNL     1      34.794 -14.555 -23.570  0.00  0.00    -0.187 N 
ATOM     23  N   UNL     1      34.992 -14.813 -21.235  0.00  0.00    -0.226 NA
ATOM     24  C   UNL     1      35.073 -17.595 -21.491  0.00  0.00    +0.014 C 
ATOM     25  C   UNL     1      34.953 -16.792 -22.621  0.00  0.00    +0.169 C 
ATOM     26  C   UNL     1      35.153 -17.007 -20.233  0.00  0.00    +0.019 C 
ATOM     27  C   UNL     1      34.918 -15.420 -22.441  0.00  0.00    +0.175 C 
ATOM     28  C   UNL     1      35.108 -15.625 -20.160  0.00  0.00    +0.100 C 
ATOM     29  H   UNL     1      35.303 -14.720 -24.397  0.00  0.00    +0.176 HD
BRANCH  22  30
ATOM     30  S   UNL     1      33.719 -13.205 -23.431  0.00  0.00    +0.111 S 
ATOM     31  O   UNL     1      33.227 -12.882 -24.758  0.00  0.00    -0.138 OA
ATOM     32  O   UNL     1      32.777 -13.442 -22.352  0.00  0.00    -0.138 OA
BRANCH  30  33
ATOM     33  N   UNL     1      34.795 -11.956 -22.932  0.00  0.00    -0.165 NA
ATOM     34  C   UNL     1      34.494 -10.575 -23.370  0.00  0.00    +0.112 C 
ATOM     35  H   UNL     1      35.722 -12.193 -23.286  0.00  0.00    +0.150 HD
ENDBRANCH  30  33
ENDBRANCH  22  30
ENDBRANCH  20  24
ENDBRANCH   3  20
TORSDOF 6
ENDMDL
MODEL 2
REMARK VINA RESULT:     -11.4      1.533      2.291
REMARK  Name = 16719221
REMARK  6 active torsions:
REMARK  status: ('A' for Active; 'I' for Inactive)
REMARK    1  A    between atoms: C_3  and  C_20
REMARK    2  A    between atoms: C_11  and  O_13
REMARK    3  A    between atoms: O_13  and  C_16
REMARK    4  A    between atoms: C_20  and  C_24
REMARK    5  A    between atoms: N_22  and  S_30
REMARK    6  A    between atoms: S_30  and  N_33
REMARK                            x       y       z     vdW  Elec       q    Type
REMARK                         _______ _______ _______ _____ _____    ______ ____
ROOT
ATOM      1  O   UNL     1      36.883 -20.626 -18.301  0.00  0.00    -0.421 OA
ATOM      2  O   UNL     1      37.834 -19.475 -20.011  0.00  0.00    -0.245 OA
ATOM      3  C   UNL     1      35.482 -19.825 -20.156  0.00  0.00    +0.054 A 
ATOM      4  C   UNL     1      34.381 -20.382 -19.607  0.00  0.00    -0.016 A 
ATOM      5  C   UNL     1      34.492 -21.080 -18.309  0.00  0.00    +0.031 A 
ATOM      6  C   UNL     1      35.741 -21.179 -17.702  0.00  0.00    +0.151 A 
ATOM      7  C   UNL     1      36.819 -19.946 -19.507  0.00  0.00    +0.342 A 
ATOM      8  C   UNL     1      33.018 -20.353 -20.251  0.00  0.00    +0.031 C 
ATOM      9  C   UNL     1      33.405 -21.651 -17.630  0.00  0.00    +0.006 C 
ATOM     10  C   UNL     1      35.934 -21.821 -16.476  0.00  0.00    +0.076 C 
ATOM     11  C   UNL     1      34.842 -22.385 -15.824  0.00  0.00    +0.162 C 
ATOM     12  C   UNL     1      33.578 -22.299 -16.400  0.00  0.00    +0.039 C 
ENDROOT
BRANCH  11  13
ATOM     13  O   UNL     1      35.008 -23.015 -14.631  0.00  0.00    -0.392 OA
BRANCH  13  16
ATOM     14  N   UNL     1      37.184 -23.367 -13.894  0.00  0.00    -0.185 NA
ATOM     15  N   UNL     1      35.934 -25.116 -14.982  0.00  0.00    -0.162 NA
ATOM     16  C   UNL     1      36.090 -23.870 -14.497  0.00  0.00    +0.196 C 
ATOM     17  C   UNL     1      38.217 -24.226 -13.780  0.00  0.00    +0.167 C 
ATOM     18  C   UNL     1      37.006 -25.922 -14.835  0.00  0.00    +0.110 C 
ATOM     19  C   UNL     1      38.185 -25.529 -14.236  0.00  0.00    +0.022 C 
ENDBRANCH  13  16
ENDBRANCH  11  13
BRANCH   3  20
ATOM     20  C   UNL     1      35.498 -19.032 -21.439  0.00  0.00    +0.061 C 
BRANCH  20  24
ATOM     21  F   UNL     1      35.449 -17.107 -23.525  0.00  0.00    -0.202 F 
ATOM     22  N   UNL     1      35.132 -14.373 -23.049  0.00  0.00    -0.187 N 
ATOM     23  N   UNL     1      35.014 -14.823 -20.738  0.00  0.00    -0.226 NA
ATOM     24  C   UNL     1      35.329 -17.562 -21.196  0.00  0.00    +0.014 C 
ATOM     25  C   UNL     1      35.314 -16.672 -22.265  0.00  0.00    +0.169 C 
ATOM     26  C   UNL     1      35.187 -17.083 -19.898  0.00  0.00    +0.019 C 
ATOM     27  C   UNL     1      35.155 -15.325 -21.986  0.00  0.00    +0.175 C 
ATOM     28  C   UNL     1      35.033 -15.717 -19.724  0.00  0.00    +0.100 C 
ATOM     29  H   UNL     1      35.763 -14.435 -23.803  0.00  0.00    +0.176 HD
BRANCH  22  30
ATOM     30  S   UNL     1      33.954 -13.107 -22.966  0.00  0.00    +0.111 S 
ATOM     31  O   UNL     1      33.119 -13.344 -21.803  0.00  0.00    -0.138 OA
ATOM     32  O   UNL     1      34.607 -11.823 -23.134  0.00  0.00    -0.138 OA
BRANCH  30  33
ATOM     33  N   UNL     1      33.016 -13.415 -24.378  0.00  0.00    -0.165 NA
ATOM     34  C   UNL     1      33.362 -14.605 -25.187  0.00  0.00    +0.112 C 
ATOM     35  H   UNL     1      33.102 -12.599 -24.985  0.00  0.00    +0.150 HD
ENDBRANCH  30  33
ENDBRANCH  22  30
ENDBRANCH  20  24
ENDBRANCH   3  20
TORSDOF 6
ENDMDL
MODEL 3
REMARK VINA RESULT:     -11.3      2.436      3.335
REMARK  Name = 16719221
REMARK  6 active torsions:
REMARK  status: ('A' for Active; 'I' for Inactive)
REMARK    1  A    between atoms: C_3  and  C_20
REMARK    2  A    between atoms: C_11  and  O_13
REMARK    3  A    between atoms: O_13  and  C_16
REMARK    4  A    between atoms: C_20  and  C_24
REMARK    5  A    between atoms: N_22  and  S_30
REMARK    6  A    between atoms: S_30  and  N_33
REMARK                            x       y       z     vdW  Elec       q    Type
REMARK                         _______ _______ _______ _____ _____    ______ ____
ROOT
ATOM      1  O   UNL     1      32.695 -20.612 -19.206  0.00  0.00    -0.421 OA
ATOM      2  O   UNL     1      32.552 -19.415 -21.129  0.00  0.00    -0.245 OA
ATOM      3  C   UNL     1      34.750 -19.836 -20.311  0.00  0.00    +0.054 A 
ATOM      4  C   UNL     1      35.514 -20.372 -19.336  0.00  0.00    -0.016 A 
ATOM      5  C   UNL     1      34.868 -21.112 -18.232  0.00  0.00    +0.031 A 
ATOM      6  C   UNL     1      33.480 -21.204 -18.205  0.00  0.00    +0.151 A 
ATOM      7  C   UNL     1      33.261 -19.928 -20.269  0.00  0.00    +0.342 A 
ATOM      8  C   UNL     1      37.017 -20.251 -19.289  0.00  0.00    +0.031 C 
ATOM      9  C   UNL     1      35.571 -21.746 -17.196  0.00  0.00    +0.006 C 
ATOM     10  C   UNL     1      32.790 -21.884 -17.198  0.00  0.00    +0.076 C 
ATOM     11  C   UNL     1      33.507 -22.501 -16.179  0.00  0.00    +0.162 C 
ATOM     12  C   UNL     1      34.897 -22.434 -16.178  0.00  0.00    +0.039 C 
ENDROOT
BRANCH  11  13
ATOM     13  O   UNL     1      32.855 -23.168 -15.189  0.00  0.00    -0.392 OA
BRANCH  13  16
ATOM     14  N   UNL     1      30.773 -24.062 -15.707  0.00  0.00    -0.185 NA
ATOM     15  N   UNL     1      30.977 -21.970 -14.529  0.00  0.00    -0.162 NA
ATOM     16  C   UNL     1      31.474 -23.061 -15.140  0.00  0.00    +0.196 C 
ATOM     17  C   UNL     1      29.433 -23.927 -15.641  0.00  0.00    +0.167 C 
ATOM     18  C   UNL     1      29.630 -21.898 -14.499  0.00  0.00    +0.110 C 
ATOM     19  C   UNL     1      28.799 -22.856 -15.043  0.00  0.00    +0.022 C 
ENDBRANCH  13  16
ENDBRANCH  11  13
BRANCH   3  20
ATOM     20  C   UNL     1      35.280 -19.114 -21.524  0.00  0.00    +0.061 C 
BRANCH  20  24
ATOM     21  F   UNL     1      35.035 -17.354 -23.738  0.00  0.00    -0.202 F 
ATOM     22  N   UNL     1      34.855 -14.582 -23.450  0.00  0.00    -0.187 N 
ATOM     23  N   UNL     1      35.003 -14.848 -21.112  0.00  0.00    -0.226 NA
ATOM     24  C   UNL     1      35.184 -17.624 -21.382  0.00  0.00    +0.014 C 
ATOM     25  C   UNL     1      35.065 -16.819 -22.510  0.00  0.00    +0.169 C 
ATOM     26  C   UNL     1      35.213 -17.042 -20.119  0.00  0.00    +0.019 C 
ATOM     27  C   UNL     1      34.980 -15.449 -22.323  0.00  0.00    +0.175 C 
ATOM     28  C   UNL     1      35.120 -15.662 -20.039  0.00  0.00    +0.100 C 
ATOM     29  H   UNL     1      35.389 -14.724 -24.265  0.00  0.00    +0.176 HD
BRANCH  22  30
ATOM     30  S   UNL     1      33.732 -13.270 -23.331  0.00  0.00    +0.111 S 
ATOM     31  O   UNL     1      33.204 -13.006 -24.657  0.00  0.00    -0.138 OA
ATOM     32  O   UNL     1      32.820 -13.508 -22.228  0.00  0.00    -0.138 OA
BRANCH  30  33
ATOM     33  N   UNL     1      34.769 -11.966 -22.890  0.00  0.00    -0.165 NA
ATOM     34  C   UNL     1      34.338 -10.596 -23.245  0.00  0.00    +0.112 C 
ATOM     35  H   UNL     1      35.670 -12.128 -23.341  0.00  0.00    +0.150 HD
ENDBRANCH  30  33
ENDBRANCH  22  30
ENDBRANCH  20  24
ENDBRANCH   3  20
TORSDOF 6
ENDMDL
MODEL 4
REMARK VINA RESULT:     -10.8      3.343     11.139
REMARK  Name = 16719221
REMARK  6 active torsions:
REMARK  status: ('A' for Active; 'I' for Inactive)
REMARK    1  A    between atoms: C_3  and  C_20
REMARK    2  A    between atoms: C_11  and  O_13
REMARK    3  A    between atoms: O_13  and  C_16
REMARK    4  A    between atoms: C_20  and  C_24
REMARK    5  A    between atoms: N_22  and  S_30
REMARK    6  A    between atoms: S_30  and  N_33
REMARK                            x       y       z     vdW  Elec       q    Type
REMARK                         _______ _______ _______ _____ _____    ______ ____
ROOT
ATOM      1  O   UNL     1      34.777 -14.588 -21.183  0.00  0.00    -0.421 OA
ATOM      2  O   UNL     1      35.488 -15.677 -19.324  0.00  0.00    -0.245 OA
ATOM      3  C   UNL     1      35.555 -16.913 -21.360  0.00  0.00    +0.054 A 
ATOM      4  C   UNL     1      35.289 -16.935 -22.683  0.00  0.00    -0.016 A 
ATOM      5  C   UNL     1      34.768 -15.718 -23.339  0.00  0.00    +0.031 A 
ATOM      6  C   UNL     1      34.528 -14.586 -22.564  0.00  0.00    +0.151 A 
ATOM      7  C   UNL     1      35.284 -15.701 -20.533  0.00  0.00    +0.342 A 
ATOM      8  C   UNL     1      35.477 -18.151 -23.555  0.00  0.00    +0.031 C 
ATOM      9  C   UNL     1      34.503 -15.619 -24.713  0.00  0.00    +0.006 C 
ATOM     10  C   UNL     1      34.037 -13.394 -23.104  0.00  0.00    +0.076 C 
ATOM     11  C   UNL     1      33.777 -13.321 -24.468  0.00  0.00    +0.162 C 
ATOM     12  C   UNL     1      34.011 -14.432 -25.273  0.00  0.00    +0.039 C 
ENDROOT
BRANCH  11  13
ATOM     13  O   UNL     1      33.298 -12.172 -25.013  0.00  0.00    -0.392 OA
BRANCH  13  16
ATOM     14  N   UNL     1      34.860 -10.756 -25.990  0.00  0.00    -0.185 NA
ATOM     15  N   UNL     1      33.999 -10.331 -23.780  0.00  0.00    -0.162 NA
ATOM     16  C   UNL     1      34.088 -11.037 -24.924  0.00  0.00    +0.196 C 
ATOM     17  C   UNL     1      35.616  -9.644 -25.870  0.00  0.00    +0.167 C 
ATOM     18  C   UNL     1      34.781  -9.233 -23.727  0.00  0.00    +0.110 C 
ATOM     19  C   UNL     1      35.617  -8.836 -24.750  0.00  0.00    +0.022 C 
ENDBRANCH  13  16
ENDBRANCH  11  13
BRANCH   3  20
ATOM     20  C   UNL     1      36.147 -18.060 -20.581  0.00  0.00    +0.061 C 
BRANCH  20  24
ATOM     21  F   UNL     1      36.726 -20.344 -18.996  0.00  0.00    -0.202 F 
ATOM     22  N   UNL     1      34.779 -22.212 -18.274  0.00  0.00    -0.187 N 
ATOM     23  N   UNL     1      33.176 -20.949 -19.455  0.00  0.00    -0.226 NA
ATOM     24  C   UNL     1      35.111 -19.071 -20.187  0.00  0.00    +0.014 C 
ATOM     25  C   UNL     1      35.462 -20.168 -19.408  0.00  0.00    +0.169 C 
ATOM     26  C   UNL     1      33.793 -18.912 -20.600  0.00  0.00    +0.019 C 
ATOM     27  C   UNL     1      34.467 -21.071 -19.073  0.00  0.00    +0.175 C 
ATOM     28  C   UNL     1      32.872 -19.871 -20.211  0.00  0.00    +0.100 C 
ATOM     29  H   UNL     1      35.597 -22.737 -18.431  0.00  0.00    +0.176 HD
BRANCH  22  30
ATOM     30  S   UNL     1      33.665 -22.640 -17.019  0.00  0.00    +0.111 S 
ATOM     31  O   UNL     1      32.521 -21.750 -17.109  0.00  0.00    -0.138 OA
ATOM     32  O   UNL     1      33.461 -24.077 -17.018  0.00  0.00    -0.138 OA
BRANCH  30  33
ATOM     33  N   UNL     1      34.562 -22.230 -15.607  0.00  0.00    -0.165 NA
ATOM     34  C   UNL     1      36.015 -21.996 -15.759  0.00  0.00    +0.112 C 
ATOM     35  H   UNL     1      34.444 -22.992 -14.939  0.00  0.00    +0.150 HD
ENDBRANCH  30  33
ENDBRANCH  22  30
ENDBRANCH  20  24
ENDBRANCH   3  20
TORSDOF 6
ENDMDL
MODEL 5
REMARK VINA RESULT:     -10.6      3.798     10.358
REMARK  Name = 16719221
REMARK  6 active torsions:
REMARK  status: ('A' for Active; 'I' for Inactive)
REMARK    1  A    between atoms: C_3  and  C_20
REMARK    2  A    between atoms: C_11  and  O_13
REMARK    3  A    between atoms: O_13  and  C_16
REMARK    4  A    between atoms: C_20  and  C_24
REMARK    5  A    between atoms: N_22  and  S_30
REMARK    6  A    between atoms: S_30  and  N_33
REMARK                            x       y       z     vdW  Elec       q    Type
REMARK                         _______ _______ _______ _____ _____    ______ ____
ROOT
ATOM      1  O   UNL     1      33.553 -18.994 -20.050  0.00  0.00    -0.421 OA
ATOM      2  O   UNL     1      32.423 -20.570 -18.870  0.00  0.00    -0.245 OA
ATOM      3  C   UNL     1      34.764 -20.927 -19.133  0.00  0.00    +0.054 A 
ATOM      4  C   UNL     1      35.924 -20.495 -19.671  0.00  0.00    -0.016 A 
ATOM      5  C   UNL     1      35.947 -19.222 -20.420  0.00  0.00    +0.031 A 
ATOM      6  C   UNL     1      34.758 -18.516 -20.585  0.00  0.00    +0.151 A 
ATOM      7  C   UNL     1      33.491 -20.172 -19.324  0.00  0.00    +0.342 A 
ATOM      8  C   UNL     1      37.226 -21.251 -19.571  0.00  0.00    +0.031 C 
ATOM      9  C   UNL     1      37.106 -18.661 -20.979  0.00  0.00    +0.006 C 
ATOM     10  C   UNL     1      34.692 -17.305 -21.279  0.00  0.00    +0.076 C 
ATOM     11  C   UNL     1      35.852 -16.771 -21.828  0.00  0.00    +0.162 C 
ATOM     12  C   UNL     1      37.059 -17.447 -21.677  0.00  0.00    +0.039 C 
ENDROOT
BRANCH  11  13
ATOM     13  O   UNL     1      35.809 -15.594 -22.508  0.00  0.00    -0.392 OA
BRANCH  13  16
ATOM     14  N   UNL     1      34.843 -14.339 -20.806  0.00  0.00    -0.185 NA
ATOM     15  N   UNL     1      34.076 -14.157 -23.083  0.00  0.00    -0.162 NA
ATOM     16  C   UNL     1      34.868 -14.656 -22.115  0.00  0.00    +0.196 C 
ATOM     17  C   UNL     1      33.916 -13.423 -20.459  0.00  0.00    +0.167 C 
ATOM     18  C   UNL     1      33.172 -13.247 -22.666  0.00  0.00    +0.110 C 
ATOM     19  C   UNL     1      33.044 -12.837 -21.355  0.00  0.00    +0.022 C 
ENDBRANCH  13  16
ENDBRANCH  11  13
BRANCH   3  20
ATOM     20  C   UNL     1      34.613 -22.171 -18.294  0.00  0.00    +0.061 C 
BRANCH  20  24
ATOM     21  F   UNL     1      33.436 -23.111 -15.887  0.00  0.00    -0.202 F 
ATOM     22  N   UNL     1      34.671 -22.838 -13.396  0.00  0.00    -0.187 N 
ATOM     23  N   UNL     1      36.485 -21.763 -14.451  0.00  0.00    -0.226 NA
ATOM     24  C   UNL     1      35.265 -22.029 -16.950  0.00  0.00    +0.014 C 
ATOM     25  C   UNL     1      34.633 -22.513 -15.810  0.00  0.00    +0.169 C 
ATOM     26  C   UNL     1      36.507 -21.412 -16.842  0.00  0.00    +0.019 C 
ATOM     27  C   UNL     1      35.279 -22.356 -14.595  0.00  0.00    +0.175 C 
ATOM     28  C   UNL     1      37.069 -21.305 -15.580  0.00  0.00    +0.100 C 
ATOM     29  H   UNL     1      33.709 -22.711 -13.226  0.00  0.00    +0.176 HD
BRANCH  22  30
ATOM     30  S   UNL     1      35.686 -23.652 -12.254  0.00  0.00    +0.111 S 
ATOM     31  O   UNL     1      34.842 -24.176 -11.195  0.00  0.00    -0.138 OA
ATOM     32  O   UNL     1      36.594 -24.540 -12.956  0.00  0.00    -0.138 OA
BRANCH  30  33
ATOM     33  N   UNL     1      36.608 -22.344 -11.617  0.00  0.00    -0.165 NA
ATOM     34  C   UNL     1      38.008 -22.618 -11.224  0.00  0.00    +0.112 C 
ATOM     35  H   UNL     1      36.120 -22.002 -10.789  0.00  0.00    +0.150 HD
ENDBRANCH  30  33
ENDBRANCH  22  30
ENDBRANCH  20  24
ENDBRANCH   3  20
TORSDOF 6
ENDMDL
MODEL 6
REMARK VINA RESULT:     -10.4      3.310     10.869
REMARK  Name = 16719221
REMARK  6 active torsions:
REMARK  status: ('A' for Active; 'I' for Inactive)
REMARK    1  A    between atoms: C_3  and  C_20
REMARK    2  A    between atoms: C_11  and  O_13
REMARK    3  A    between atoms: O_13  and  C_16
REMARK    4  A    between atoms: C_20  and  C_24
REMARK    5  A    between atoms: N_22  and  S_30
REMARK    6  A    between atoms: S_30  and  N_33
REMARK                            x       y       z     vdW  Elec       q    Type
REMARK                         _______ _______ _______ _____ _____    ______ ____
ROOT
ATOM      1  O   UNL     1      33.967 -14.796 -24.034  0.00  0.00    -0.421 OA
ATOM      2  O   UNL     1      34.740 -16.652 -25.087  0.00  0.00    -0.245 OA
ATOM      3  C   UNL     1      35.170 -16.511 -22.747  0.00  0.00    +0.054 A 
ATOM      4  C   UNL     1      35.062 -15.782 -21.616  0.00  0.00    -0.016 A 
ATOM      5  C   UNL     1      34.339 -14.494 -21.648  0.00  0.00    +0.031 A 
ATOM      6  C   UNL     1      33.818 -14.045 -22.859  0.00  0.00    +0.151 A 
ATOM      7  C   UNL     1      34.620 -16.018 -24.043  0.00  0.00    +0.342 A 
ATOM      8  C   UNL     1      35.658 -16.196 -20.294  0.00  0.00    +0.031 C 
ATOM      9  C   UNL     1      34.130 -13.683 -20.522  0.00  0.00    +0.006 C 
ATOM     10  C   UNL     1      33.121 -12.840 -22.977  0.00  0.00    +0.076 C 
ATOM     11  C   UNL     1      32.930 -12.050 -21.848  0.00  0.00    +0.162 C 
ATOM     12  C   UNL     1      33.433 -12.472 -20.621  0.00  0.00    +0.039 C 
ENDROOT
BRANCH  11  13
ATOM     13  O   UNL     1      32.255 -10.873 -21.942  0.00  0.00    -0.392 OA
BRANCH  13  16
ATOM     14  N   UNL     1      32.674  -8.634 -21.482  0.00  0.00    -0.185 NA
ATOM     15  N   UNL     1      33.941  -9.825 -23.150  0.00  0.00    -0.162 NA
ATOM     16  C   UNL     1      32.988  -9.727 -22.203  0.00  0.00    +0.196 C 
ATOM     17  C   UNL     1      33.407  -7.537 -21.761  0.00  0.00    +0.167 C 
ATOM     18  C   UNL     1      34.635  -8.691 -23.378  0.00  0.00    +0.110 C 
ATOM     19  C   UNL     1      34.411  -7.506 -22.708  0.00  0.00    +0.022 C 
ENDBRANCH  13  16
ENDBRANCH  11  13
BRANCH   3  20
ATOM     20  C   UNL     1      35.823 -17.866 -22.841  0.00  0.00    +0.061 C 
BRANCH  20  24
ATOM     21  F   UNL     1      33.540 -19.067 -21.654  0.00  0.00    -0.202 F 
ATOM     22  N   UNL     1      33.631 -20.372 -19.187  0.00  0.00    -0.187 N 
ATOM     23  N   UNL     1      35.932 -19.878 -19.048  0.00  0.00    -0.226 NA
ATOM     24  C   UNL     1      35.859 -18.569 -21.516  0.00  0.00    +0.014 C 
ATOM     25  C   UNL     1      34.702 -19.137 -20.992  0.00  0.00    +0.169 C 
ATOM     26  C   UNL     1      37.052 -18.656 -20.807  0.00  0.00    +0.019 C 
ATOM     27  C   UNL     1      34.791 -19.773 -19.765  0.00  0.00    +0.175 C 
ATOM     28  C   UNL     1      37.036 -19.316 -19.589  0.00  0.00    +0.100 C 
ATOM     29  H   UNL     1      32.757 -19.918 -19.209  0.00  0.00    +0.176 HD
BRANCH  22  30
ATOM     30  S   UNL     1      33.816 -21.926 -18.446  0.00  0.00    +0.111 S 
ATOM     31  O   UNL     1      32.639 -22.183 -17.637  0.00  0.00    -0.138 OA
ATOM     32  O   UNL     1      34.231 -22.895 -19.443  0.00  0.00    -0.138 OA
BRANCH  30  33
ATOM     33  N   UNL     1      35.149 -21.648 -17.390  0.00  0.00    -0.165 NA
ATOM     34  C   UNL     1      35.110 -22.281 -16.053  0.00  0.00    +0.112 C 
ATOM     35  H   UNL     1      35.219 -20.640 -17.247  0.00  0.00    +0.150 HD
ENDBRANCH  30  33
ENDBRANCH  22  30
ENDBRANCH  20  24
ENDBRANCH   3  20
TORSDOF 6
ENDMDL
MODEL 7
REMARK VINA RESULT:     -10.0      3.815      6.376
REMARK  Name = 16719221
REMARK  6 active torsions:
REMARK  status: ('A' for Active; 'I' for Inactive)
REMARK    1  A    between atoms: C_3  and  C_20
REMARK    2  A    between atoms: C_11  and  O_13
REMARK    3  A    between atoms: O_13  and  C_16
REMARK    4  A    between atoms: C_20  and  C_24
REMARK    5  A    between atoms: N_22  and  S_30
REMARK    6  A    between atoms: S_30  and  N_33
REMARK                            x       y       z     vdW  Elec       q    Type
REMARK                         _______ _______ _______ _____ _____    ______ ____
ROOT
ATOM      1  O   UNL     1      34.529 -16.800 -24.008  0.00  0.00    -0.421 OA
ATOM      2  O   UNL     1      33.892 -15.372 -25.653  0.00  0.00    -0.245 OA
ATOM      3  C   UNL     1      34.485 -14.381 -23.569  0.00  0.00    +0.054 A 
ATOM      4  C   UNL     1      34.872 -14.575 -22.291  0.00  0.00    -0.016 A 
ATOM      5  C   UNL     1      35.150 -15.946 -21.816  0.00  0.00    +0.031 A 
ATOM      6  C   UNL     1      34.966 -17.012 -22.692  0.00  0.00    +0.151 A 
ATOM      7  C   UNL     1      34.278 -15.529 -24.499  0.00  0.00    +0.342 A 
ATOM      8  C   UNL     1      35.031 -13.461 -21.286  0.00  0.00    +0.031 C 
ATOM      9  C   UNL     1      35.602 -16.253 -20.523  0.00  0.00    +0.006 C 
ATOM     10  C   UNL     1      35.205 -18.339 -22.324  0.00  0.00    +0.076 C 
ATOM     11  C   UNL     1      35.648 -18.619 -21.036  0.00  0.00    +0.162 C 
ATOM     12  C   UNL     1      35.847 -17.577 -20.136  0.00  0.00    +0.039 C 
ENDROOT
BRANCH  11  13
ATOM     13  O   UNL     1      35.886 -19.903 -20.658  0.00  0.00    -0.392 OA
BRANCH  13  16
ATOM     14  N   UNL     1      33.745 -20.162 -19.791  0.00  0.00    -0.185 NA
ATOM     15  N   UNL     1      35.646 -21.237 -18.771  0.00  0.00    -0.162 NA
ATOM     16  C   UNL     1      35.056 -20.458 -19.697  0.00  0.00    +0.196 C 
ATOM     17  C   UNL     1      32.967 -20.719 -18.840  0.00  0.00    +0.167 C 
ATOM     18  C   UNL     1      34.809 -21.760 -17.851  0.00  0.00    +0.110 C 
ATOM     19  C   UNL     1      33.448 -21.535 -17.836  0.00  0.00    +0.022 C 
ENDBRANCH  13  16
ENDBRANCH  11  13
BRANCH   3  20
ATOM     20  C   UNL     1      34.232 -13.035 -24.199  0.00  0.00    +0.061 C 
BRANCH  20  24
ATOM     21  F   UNL     1      34.878 -10.274 -24.061  0.00  0.00    -0.202 F 
ATOM     22  N   UNL     1      33.625  -8.517 -22.287  0.00  0.00    -0.187 N 
ATOM     23  N   UNL     1      32.325 -10.312 -21.481  0.00  0.00    -0.226 NA
ATOM     24  C   UNL     1      33.568 -12.082 -23.250  0.00  0.00    +0.014 C 
ATOM     25  C   UNL     1      33.932 -10.740 -23.235  0.00  0.00    +0.169 C 
ATOM     26  C   UNL     1      32.582 -12.540 -22.381  0.00  0.00    +0.019 C 
ATOM     27  C   UNL     1      33.287  -9.903 -22.339  0.00  0.00    +0.175 C 
ATOM     28  C   UNL     1      31.997 -11.622 -21.524  0.00  0.00    +0.100 C 
ATOM     29  H   UNL     1      34.563  -8.219 -22.329  0.00  0.00    +0.176 HD
BRANCH  22  30
ATOM     30  S   UNL     1      32.327  -7.381 -22.145  0.00  0.00    +0.111 S 
ATOM     31  O   UNL     1      32.856  -6.056 -22.416  0.00  0.00    -0.138 OA
ATOM     32  O   UNL     1      31.175  -7.861 -22.886  0.00  0.00    -0.138 OA
BRANCH  30  33
ATOM     33  N   UNL     1      31.959  -7.485 -20.465  0.00  0.00    -0.165 NA
ATOM     34  C   UNL     1      33.014  -7.092 -19.505  0.00  0.00    +0.112 C 
ATOM     35  H   UNL     1      31.713  -8.455 -20.266  0.00  0.00    +0.150 HD
ENDBRANCH  30  33
ENDBRANCH  22  30
ENDBRANCH  20  24
ENDBRANCH   3  20
TORSDOF 6
ENDMDL
MODEL 8
REMARK VINA RESULT:      -9.9      5.992     10.329
REMARK  Name = 16719221
REMARK  6 active torsions:
REMARK  status: ('A' for Active; 'I' for Inactive)
REMARK    1  A    between atoms: C_3  and  C_20
REMARK    2  A    between atoms: C_11  and  O_13
REMARK    3  A    between atoms: O_13  and  C_16
REMARK    4  A    between atoms: C_20  and  C_24
REMARK    5  A    between atoms: N_22  and  S_30
REMARK    6  A    between atoms: S_30  and  N_33
REMARK                            x       y       z     vdW  Elec       q    Type
REMARK                         _______ _______ _______ _____ _____    ______ ____
ROOT
ATOM      1  O   UNL     1      34.029 -11.448 -22.632  0.00  0.00    -0.421 OA
ATOM      2  O   UNL     1      33.462  -9.652 -23.899  0.00  0.00    -0.245 OA
ATOM      3  C   UNL     1      31.977 -10.196 -22.117  0.00  0.00    +0.054 A 
ATOM      4  C   UNL     1      31.680 -11.037 -21.104  0.00  0.00    -0.016 A 
ATOM      5  C   UNL     1      32.608 -12.141 -20.782  0.00  0.00    +0.031 A 
ATOM      6  C   UNL     1      33.751 -12.309 -21.560  0.00  0.00    +0.151 A 
ATOM      7  C   UNL     1      33.197 -10.388 -22.954  0.00  0.00    +0.342 A 
ATOM      8  C   UNL     1      30.428 -10.934 -20.269  0.00  0.00    +0.031 C 
ATOM      9  C   UNL     1      32.418 -13.043 -19.723  0.00  0.00    +0.006 C 
ATOM     10  C   UNL     1      34.679 -13.326 -21.324  0.00  0.00    +0.076 C 
ATOM     11  C   UNL     1      34.468 -14.211 -20.272  0.00  0.00    +0.162 C 
ATOM     12  C   UNL     1      33.339 -14.069 -19.471  0.00  0.00    +0.039 C 
ENDROOT
BRANCH  11  13
ATOM     13  O   UNL     1      35.359 -15.208 -20.027  0.00  0.00    -0.392 OA
BRANCH  13  16
ATOM     14  N   UNL     1      35.302 -17.524 -20.213  0.00  0.00    -0.185 NA
ATOM     15  N   UNL     1      35.279 -16.112 -22.166  0.00  0.00    -0.162 NA
ATOM     16  C   UNL     1      35.312 -16.330 -20.837  0.00  0.00    +0.196 C 
ATOM     17  C   UNL     1      35.255 -18.595 -21.032  0.00  0.00    +0.167 C 
ATOM     18  C   UNL     1      35.234 -17.226 -22.925  0.00  0.00    +0.110 C 
ATOM     19  C   UNL     1      35.219 -18.506 -22.409  0.00  0.00    +0.022 C 
ENDBRANCH  13  16
ENDBRANCH  11  13
BRANCH   3  20
ATOM     20  C   UNL     1      31.154  -8.995 -22.508  0.00  0.00    +0.061 C 
BRANCH  20  24
ATOM     21  F   UNL     1      31.338  -6.607 -24.034  0.00  0.00    -0.202 F 
ATOM     22  N   UNL     1      32.406  -4.239 -23.008  0.00  0.00    -0.187 N 
ATOM     23  N   UNL     1      32.792  -5.339 -20.959  0.00  0.00    -0.226 NA
ATOM     24  C   UNL     1      31.727  -7.717 -21.969  0.00  0.00    +0.014 C 
ATOM     25  C   UNL     1      31.786  -6.582 -22.771  0.00  0.00    +0.169 C 
ATOM     26  C   UNL     1      32.199  -7.664 -20.662  0.00  0.00    +0.019 C 
ATOM     27  C   UNL     1      32.324  -5.429 -22.225  0.00  0.00    +0.175 C 
ATOM     28  C   UNL     1      32.717  -6.461 -20.209  0.00  0.00    +0.100 C 
ATOM     29  H   UNL     1      32.692  -4.266 -23.950  0.00  0.00    +0.176 HD
BRANCH  22  30
ATOM     30  S   UNL     1      31.984  -2.744 -22.242  0.00  0.00    +0.111 S 
ATOM     31  O   UNL     1      30.815  -2.977 -21.414  0.00  0.00    -0.138 OA
ATOM     32  O   UNL     1      33.170  -2.143 -21.660  0.00  0.00    -0.138 OA
BRANCH  30  33
ATOM     33  N   UNL     1      31.510  -1.786 -23.592  0.00  0.00    -0.165 NA
ATOM     34  C   UNL     1      31.434  -2.449 -24.913  0.00  0.00    +0.112 C 
ATOM     35  H   UNL     1      32.181  -1.021 -23.674  0.00  0.00    +0.150 HD
ENDBRANCH  30  33
ENDBRANCH  22  30
ENDBRANCH  20  24
ENDBRANCH   3  20
TORSDOF 6
ENDMDL
MODEL 9
REMARK VINA RESULT:      -9.8      5.797      9.927
REMARK  Name = 16719221
REMARK  6 active torsions:
REMARK  status: ('A' for Active; 'I' for Inactive)
REMARK    1  A    between atoms: C_3  and  C_20
REMARK    2  A    between atoms: C_11  and  O_13
REMARK    3  A    between atoms: O_13  and  C_16
REMARK    4  A    between atoms: C_20  and  C_24
REMARK    5  A    between atoms: N_22  and  S_30
REMARK    6  A    between atoms: S_30  and  N_33
REMARK                            x       y       z     vdW  Elec       q    Type
REMARK                         _______ _______ _______ _____ _____    ______ ____
ROOT
ATOM      1  O   UNL     1      31.959 -12.344 -19.698  0.00  0.00    -0.421 OA
ATOM      2  O   UNL     1      30.338 -10.768 -19.503  0.00  0.00    -0.245 OA
ATOM      3  C   UNL     1      31.781 -10.567 -21.388  0.00  0.00    +0.054 A 
ATOM      4  C   UNL     1      32.853 -11.048 -22.052  0.00  0.00    -0.016 A 
ATOM      5  C   UNL     1      33.523 -12.270 -21.561  0.00  0.00    +0.031 A 
ATOM      6  C   UNL     1      33.053 -12.874 -20.398  0.00  0.00    +0.151 A 
ATOM      7  C   UNL     1      31.289 -11.213 -20.136  0.00  0.00    +0.342 A 
ATOM      8  C   UNL     1      33.437 -10.399 -23.282  0.00  0.00    +0.031 C 
ATOM      9  C   UNL     1      34.614 -12.878 -22.200  0.00  0.00    +0.006 C 
ATOM     10  C   UNL     1      33.629 -14.031 -19.865  0.00  0.00    +0.076 C 
ATOM     11  C   UNL     1      34.712 -14.613 -20.513  0.00  0.00    +0.162 C 
ATOM     12  C   UNL     1      35.204 -14.038 -21.681  0.00  0.00    +0.039 C 
ENDROOT
BRANCH  11  13
ATOM     13  O   UNL     1      35.287 -15.738 -20.011  0.00  0.00    -0.392 OA
BRANCH  13  16
ATOM     14  N   UNL     1      35.247 -16.696 -22.128  0.00  0.00    -0.185 NA
ATOM     15  N   UNL     1      35.257 -18.058 -20.140  0.00  0.00    -0.162 NA
ATOM     16  C   UNL     1      35.262 -16.881 -20.794  0.00  0.00    +0.196 C 
ATOM     17  C   UNL     1      35.223 -17.829 -22.860  0.00  0.00    +0.167 C 
ATOM     18  C   UNL     1      35.232 -19.149 -20.932  0.00  0.00    +0.110 C 
ATOM     19  C   UNL     1      35.215 -19.096 -22.311  0.00  0.00    +0.022 C 
ENDBRANCH  13  16
ENDBRANCH  11  13
BRANCH   3  20
ATOM     20  C   UNL     1      30.967  -9.372 -21.815  0.00  0.00    +0.061 C 
BRANCH  20  24
ATOM     21  F   UNL     1      30.918  -7.051 -23.450  0.00  0.00    -0.202 F 
ATOM     22  N   UNL     1      32.132  -4.650 -22.698  0.00  0.00    -0.187 N 
ATOM     23  N   UNL     1      32.826  -5.668 -20.688  0.00  0.00    -0.226 NA
ATOM     24  C   UNL     1      31.616  -8.078 -21.424  0.00  0.00    +0.014 C 
ATOM     25  C   UNL     1      31.554  -6.977 -22.272  0.00  0.00    +0.169 C 
ATOM     26  C   UNL     1      32.283  -7.974 -20.208  0.00  0.00    +0.019 C 
ATOM     27  C   UNL     1      32.169  -5.806 -21.863  0.00  0.00    +0.175 C 
ATOM     28  C   UNL     1      32.865  -6.758 -19.890  0.00  0.00    +0.100 C 
ATOM     29  H   UNL     1      32.271  -4.718 -23.671  0.00  0.00    +0.176 HD
BRANCH  22  30
ATOM     30  S   UNL     1      31.833  -3.122 -21.940  0.00  0.00    +0.111 S 
ATOM     31  O   UNL     1      33.088  -2.636 -21.397  0.00  0.00    -0.138 OA
ATOM     32  O   UNL     1      31.059  -2.279 -22.831  0.00  0.00    -0.138 OA
BRANCH  30  33
ATOM     33  N   UNL     1      30.816  -3.582 -20.628  0.00  0.00    -0.165 NA
ATOM     34  C   UNL     1      29.504  -2.908 -20.507  0.00  0.00    +0.112 C 
ATOM     35  H   UNL     1      31.331  -3.403 -19.765  0.00  0.00    +0.150 HD
ENDBRANCH  30  33
ENDBRANCH  22  30
ENDBRANCH  20  24
ENDBRANCH   3  20
TORSDOF 6
ENDMDL
