MODEL 1
REMARK VINA RESULT:     -13.1      0.000      0.000
REMARK  Name = 9999276
REMARK  5 active torsions:
REMARK  status: ('A' for Active; 'I' for Inactive)
REMARK    1  A    between atoms: C_3  and  C_11
REMARK    2  A    between atoms: C_6  and  C_20
REMARK    3  A    between atoms: C_14  and  N_19
REMARK    4  A    between atoms: C_25  and  C_27
REMARK    5  A    between atoms: C_27  and  O_28
REMARK                            x       y       z     vdW  Elec       q    Type
REMARK                         _______ _______ _______ _____ _____    ______ ____
ROOT
ATOM      1  N   UNL     1      35.010 -22.512 -16.101  0.00  0.00    -0.400 NA
ATOM      2  N   UNL     1      33.129 -24.276 -13.517  0.00  0.00    -0.242 NA
ATOM      3  C   UNL     1      34.670 -23.245 -15.015  0.00  0.00    +0.149 C 
ATOM      4  C   UNL     1      33.376 -23.535 -14.615  0.00  0.00    +0.107 C 
ATOM      5  C   UNL     1      32.346 -23.015 -15.418  0.00  0.00    +0.005 C 
ATOM      6  C   UNL     1      33.992 -22.033 -16.843  0.00  0.00    +0.131 C 
ATOM      7  C   UNL     1      32.658 -22.252 -16.550  0.00  0.00    +0.030 C 
ATOM      8  C   UNL     1      31.023 -23.286 -15.047  0.00  0.00    +0.056 C 
ATOM      9  C   UNL     1      30.759 -24.048 -13.917  0.00  0.00    -0.001 C 
ATOM     10  C   UNL     1      31.837 -24.515 -13.192  0.00  0.00    +0.095 C 
ENDROOT
BRANCH   3  11
ATOM     11  C   UNL     1      35.816 -23.726 -14.270  0.00  0.00    +0.033 C 
ATOM     12  C   UNL     1      36.353 -22.951 -13.244  0.00  0.00    +0.027 C 
ATOM     13  C   UNL     1      36.380 -24.962 -14.583  0.00  0.00    +0.003 C 
ATOM     14  C   UNL     1      37.456 -23.414 -12.527  0.00  0.00    +0.143 C 
ATOM     15  C   UNL     1      37.483 -25.425 -13.866  0.00  0.00    +0.002 C 
ATOM     16  C   UNL     1      38.022 -24.651 -12.839  0.00  0.00    +0.024 C 
BRANCH  14  19
ATOM     17  O   UNL     1      39.233 -22.713 -11.241  0.00  0.00    -0.126 OA
ATOM     18  O   UNL     1      37.245 -21.869 -10.833  0.00  0.00    -0.126 OA
ATOM     19  N   UNL     1      38.005 -22.626 -11.480  0.00  0.00    +0.058 N 
ENDBRANCH  14  19
ENDBRANCH   3  11
BRANCH   6  20
ATOM     20  C   UNL     1      34.386 -21.255 -17.993  0.00  0.00    +0.030 C 
ATOM     21  C   UNL     1      35.739 -21.079 -18.292  0.00  0.00    +0.003 C 
ATOM     22  C   UNL     1      33.414 -20.674 -18.811  0.00  0.00    +0.003 C 
ATOM     23  C   UNL     1      36.119 -20.328 -19.405  0.00  0.00    +0.007 C 
ATOM     24  C   UNL     1      33.795 -19.922 -19.924  0.00  0.00    +0.007 C 
ATOM     25  C   UNL     1      35.146 -19.749 -20.220  0.00  0.00    +0.075 C 
BRANCH  25  27
ATOM     26  O   UNL     1      35.004 -19.009 -22.491  0.00  0.00    -0.245 OA
ATOM     27  C   UNL     1      35.541 -18.965 -21.379  0.00  0.00    +0.338 C 
BRANCH  27  28
ATOM     28  O   UNL     1      36.596 -18.145 -21.118  0.00  0.00    -0.477 OA
ATOM     29  H   UNL     1      37.101 -18.264 -20.337  0.00  0.00    +0.295 HD
ENDBRANCH  27  28
ENDBRANCH  25  27
ENDBRANCH   6  20
TORSDOF 5
ENDMDL
MODEL 2
REMARK VINA RESULT:     -12.5      1.649      2.130
REMARK  Name = 9999276
REMARK  5 active torsions:
REMARK  status: ('A' for Active; 'I' for Inactive)
REMARK    1  A    between atoms: C_3  and  C_11
REMARK    2  A    between atoms: C_6  and  C_20
REMARK    3  A    between atoms: C_14  and  N_19
REMARK    4  A    between atoms: C_25  and  C_27
REMARK    5  A    between atoms: C_27  and  O_28
REMARK                            x       y       z     vdW  Elec       q    Type
REMARK                         _______ _______ _______ _____ _____    ______ ____
ROOT
ATOM      1  N   UNL     1      35.103 -22.239 -16.201  0.00  0.00    -0.400 NA
ATOM      2  N   UNL     1      33.320 -24.125 -13.634  0.00  0.00    -0.242 NA
ATOM      3  C   UNL     1      34.799 -22.967 -15.101  0.00  0.00    +0.149 C 
ATOM      4  C   UNL     1      33.531 -23.402 -14.751  0.00  0.00    +0.107 C 
ATOM      5  C   UNL     1      32.489 -23.047 -15.626  0.00  0.00    +0.005 C 
ATOM      6  C   UNL     1      34.074 -21.921 -17.012  0.00  0.00    +0.131 C 
ATOM      7  C   UNL     1      32.764 -22.295 -16.775  0.00  0.00    +0.030 C 
ATOM      8  C   UNL     1      31.191 -23.469 -15.308  0.00  0.00    +0.056 C 
ATOM      9  C   UNL     1      30.964 -24.214 -14.158  0.00  0.00    -0.001 C 
ATOM     10  C   UNL     1      32.052 -24.513 -13.362  0.00  0.00    +0.095 C 
ENDROOT
BRANCH   3  11
ATOM     11  C   UNL     1      35.954 -23.269 -14.280  0.00  0.00    +0.033 C 
ATOM     12  C   UNL     1      36.839 -24.273 -14.669  0.00  0.00    +0.027 C 
ATOM     13  C   UNL     1      36.176 -22.557 -13.103  0.00  0.00    +0.003 C 
ATOM     14  C   UNL     1      37.951 -24.564 -13.879  0.00  0.00    +0.143 C 
ATOM     15  C   UNL     1      37.288 -22.848 -12.312  0.00  0.00    +0.002 C 
ATOM     16  C   UNL     1      38.175 -23.852 -12.700  0.00  0.00    +0.024 C 
BRANCH  14  19
ATOM     17  O   UNL     1      38.538 -26.782 -14.067  0.00  0.00    -0.126 OA
ATOM     18  O   UNL     1      39.936 -25.259 -14.815  0.00  0.00    -0.126 OA
ATOM     19  N   UNL     1      38.855 -25.586 -14.273  0.00  0.00    +0.058 N 
ENDBRANCH  14  19
ENDBRANCH   3  11
BRANCH   6  20
ATOM     20  C   UNL     1      34.430 -21.145 -18.176  0.00  0.00    +0.030 C 
ATOM     21  C   UNL     1      33.434 -20.569 -18.967  0.00  0.00    +0.003 C 
ATOM     22  C   UNL     1      35.773 -20.968 -18.516  0.00  0.00    +0.003 C 
ATOM     23  C   UNL     1      33.778 -19.818 -20.091  0.00  0.00    +0.007 C 
ATOM     24  C   UNL     1      36.118 -20.217 -19.641  0.00  0.00    +0.007 C 
ATOM     25  C   UNL     1      35.121 -19.643 -20.427  0.00  0.00    +0.075 C 
BRANCH  25  27
ATOM     26  O   UNL     1      34.892 -18.885 -22.686  0.00  0.00    -0.245 OA
ATOM     27  C   UNL     1      35.481 -18.860 -21.600  0.00  0.00    +0.338 C 
BRANCH  27  28
ATOM     28  O   UNL     1      36.566 -18.068 -21.383  0.00  0.00    -0.477 OA
ATOM     29  H   UNL     1      36.631 -17.234 -21.808  0.00  0.00    +0.295 HD
ENDBRANCH  27  28
ENDBRANCH  25  27
ENDBRANCH   6  20
TORSDOF 5
ENDMDL
MODEL 3
REMARK VINA RESULT:     -11.5      3.324      5.364
REMARK  Name = 9999276
REMARK  5 active torsions:
REMARK  status: ('A' for Active; 'I' for Inactive)
REMARK    1  A    between atoms: C_3  and  C_11
REMARK    2  A    between atoms: C_6  and  C_20
REMARK    3  A    between atoms: C_14  and  N_19
REMARK    4  A    between atoms: C_25  and  C_27
REMARK    5  A    between atoms: C_27  and  O_28
REMARK                            x       y       z     vdW  Elec       q    Type
REMARK                         _______ _______ _______ _____ _____    ______ ____
ROOT
ATOM      1  N   UNL     1      33.469 -22.044 -16.786  0.00  0.00    -0.400 NA
ATOM      2  N   UNL     1      34.297 -23.792 -13.690  0.00  0.00    -0.242 NA
ATOM      3  C   UNL     1      33.392 -22.747 -15.632  0.00  0.00    +0.149 C 
ATOM      4  C   UNL     1      34.467 -23.088 -14.827  0.00  0.00    +0.107 C 
ATOM      5  C   UNL     1      35.731 -22.658 -15.263  0.00  0.00    +0.005 C 
ATOM      6  C   UNL     1      34.700 -21.651 -17.167  0.00  0.00    +0.131 C 
ATOM      7  C   UNL     1      35.852 -21.928 -16.453  0.00  0.00    +0.030 C 
ATOM      8  C   UNL     1      36.844 -22.982 -14.476  0.00  0.00    +0.056 C 
ATOM      9  C   UNL     1      36.680 -23.708 -13.303  0.00  0.00    -0.001 C 
ATOM     10  C   UNL     1      35.397 -24.085 -12.958  0.00  0.00    +0.095 C 
ENDROOT
BRANCH   3  11
ATOM     11  C   UNL     1      32.039 -23.132 -15.288  0.00  0.00    +0.033 C 
ATOM     12  C   UNL     1      30.965 -22.626 -16.017  0.00  0.00    +0.027 C 
ATOM     13  C   UNL     1      31.814 -24.008 -14.226  0.00  0.00    +0.003 C 
ATOM     14  C   UNL     1      29.662 -22.997 -15.685  0.00  0.00    +0.143 C 
ATOM     15  C   UNL     1      30.511 -24.379 -13.894  0.00  0.00    +0.002 C 
ATOM     16  C   UNL     1      29.435 -23.872 -14.623  0.00  0.00    +0.024 C 
BRANCH  14  19
ATOM     17  O   UNL     1      28.281 -21.266 -16.314  0.00  0.00    -0.126 OA
ATOM     18  O   UNL     1      27.922 -23.259 -17.170  0.00  0.00    -0.126 OA
ATOM     19  N   UNL     1      28.566 -22.482 -16.427  0.00  0.00    +0.058 N 
ENDBRANCH  14  19
ENDBRANCH   3  11
BRANCH   6  20
ATOM     20  C   UNL     1      34.750 -20.904 -18.402  0.00  0.00    +0.030 C 
ATOM     21  C   UNL     1      33.568 -20.534 -19.047  0.00  0.00    +0.003 C 
ATOM     22  C   UNL     1      35.982 -20.551 -18.957  0.00  0.00    +0.003 C 
ATOM     23  C   UNL     1      33.616 -19.812 -20.239  0.00  0.00    +0.007 C 
ATOM     24  C   UNL     1      36.030 -19.829 -20.151  0.00  0.00    +0.007 C 
ATOM     25  C   UNL     1      34.848 -19.460 -20.791  0.00  0.00    +0.075 C 
BRANCH  25  27
ATOM     26  O   UNL     1      34.028 -18.712 -22.911  0.00  0.00    -0.245 OA
ATOM     27  C   UNL     1      34.900 -18.708 -22.035  0.00  0.00    +0.338 C 
BRANCH  27  28
ATOM     28  O   UNL     1      36.038 -17.970 -22.150  0.00  0.00    -0.477 OA
ATOM     29  H   UNL     1      36.636 -17.913 -21.431  0.00  0.00    +0.295 HD
ENDBRANCH  27  28
ENDBRANCH  25  27
ENDBRANCH   6  20
TORSDOF 5
ENDMDL
