MODEL 1
REMARK VINA RESULT:     -12.0      0.000      0.000
REMARK  Name = 70798655
REMARK  2 active torsions:
REMARK  status: ('A' for Active; 'I' for Inactive)
REMARK    1  A    between atoms: C_3  and  C_29
REMARK    2  A    between atoms: C_5  and  C_13
REMARK                            x       y       z     vdW  Elec       q    Type
REMARK                         _______ _______ _______ _____ _____    ______ ____
ROOT
ATOM      1  N   UNL     1      34.135 -23.051 -14.619  0.00  0.00    -0.245 N 
ATOM      2  N   UNL     1      32.532 -24.053 -13.424  0.00  0.00    -0.227 NA
ATOM      3  C   UNL     1      34.729 -23.492 -13.464  0.00  0.00    +0.130 C 
ATOM      4  C   UNL     1      32.796 -23.417 -14.547  0.00  0.00    +0.139 C 
ATOM      5  C   UNL     1      33.919 -22.022 -16.745  0.00  0.00    +0.012 C 
ATOM      6  C   UNL     1      34.695 -22.366 -15.694  0.00  0.00    +0.071 C 
ATOM      7  C   UNL     1      33.726 -24.102 -12.749  0.00  0.00    +0.120 C 
ATOM      8  C   UNL     1      31.971 -23.061 -15.650  0.00  0.00    +0.035 C 
ATOM      9  C   UNL     1      32.502 -22.399 -16.696  0.00  0.00    +0.004 C 
ENDROOT
BRANCH   5  13
ATOM     10  O   UNL     1      36.008 -19.272 -21.097  0.00  0.00    -0.414 OA
ATOM     11  N   UNL     1      33.746 -19.317 -20.953  0.00  0.00    -0.356 NA
ATOM     12  N   UNL     1      34.857 -18.179 -22.759  0.00  0.00    -0.302 N 
ATOM     13  C   UNL     1      34.521 -21.304 -17.884  0.00  0.00    -0.014 C 
ATOM     14  C   UNL     1      33.686 -20.682 -18.824  0.00  0.00    +0.089 C 
ATOM     15  C   UNL     1      35.916 -21.254 -18.008  0.00  0.00    -0.001 C 
ATOM     16  C   UNL     1      34.287 -20.006 -19.896  0.00  0.00    +0.152 C 
ATOM     17  C   UNL     1      35.672 -19.982 -19.981  0.00  0.00    +0.175 C 
ATOM     18  C   UNL     1      36.531 -20.584 -19.071  0.00  0.00    +0.040 C 
ATOM     19  C   UNL     1      34.803 -18.909 -21.621  0.00  0.00    +0.341 C 
ATOM     20  H   UNL     1      35.728 -17.945 -23.153  0.00  0.00    +0.148 HD
ATOM     21  H   UNL     1      34.025 -17.883 -23.193  0.00  0.00    +0.148 HD
ENDBRANCH   5  13
BRANCH   3  29
ATOM     22  O   UNL     1      38.858 -26.347 -14.051  0.00  0.00    -0.350 OA
ATOM     23  O   UNL     1      36.401 -22.417 -12.315  0.00  0.00    -0.268 OA
ATOM     24  N   UNL     1      37.074 -24.202 -13.663  0.00  0.00    -0.270 N 
ATOM     25  C   UNL     1      38.491 -24.067 -13.331  0.00  0.00    +0.126 C 
ATOM     26  C   UNL     1      36.781 -25.245 -14.655  0.00  0.00    +0.126 C 
ATOM     27  C   UNL     1      37.458 -26.551 -14.261  0.00  0.00    +0.164 C 
ATOM     28  C   UNL     1      39.087 -25.423 -12.984  0.00  0.00    +0.164 C 
ATOM     29  C   UNL     1      36.142 -23.329 -13.098  0.00  0.00    +0.265 C 
ENDBRANCH   3  29
TORSDOF 2
ENDMDL
MODEL 2
REMARK VINA RESULT:     -10.7      1.638      2.006
REMARK  Name = 70798655
REMARK  2 active torsions:
REMARK  status: ('A' for Active; 'I' for Inactive)
REMARK    1  A    between atoms: C_3  and  C_29
REMARK    2  A    between atoms: C_5  and  C_13
REMARK                            x       y       z     vdW  Elec       q    Type
REMARK                         _______ _______ _______ _____ _____    ______ ____
ROOT
ATOM      1  N   UNL     1      34.742 -22.618 -15.911  0.00  0.00    -0.245 N 
ATOM      2  N   UNL     1      33.113 -23.715 -14.842  0.00  0.00    -0.227 NA
ATOM      3  C   UNL     1      35.332 -23.247 -14.844  0.00  0.00    +0.130 C 
ATOM      4  C   UNL     1      33.390 -22.934 -15.866  0.00  0.00    +0.139 C 
ATOM      5  C   UNL     1      34.544 -21.282 -17.860  0.00  0.00    +0.012 C 
ATOM      6  C   UNL     1      35.318 -21.808 -16.886  0.00  0.00    +0.071 C 
ATOM      7  C   UNL     1      34.313 -23.912 -14.205  0.00  0.00    +0.120 C 
ATOM      8  C   UNL     1      32.566 -22.387 -16.889  0.00  0.00    +0.035 C 
ATOM      9  C   UNL     1      33.112 -21.602 -17.838  0.00  0.00    +0.004 C 
ENDROOT
BRANCH   5  13
ATOM     10  O   UNL     1      36.693 -18.041 -21.828  0.00  0.00    -0.414 OA
ATOM     11  N   UNL     1      34.436 -18.257 -21.846  0.00  0.00    -0.356 NA
ATOM     12  N   UNL     1      35.571 -16.899 -23.476  0.00  0.00    -0.302 N 
ATOM     13  C   UNL     1      35.162 -20.431 -18.895  0.00  0.00    -0.014 C 
ATOM     14  C   UNL     1      34.343 -19.795 -19.839  0.00  0.00    +0.089 C 
ATOM     15  C   UNL     1      36.554 -20.273 -18.916  0.00  0.00    -0.001 C 
ATOM     16  C   UNL     1      34.959 -18.992 -20.811  0.00  0.00    +0.152 C 
ATOM     17  C   UNL     1      36.340 -18.863 -20.796  0.00  0.00    +0.175 C 
ATOM     18  C   UNL     1      37.183 -19.476 -19.878  0.00  0.00    +0.040 C 
ATOM     19  C   UNL     1      35.500 -17.722 -22.405  0.00  0.00    +0.341 C 
ATOM     20  H   UNL     1      36.446 -16.571 -23.789  0.00  0.00    +0.148 HD
ATOM     21  H   UNL     1      34.749 -16.627 -23.943  0.00  0.00    +0.148 HD
ENDBRANCH   5  13
BRANCH   3  29
ATOM     22  O   UNL     1      37.908 -24.048 -10.569  0.00  0.00    -0.350 OA
ATOM     23  O   UNL     1      37.507 -22.675 -15.308  0.00  0.00    -0.268 OA
ATOM     24  N   UNL     1      37.148 -23.751 -13.266  0.00  0.00    -0.270 N 
ATOM     25  C   UNL     1      38.558 -23.731 -12.878  0.00  0.00    +0.126 C 
ATOM     26  C   UNL     1      36.269 -24.444 -12.316  0.00  0.00    +0.126 C 
ATOM     27  C   UNL     1      36.521 -23.940 -10.900  0.00  0.00    +0.164 C 
ATOM     28  C   UNL     1      38.707 -23.247 -11.444  0.00  0.00    +0.164 C 
ATOM     29  C   UNL     1      36.756 -23.199 -14.487  0.00  0.00    +0.265 C 
ENDBRANCH   3  29
TORSDOF 2
ENDMDL
MODEL 3
REMARK VINA RESULT:     -10.4      4.412     10.610
REMARK  Name = 70798655
REMARK  2 active torsions:
REMARK  status: ('A' for Active; 'I' for Inactive)
REMARK    1  A    between atoms: C_3  and  C_29
REMARK    2  A    between atoms: C_5  and  C_13
REMARK                            x       y       z     vdW  Elec       q    Type
REMARK                         _______ _______ _______ _____ _____    ______ ____
ROOT
ATOM      1  N   UNL     1      34.874 -16.087 -22.014  0.00  0.00    -0.245 N 
ATOM      2  N   UNL     1      35.076 -15.264 -24.083  0.00  0.00    -0.227 NA
ATOM      3  C   UNL     1      34.682 -14.732 -21.915  0.00  0.00    +0.130 C 
ATOM      4  C   UNL     1      35.110 -16.361 -23.356  0.00  0.00    +0.139 C 
ATOM      5  C   UNL     1      35.070 -18.351 -21.337  0.00  0.00    +0.012 C 
ATOM      6  C   UNL     1      34.852 -17.057 -21.016  0.00  0.00    +0.071 C 
ATOM      7  C   UNL     1      34.811 -14.251 -23.196  0.00  0.00    +0.120 C 
ATOM      8  C   UNL     1      35.339 -17.721 -23.705  0.00  0.00    +0.035 C 
ATOM      9  C   UNL     1      35.319 -18.669 -22.748  0.00  0.00    +0.004 C 
ENDROOT
BRANCH   5  13
ATOM     10  O   UNL     1      34.752 -22.203 -17.346  0.00  0.00    -0.414 OA
ATOM     11  N   UNL     1      32.771 -21.443 -18.143  0.00  0.00    -0.356 NA
ATOM     12  N   UNL     1      32.860 -23.113 -16.413  0.00  0.00    -0.302 N 
ATOM     13  C   UNL     1      35.037 -19.375 -20.276  0.00  0.00    -0.014 C 
ATOM     14  C   UNL     1      33.800 -19.836 -19.804  0.00  0.00    +0.089 C 
ATOM     15  C   UNL     1      36.242 -19.870 -19.758  0.00  0.00    -0.001 C 
ATOM     16  C   UNL     1      33.800 -20.810 -18.795  0.00  0.00    +0.152 C 
ATOM     17  C   UNL     1      35.015 -21.272 -18.310  0.00  0.00    +0.175 C 
ATOM     18  C   UNL     1      36.259 -20.842 -18.751  0.00  0.00    +0.040 C 
ATOM     19  C   UNL     1      33.391 -22.248 -17.307  0.00  0.00    +0.341 C 
ATOM     20  H   UNL     1      33.452 -23.659 -15.845  0.00  0.00    +0.148 HD
ATOM     21  H   UNL     1      31.883 -23.197 -16.330  0.00  0.00    +0.148 HD
ENDBRANCH   5  13
BRANCH   3  29
ATOM     22  O   UNL     1      31.626 -10.872 -20.772  0.00  0.00    -0.350 OA
ATOM     23  O   UNL     1      35.180 -14.161 -19.747  0.00  0.00    -0.268 OA
ATOM     24  N   UNL     1      33.284 -13.146 -20.660  0.00  0.00    -0.270 N 
ATOM     25  C   UNL     1      32.965 -12.392 -19.449  0.00  0.00    +0.126 C 
ATOM     26  C   UNL     1      32.310 -12.988 -21.747  0.00  0.00    +0.126 C 
ATOM     27  C   UNL     1      32.025 -11.510 -21.987  0.00  0.00    +0.164 C 
ATOM     28  C   UNL     1      32.665 -10.941 -19.792  0.00  0.00    +0.164 C 
ATOM     29  C   UNL     1      34.401 -13.984 -20.682  0.00  0.00    +0.265 C 
ENDBRANCH   3  29
TORSDOF 2
ENDMDL
MODEL 4
REMARK VINA RESULT:     -10.2      3.083      5.480
REMARK  Name = 70798655
REMARK  2 active torsions:
REMARK  status: ('A' for Active; 'I' for Inactive)
REMARK    1  A    between atoms: C_3  and  C_29
REMARK    2  A    between atoms: C_5  and  C_13
REMARK                            x       y       z     vdW  Elec       q    Type
REMARK                         _______ _______ _______ _____ _____    ______ ____
ROOT
ATOM      1  N   UNL     1      35.539 -22.200 -15.770  0.00  0.00    -0.245 N 
ATOM      2  N   UNL     1      37.206 -21.591 -17.130  0.00  0.00    -0.227 NA
ATOM      3  C   UNL     1      36.696 -22.313 -15.042  0.00  0.00    +0.130 C 
ATOM      4  C   UNL     1      35.903 -21.756 -17.036  0.00  0.00    +0.139 C 
ATOM      5  C   UNL     1      33.223 -22.280 -16.274  0.00  0.00    +0.012 C 
ATOM      6  C   UNL     1      34.226 -22.459 -15.387  0.00  0.00    +0.071 C 
ATOM      7  C   UNL     1      37.703 -21.935 -15.898  0.00  0.00    +0.120 C 
ATOM      8  C   UNL     1      34.853 -21.562 -17.977  0.00  0.00    +0.035 C 
ATOM      9  C   UNL     1      33.579 -21.810 -17.617  0.00  0.00    +0.004 C 
ENDROOT
BRANCH   5  13
ATOM     10  O   UNL     1      27.933 -23.132 -14.803  0.00  0.00    -0.414 OA
ATOM     11  N   UNL     1      28.324 -21.279 -16.048  0.00  0.00    -0.356 NA
ATOM     12  N   UNL     1      26.104 -21.836 -15.305  0.00  0.00    -0.302 N 
ATOM     13  C   UNL     1      31.833 -22.549 -15.858  0.00  0.00    -0.014 C 
ATOM     14  C   UNL     1      30.817 -21.662 -16.243  0.00  0.00    +0.089 C 
ATOM     15  C   UNL     1      31.552 -23.685 -15.088  0.00  0.00    -0.001 C 
ATOM     16  C   UNL     1      29.505 -21.945 -15.834  0.00  0.00    +0.152 C 
ATOM     17  C   UNL     1      29.271 -23.080 -15.071  0.00  0.00    +0.175 C 
ATOM     18  C   UNL     1      30.249 -23.981 -14.672  0.00  0.00    +0.040 C 
ATOM     19  C   UNL     1      27.439 -22.023 -15.421  0.00  0.00    +0.341 C 
ATOM     20  H   UNL     1      25.558 -22.482 -14.800  0.00  0.00    +0.148 HD
ATOM     21  H   UNL     1      25.678 -21.055 -15.726  0.00  0.00    +0.148 HD
ENDBRANCH   5  13
BRANCH   3  29
ATOM     22  O   UNL     1      38.353 -26.529 -12.800  0.00  0.00    -0.350 OA
ATOM     23  O   UNL     1      36.202 -22.071 -12.813  0.00  0.00    -0.268 OA
ATOM     24  N   UNL     1      37.570 -23.883 -13.364  0.00  0.00    -0.270 N 
ATOM     25  C   UNL     1      37.708 -24.345 -11.984  0.00  0.00    +0.126 C 
ATOM     26  C   UNL     1      38.349 -24.653 -14.342  0.00  0.00    +0.126 C 
ATOM     27  C   UNL     1      38.101 -26.145 -14.155  0.00  0.00    +0.164 C 
ATOM     28  C   UNL     1      37.476 -25.846 -11.902  0.00  0.00    +0.164 C 
ATOM     29  C   UNL     1      36.802 -22.751 -13.644  0.00  0.00    +0.265 C 
ENDBRANCH   3  29
TORSDOF 2
ENDMDL
MODEL 5
REMARK VINA RESULT:      -9.9      2.987      4.860
REMARK  Name = 70798655
REMARK  2 active torsions:
REMARK  status: ('A' for Active; 'I' for Inactive)
REMARK    1  A    between atoms: C_3  and  C_29
REMARK    2  A    between atoms: C_5  and  C_13
REMARK                            x       y       z     vdW  Elec       q    Type
REMARK                         _______ _______ _______ _____ _____    ______ ____
ROOT
ATOM      1  N   UNL     1      34.691 -22.051 -16.456  0.00  0.00    -0.245 N 
ATOM      2  N   UNL     1      35.423 -23.154 -14.654  0.00  0.00    -0.227 NA
ATOM      3  C   UNL     1      33.585 -22.601 -15.861  0.00  0.00    +0.130 C 
ATOM      4  C   UNL     1      35.787 -22.416 -15.682  0.00  0.00    +0.139 C 
ATOM      5  C   UNL     1      35.986 -20.827 -18.022  0.00  0.00    +0.012 C 
ATOM      6  C   UNL     1      34.779 -21.271 -17.606  0.00  0.00    +0.071 C 
ATOM      7  C   UNL     1      34.060 -23.273 -14.760  0.00  0.00    +0.120 C 
ATOM      8  C   UNL     1      37.061 -21.952 -16.111  0.00  0.00    +0.035 C 
ATOM      9  C   UNL     1      37.159 -21.196 -17.222  0.00  0.00    +0.004 C 
ENDROOT
BRANCH   5  13
ATOM     10  O   UNL     1      36.117 -17.733 -22.635  0.00  0.00    -0.414 OA
ATOM     11  N   UNL     1      34.143 -18.752 -22.187  0.00  0.00    -0.356 NA
ATOM     12  N   UNL     1      34.416 -17.364 -24.134  0.00  0.00    -0.302 N 
ATOM     13  C   UNL     1      36.070 -19.994 -19.237  0.00  0.00    -0.014 C 
ATOM     14  C   UNL     1      34.942 -19.863 -20.060  0.00  0.00    +0.089 C 
ATOM     15  C   UNL     1      37.275 -19.348 -19.547  0.00  0.00    -0.001 C 
ATOM     16  C   UNL     1      35.052 -19.065 -21.207  0.00  0.00    +0.152 C 
ATOM     17  C   UNL     1      36.263 -18.443 -21.478  0.00  0.00    +0.175 C 
ATOM     18  C   UNL     1      37.401 -18.548 -20.688  0.00  0.00    +0.040 C 
ATOM     19  C   UNL     1      34.824 -17.968 -22.994  0.00  0.00    +0.341 C 
ATOM     20  H   UNL     1      35.041 -16.799 -24.643  0.00  0.00    +0.148 HD
ATOM     21  H   UNL     1      33.494 -17.490 -24.454  0.00  0.00    +0.148 HD
ENDBRANCH   5  13
BRANCH   3  29
ATOM     22  O   UNL     1      29.151 -24.363 -14.191  0.00  0.00    -0.350 OA
ATOM     23  O   UNL     1      32.042 -22.031 -17.463  0.00  0.00    -0.268 OA
ATOM     24  N   UNL     1      31.174 -22.872 -15.464  0.00  0.00    -0.270 N 
ATOM     25  C   UNL     1      29.780 -22.759 -15.889  0.00  0.00    +0.126 C 
ATOM     26  C   UNL     1      31.350 -23.339 -14.083  0.00  0.00    +0.126 C 
ATOM     27  C   UNL     1      30.519 -24.593 -13.841  0.00  0.00    +0.164 C 
ATOM     28  C   UNL     1      29.025 -24.042 -15.579  0.00  0.00    +0.164 C 
ATOM     29  C   UNL     1      32.198 -22.481 -16.329  0.00  0.00    +0.265 C 
ENDBRANCH   3  29
TORSDOF 2
ENDMDL
MODEL 6
REMARK VINA RESULT:      -9.7      7.567     13.642
REMARK  Name = 70798655
REMARK  2 active torsions:
REMARK  status: ('A' for Active; 'I' for Inactive)
REMARK    1  A    between atoms: C_3  and  C_29
REMARK    2  A    between atoms: C_5  and  C_13
REMARK                            x       y       z     vdW  Elec       q    Type
REMARK                         _______ _______ _______ _____ _____    ______ ____
ROOT
ATOM      1  N   UNL     1      33.324 -10.683 -22.114  0.00  0.00    -0.245 N 
ATOM      2  N   UNL     1      31.765  -9.273 -21.351  0.00  0.00    -0.227 NA
ATOM      3  C   UNL     1      33.576  -9.470 -22.703  0.00  0.00    +0.130 C 
ATOM      4  C   UNL     1      32.212 -10.511 -21.299  0.00  0.00    +0.139 C 
ATOM      5  C   UNL     1      33.582 -12.978 -21.575  0.00  0.00    +0.012 C 
ATOM      6  C   UNL     1      34.004 -11.890 -22.255  0.00  0.00    +0.071 C 
ATOM      7  C   UNL     1      32.606  -8.623 -22.219  0.00  0.00    +0.120 C 
ATOM      8  C   UNL     1      31.761 -11.651 -20.576  0.00  0.00    +0.035 C 
ATOM      9  C   UNL     1      32.411 -12.824 -20.705  0.00  0.00    +0.004 C 
ENDROOT
BRANCH   5  13
ATOM     10  O   UNL     1      36.329 -17.794 -21.939  0.00  0.00    -0.414 OA
ATOM     11  N   UNL     1      35.825 -17.102 -19.840  0.00  0.00    -0.356 NA
ATOM     12  N   UNL     1      37.011 -19.161 -20.223  0.00  0.00    -0.302 N 
ATOM     13  C   UNL     1      34.312 -14.252 -21.723  0.00  0.00    -0.014 C 
ATOM     14  C   UNL     1      34.662 -14.980 -20.577  0.00  0.00    +0.089 C 
ATOM     15  C   UNL     1      34.641 -14.712 -23.005  0.00  0.00    -0.001 C 
ATOM     16  C   UNL     1      35.355 -16.187 -20.749  0.00  0.00    +0.152 C 
ATOM     17  C   UNL     1      35.662 -16.607 -22.036  0.00  0.00    +0.175 C 
ATOM     18  C   UNL     1      35.331 -15.915 -23.194  0.00  0.00    +0.040 C 
ATOM     19  C   UNL     1      36.385 -18.021 -20.597  0.00  0.00    +0.341 C 
ATOM     20  H   UNL     1      37.388 -19.763 -20.906  0.00  0.00    +0.148 HD
ATOM     21  H   UNL     1      37.089 -19.389 -19.269  0.00  0.00    +0.148 HD
ENDBRANCH   5  13
BRANCH   3  29
ATOM     22  O   UNL     1      34.862 -11.264 -27.250  0.00  0.00    -0.350 OA
ATOM     23  O   UNL     1      35.588  -8.489 -23.216  0.00  0.00    -0.268 OA
ATOM     24  N   UNL     1      34.556  -9.669 -24.948  0.00  0.00    -0.270 N 
ATOM     25  C   UNL     1      35.610  -9.385 -25.921  0.00  0.00    +0.126 C 
ATOM     26  C   UNL     1      33.417 -10.420 -25.491  0.00  0.00    +0.126 C 
ATOM     27  C   UNL     1      33.908 -11.644 -26.253  0.00  0.00    +0.164 C 
ATOM     28  C   UNL     1      36.011 -10.657 -26.654  0.00  0.00    +0.164 C 
ATOM     29  C   UNL     1      34.660  -9.171 -23.648  0.00  0.00    +0.265 C 
ENDBRANCH   3  29
TORSDOF 2
ENDMDL
MODEL 7
REMARK VINA RESULT:      -9.6      8.018     12.890
REMARK  Name = 70798655
REMARK  2 active torsions:
REMARK  status: ('A' for Active; 'I' for Inactive)
REMARK    1  A    between atoms: C_3  and  C_29
REMARK    2  A    between atoms: C_5  and  C_13
REMARK                            x       y       z     vdW  Elec       q    Type
REMARK                         _______ _______ _______ _____ _____    ______ ____
ROOT
ATOM      1  N   UNL     1      34.278 -13.387 -24.040  0.00  0.00    -0.245 N 
ATOM      2  N   UNL     1      34.207 -14.729 -25.827  0.00  0.00    -0.227 NA
ATOM      3  C   UNL     1      34.534 -14.655 -23.584  0.00  0.00    +0.130 C 
ATOM      4  C   UNL     1      34.086 -13.485 -25.413  0.00  0.00    +0.139 C 
ATOM      5  C   UNL     1      33.939 -11.040 -23.984  0.00  0.00    +0.012 C 
ATOM      6  C   UNL     1      34.208 -12.191 -23.330  0.00  0.00    +0.071 C 
ATOM      7  C   UNL     1      34.484 -15.459 -24.698  0.00  0.00    +0.120 C 
ATOM      8  C   UNL     1      33.805 -12.278 -26.112  0.00  0.00    +0.035 C 
ATOM      9  C   UNL     1      33.735 -11.115 -25.435  0.00  0.00    +0.004 C 
ENDROOT
BRANCH   5  13
ATOM     10  O   UNL     1      33.541  -6.348 -21.036  0.00  0.00    -0.414 OA
ATOM     11  N   UNL     1      31.987  -7.934 -20.579  0.00  0.00    -0.356 NA
ATOM     12  N   UNL     1      31.996  -5.828 -19.416  0.00  0.00    -0.302 N 
ATOM     13  C   UNL     1      33.874  -9.776 -23.227  0.00  0.00    -0.014 C 
ATOM     14  C   UNL     1      32.869  -9.602 -22.264  0.00  0.00    +0.089 C 
ATOM     15  C   UNL     1      34.818  -8.771 -23.481  0.00  0.00    -0.001 C 
ATOM     16  C   UNL     1      32.833  -8.390 -21.560  0.00  0.00    +0.152 C 
ATOM     17  C   UNL     1      33.786  -7.422 -21.843  0.00  0.00    +0.175 C 
ATOM     18  C   UNL     1      34.796  -7.557 -22.787  0.00  0.00    +0.040 C 
ATOM     19  C   UNL     1      32.452  -6.733 -20.312  0.00  0.00    +0.341 C 
ATOM     20  H   UNL     1      32.448  -4.958 -19.322  0.00  0.00    +0.148 HD
ATOM     21  H   UNL     1      31.213  -6.039 -18.859  0.00  0.00    +0.148 HD
ENDBRANCH   5  13
BRANCH   3  29
ATOM     22  O   UNL     1      35.436 -19.057 -21.269  0.00  0.00    -0.350 OA
ATOM     23  O   UNL     1      34.579 -14.182 -21.337  0.00  0.00    -0.268 OA
ATOM     24  N   UNL     1      35.282 -16.326 -21.943  0.00  0.00    -0.270 N 
ATOM     25  C   UNL     1      35.567 -16.744 -20.572  0.00  0.00    +0.126 C 
ATOM     26  C   UNL     1      35.617 -17.328 -22.964  0.00  0.00    +0.126 C 
ATOM     27  C   UNL     1      35.027 -18.681 -22.587  0.00  0.00    +0.164 C 
ATOM     28  C   UNL     1      34.969 -18.115 -20.299  0.00  0.00    +0.164 C 
ATOM     29  C   UNL     1      34.799 -15.040 -22.191  0.00  0.00    +0.265 C 
ENDBRANCH   3  29
TORSDOF 2
ENDMDL
MODEL 8
REMARK VINA RESULT:      -9.4      4.873     11.750
REMARK  Name = 70798655
REMARK  2 active torsions:
REMARK  status: ('A' for Active; 'I' for Inactive)
REMARK    1  A    between atoms: C_3  and  C_29
REMARK    2  A    between atoms: C_5  and  C_13
REMARK                            x       y       z     vdW  Elec       q    Type
REMARK                         _______ _______ _______ _____ _____    ______ ____
ROOT
ATOM      1  N   UNL     1      34.408 -16.121 -23.790  0.00  0.00    -0.245 N 
ATOM      2  N   UNL     1      33.524 -16.042 -25.843  0.00  0.00    -0.227 NA
ATOM      3  C   UNL     1      34.225 -14.794 -24.084  0.00  0.00    +0.130 C 
ATOM      4  C   UNL     1      33.966 -16.841 -24.893  0.00  0.00    +0.139 C 
ATOM      5  C   UNL     1      35.022 -18.052 -22.558  0.00  0.00    +0.012 C 
ATOM      6  C   UNL     1      34.928 -16.707 -22.639  0.00  0.00    +0.071 C 
ATOM      7  C   UNL     1      33.683 -14.772 -25.347  0.00  0.00    +0.120 C 
ATOM      8  C   UNL     1      34.059 -18.259 -24.817  0.00  0.00    +0.035 C 
ATOM      9  C   UNL     1      34.559 -18.837 -23.708  0.00  0.00    +0.004 C 
ENDROOT
BRANCH   5  13
ATOM     10  O   UNL     1      36.905 -20.463 -17.919  0.00  0.00    -0.414 OA
ATOM     11  N   UNL     1      34.805 -21.041 -18.549  0.00  0.00    -0.356 NA
ATOM     12  N   UNL     1      35.813 -21.970 -16.571  0.00  0.00    -0.302 N 
ATOM     13  C   UNL     1      35.566 -18.666 -21.331  0.00  0.00    -0.014 C 
ATOM     14  C   UNL     1      34.778 -19.574 -20.609  0.00  0.00    +0.089 C 
ATOM     15  C   UNL     1      36.861 -18.334 -20.910  0.00  0.00    -0.001 C 
ATOM     16  C   UNL     1      35.322 -20.141 -19.448  0.00  0.00    +0.152 C 
ATOM     17  C   UNL     1      36.607 -19.784 -19.066  0.00  0.00    +0.175 C 
ATOM     18  C   UNL     1      37.418 -18.892 -19.755  0.00  0.00    +0.040 C 
ATOM     19  C   UNL     1      35.779 -21.191 -17.677  0.00  0.00    +0.341 C 
ATOM     20  H   UNL     1      36.618 -21.983 -16.003  0.00  0.00    +0.148 HD
ATOM     21  H   UNL     1      35.035 -22.522 -16.334  0.00  0.00    +0.148 HD
ENDBRANCH   5  13
BRANCH   3  29
ATOM     22  O   UNL     1      34.107  -9.774 -24.661  0.00  0.00    -0.350 OA
ATOM     23  O   UNL     1      35.168 -13.923 -22.180  0.00  0.00    -0.268 OA
ATOM     24  N   UNL     1      34.137 -12.385 -23.603  0.00  0.00    -0.270 N 
ATOM     25  C   UNL     1      34.435 -11.230 -22.757  0.00  0.00    +0.126 C 
ATOM     26  C   UNL     1      33.337 -12.072 -24.794  0.00  0.00    +0.126 C 
ATOM     27  C   UNL     1      33.942 -10.890 -25.540  0.00  0.00    +0.164 C 
ATOM     28  C   UNL     1      35.002 -10.092 -23.592  0.00  0.00    +0.164 C 
ATOM     29  C   UNL     1      34.551 -13.659 -23.211  0.00  0.00    +0.265 C 
ENDBRANCH   3  29
TORSDOF 2
ENDMDL
MODEL 9
REMARK VINA RESULT:      -9.0      7.902     14.251
REMARK  Name = 70798655
REMARK  2 active torsions:
REMARK  status: ('A' for Active; 'I' for Inactive)
REMARK    1  A    between atoms: C_3  and  C_29
REMARK    2  A    between atoms: C_5  and  C_13
REMARK                            x       y       z     vdW  Elec       q    Type
REMARK                         _______ _______ _______ _____ _____    ______ ____
ROOT
ATOM      1  N   UNL     1      34.028 -11.367 -24.296  0.00  0.00    -0.245 N 
ATOM      2  N   UNL     1      33.289 -10.747 -26.313  0.00  0.00    -0.227 NA
ATOM      3  C   UNL     1      34.023  -9.996 -24.304  0.00  0.00    +0.130 C 
ATOM      4  C   UNL     1      33.572 -11.777 -25.543  0.00  0.00    +0.139 C 
ATOM      5  C   UNL     1      34.327 -13.576 -23.487  0.00  0.00    +0.012 C 
ATOM      6  C   UNL     1      34.400 -12.243 -23.280  0.00  0.00    +0.071 C 
ATOM      7  C   UNL     1      33.568  -9.640 -25.551  0.00  0.00    +0.120 C 
ATOM      8  C   UNL     1      33.489 -13.179 -25.770  0.00  0.00    +0.035 C 
ATOM      9  C   UNL     1      33.847 -14.036 -24.794  0.00  0.00    +0.004 C 
ENDROOT
BRANCH   5  13
ATOM     10  O   UNL     1      35.850 -17.178 -19.540  0.00  0.00    -0.414 OA
ATOM     11  N   UNL     1      36.153 -17.871 -21.676  0.00  0.00    -0.356 NA
ATOM     12  N   UNL     1      36.747 -19.275 -19.815  0.00  0.00    -0.302 N 
ATOM     13  C   UNL     1      34.716 -14.498 -22.403  0.00  0.00    -0.014 C 
ATOM     14  C   UNL     1      35.254 -15.753 -22.728  0.00  0.00    +0.089 C 
ATOM     15  C   UNL     1      34.544 -14.106 -21.068  0.00  0.00    -0.001 C 
ATOM     16  C   UNL     1      35.615 -16.608 -21.676  0.00  0.00    +0.152 C 
ATOM     17  C   UNL     1      35.426 -16.180 -20.369  0.00  0.00    +0.175 C 
ATOM     18  C   UNL     1      34.899 -14.947 -20.008  0.00  0.00    +0.040 C 
ATOM     19  C   UNL     1      36.269 -18.151 -20.396  0.00  0.00    +0.341 C 
ATOM     20  H   UNL     1      36.774 -19.348 -18.833  0.00  0.00    +0.148 HD
ATOM     21  H   UNL     1      37.067 -20.020 -20.373  0.00  0.00    +0.148 HD
ENDBRANCH   5  13
BRANCH   3  29
ATOM     22  O   UNL     1      31.585  -6.655 -21.398  0.00  0.00    -0.350 OA
ATOM     23  O   UNL     1      35.638  -8.987 -23.020  0.00  0.00    -0.268 OA
ATOM     24  N   UNL     1      33.427  -8.520 -22.430  0.00  0.00    -0.270 N 
ATOM     25  C   UNL     1      33.789  -7.649 -21.313  0.00  0.00    +0.126 C 
ATOM     26  C   UNL     1      31.982  -8.733 -22.588  0.00  0.00    +0.126 C 
ATOM     27  C   UNL     1      31.248  -7.399 -22.572  0.00  0.00    +0.164 C 
ATOM     28  C   UNL     1      32.983  -6.359 -21.363  0.00  0.00    +0.164 C 
ATOM     29  C   UNL     1      34.428  -9.120 -23.196  0.00  0.00    +0.265 C 
ENDBRANCH   3  29
TORSDOF 2
ENDMDL
