MODEL 1
REMARK VINA RESULT:     -12.1      0.000      0.000
REMARK  Name = 46213929
REMARK  4 active torsions:
REMARK  status: ('A' for Active; 'I' for Inactive)
REMARK    1  A    between atoms: C_7  and  C_20
REMARK    2  A    between atoms: C_9  and  C_28
REMARK    3  A    between atoms: C_20  and  N_22
REMARK    4  A    between atoms: C_28  and  C_31
REMARK                            x       y       z     vdW  Elec       q    Type
REMARK                         _______ _______ _______ _____ _____    ______ ____
ROOT
ATOM      1  N   UNL     1      34.495 -22.954 -14.112  0.00  0.00    -0.179 N 
ATOM      2  N   UNL     1      33.552 -24.029 -12.404  0.00  0.00    -0.393 NA
ATOM      3  N   UNL     1      34.675 -22.399 -15.336  0.00  0.00    -0.160 NA
ATOM      4  N   UNL     1      33.729 -21.992 -17.420  0.00  0.00    -0.281 N 
ATOM      5  N   UNL     1      35.967 -21.048 -17.367  0.00  0.00    -0.166 NA
ATOM      6  N   UNL     1      36.660 -20.382 -18.307  0.00  0.00    -0.239 N 
ATOM      7  C   UNL     1      32.268 -23.756 -14.527  0.00  0.00    +0.005 C 
ATOM      8  C   UNL     1      33.379 -23.619 -13.647  0.00  0.00    +0.196 C 
ATOM      9  C   UNL     1      35.417 -22.953 -13.098  0.00  0.00    +0.151 C 
ATOM     10  C   UNL     1      32.389 -23.224 -15.755  0.00  0.00    +0.034 C 
ATOM     11  C   UNL     1      34.813 -23.619 -12.059  0.00  0.00    +0.109 C 
ATOM     12  C   UNL     1      33.656 -22.520 -16.151  0.00  0.00    +0.151 C 
ATOM     13  C   UNL     1      35.350 -23.910 -10.721  0.00  0.00    +0.063 C 
ATOM     14  C   UNL     1      34.806 -21.309 -17.975  0.00  0.00    +0.152 C 
ATOM     15  C   UNL     1      34.758 -20.814 -19.292  0.00  0.00    +0.048 C 
ATOM     16  C   UNL     1      35.981 -20.215 -19.478  0.00  0.00    +0.046 C 
ATOM     17  C   UNL     1      36.566 -19.511 -20.630  0.00  0.00    +0.049 C 
ATOM     18  H   UNL     1      32.938 -22.110 -17.994  0.00  0.00    +0.155 HD
ATOM     19  H   UNL     1      37.573 -20.045 -18.163  0.00  0.00    +0.174 HD
ENDROOT
BRANCH   7  20
ATOM     20  C   UNL     1      30.994 -24.459 -14.138  0.00  0.00    -0.046 C 
BRANCH  20  22
ATOM     21  O   UNL     1      28.486 -21.641 -15.978  0.00  0.00    -0.358 OA
ATOM     22  N   UNL     1      29.815 -23.668 -14.486  0.00  0.00    +0.393 N 
ATOM     23  C   UNL     1      30.047 -22.241 -14.222  0.00  0.00    -0.044 C 
ATOM     24  C   UNL     1      29.451 -23.866 -15.896  0.00  0.00    -0.044 C 
ATOM     25  C   UNL     1      28.808 -21.437 -14.602  0.00  0.00    +0.119 C 
ATOM     26  C   UNL     1      28.227 -23.022 -16.238  0.00  0.00    +0.119 C 
ATOM     27  H   UNL     1      29.042 -23.987 -13.902  0.00  0.00    -0.079 HD
ENDBRANCH  20  22
ENDBRANCH   7  20
BRANCH   9  28
ATOM     28  C   UNL     1      36.748 -22.329 -13.218  0.00  0.00    +0.057 C 
BRANCH  28  31
ATOM     29 CL   UNL     1      41.242 -26.218 -14.256  0.00  0.00    -0.082 Cl
ATOM     30  F   UNL     1      38.294 -22.327 -15.604  0.00  0.00    -0.204 F 
ATOM     31  C   UNL     1      37.882 -23.310 -13.482  0.00  0.00    +0.007 C 
ATOM     32  C   UNL     1      38.598 -23.247 -14.679  0.00  0.00    +0.137 C 
ATOM     33  C   UNL     1      38.207 -24.272 -12.525  0.00  0.00    -0.001 C 
ATOM     34  C   UNL     1      39.637 -24.147 -14.918  0.00  0.00    +0.041 C 
ATOM     35  C   UNL     1      39.246 -25.171 -12.764  0.00  0.00    +0.011 C 
ATOM     36  C   UNL     1      39.961 -25.108 -13.961  0.00  0.00    +0.060 C 
ENDBRANCH  28  31
ENDBRANCH   9  28
TORSDOF 4
ENDMDL
MODEL 2
REMARK VINA RESULT:     -11.1      2.864      6.176
REMARK  Name = 46213929
REMARK  4 active torsions:
REMARK  status: ('A' for Active; 'I' for Inactive)
REMARK    1  A    between atoms: C_7  and  C_20
REMARK    2  A    between atoms: C_9  and  C_28
REMARK    3  A    between atoms: C_20  and  N_22
REMARK    4  A    between atoms: C_28  and  C_31
REMARK                            x       y       z     vdW  Elec       q    Type
REMARK                         _______ _______ _______ _____ _____    ______ ____
ROOT
ATOM      1  N   UNL     1      34.089 -22.314 -16.444  0.00  0.00    -0.179 N 
ATOM      2  N   UNL     1      32.036 -21.650 -16.996  0.00  0.00    -0.393 NA
ATOM      3  N   UNL     1      35.121 -22.836 -15.736  0.00  0.00    -0.160 NA
ATOM      4  N   UNL     1      35.772 -23.839 -13.742  0.00  0.00    -0.281 N 
ATOM      5  N   UNL     1      37.713 -23.610 -15.185  0.00  0.00    -0.166 NA
ATOM      6  N   UNL     1      38.996 -23.959 -14.991  0.00  0.00    -0.239 N 
ATOM      7  C   UNL     1      32.414 -22.698 -14.763  0.00  0.00    +0.005 C 
ATOM      8  C   UNL     1      32.768 -22.211 -16.053  0.00  0.00    +0.196 C 
ATOM      9  C   UNL     1      34.180 -21.784 -17.704  0.00  0.00    +0.151 C 
ATOM     10  C   UNL     1      33.398 -23.228 -14.016  0.00  0.00    +0.034 C 
ATOM     11  C   UNL     1      32.905 -21.383 -18.021  0.00  0.00    +0.109 C 
ATOM     12  C   UNL     1      34.801 -23.287 -14.548  0.00  0.00    +0.151 C 
ATOM     13  C   UNL     1      32.425 -20.746 -19.257  0.00  0.00    +0.063 C 
ATOM     14  C   UNL     1      37.121 -23.985 -14.048  0.00  0.00    +0.152 C 
ATOM     15  C   UNL     1      38.019 -24.570 -13.135  0.00  0.00    +0.048 C 
ATOM     16  C   UNL     1      39.232 -24.539 -13.779  0.00  0.00    +0.046 C 
ATOM     17  C   UNL     1      40.572 -24.993 -13.374  0.00  0.00    +0.049 C 
ATOM     18  H   UNL     1      35.481 -24.163 -12.859  0.00  0.00    +0.155 HD
ATOM     19  H   UNL     1      39.700 -23.812 -15.662  0.00  0.00    +0.174 HD
ENDROOT
BRANCH   7  20
ATOM     20  C   UNL     1      31.010 -22.643 -14.221  0.00  0.00    -0.046 C 
BRANCH  20  22
ATOM     21  O   UNL     1      27.382 -23.002 -16.302  0.00  0.00    -0.358 OA
ATOM     22  N   UNL     1      30.019 -22.630 -15.296  0.00  0.00    +0.393 N 
ATOM     23  C   UNL     1      29.458 -23.972 -15.505  0.00  0.00    -0.044 C 
ATOM     24  C   UNL     1      28.942 -21.675 -15.001  0.00  0.00    -0.044 C 
ATOM     25  C   UNL     1      28.420 -23.930 -16.622  0.00  0.00    +0.119 C 
ATOM     26  C   UNL     1      27.915 -21.687 -16.128  0.00  0.00    +0.119 C 
ATOM     27  H   UNL     1      30.490 -22.336 -16.151  0.00  0.00    -0.079 HD
ENDBRANCH  20  22
ENDBRANCH   7  20
BRANCH   9  28
ATOM     28  C   UNL     1      35.443 -21.717 -18.462  0.00  0.00    +0.057 C 
BRANCH  28  31
ATOM     29 CL   UNL     1      36.017 -16.814 -21.931  0.00  0.00    -0.082 Cl
ATOM     30  F   UNL     1      37.496 -19.783 -18.103  0.00  0.00    -0.204 F 
ATOM     31  C   UNL     1      35.590 -20.479 -19.335  0.00  0.00    +0.007 C 
ATOM     32  C   UNL     1      36.625 -19.573 -19.099  0.00  0.00    +0.137 C 
ATOM     33  C   UNL     1      34.688 -20.251 -20.375  0.00  0.00    -0.001 C 
ATOM     34  C   UNL     1      36.756 -18.439 -19.902  0.00  0.00    +0.041 C 
ATOM     35  C   UNL     1      34.819 -19.118 -21.178  0.00  0.00    +0.011 C 
ATOM     36  C   UNL     1      35.854 -18.212 -20.941  0.00  0.00    +0.060 C 
ENDBRANCH  28  31
ENDBRANCH   9  28
TORSDOF 4
ENDMDL
MODEL 3
REMARK VINA RESULT:     -10.7      3.909      7.343
REMARK  Name = 46213929
REMARK  4 active torsions:
REMARK  status: ('A' for Active; 'I' for Inactive)
REMARK    1  A    between atoms: C_7  and  C_20
REMARK    2  A    between atoms: C_9  and  C_28
REMARK    3  A    between atoms: C_20  and  N_22
REMARK    4  A    between atoms: C_28  and  C_31
REMARK                            x       y       z     vdW  Elec       q    Type
REMARK                         _______ _______ _______ _____ _____    ______ ____
ROOT
ATOM      1  N   UNL     1      33.813 -22.971 -15.056  0.00  0.00    -0.179 N 
ATOM      2  N   UNL     1      33.422 -24.018 -13.130  0.00  0.00    -0.393 NA
ATOM      3  N   UNL     1      34.455 -22.296 -16.042  0.00  0.00    -0.160 NA
ATOM      4  N   UNL     1      36.460 -21.338 -16.725  0.00  0.00    -0.281 N 
ATOM      5  N   UNL     1      34.797 -21.026 -18.468  0.00  0.00    -0.166 NA
ATOM      6  N   UNL     1      34.885 -20.423 -19.666  0.00  0.00    -0.239 N 
ATOM      7  C   UNL     1      35.696 -23.089 -13.567  0.00  0.00    +0.005 C 
ATOM      8  C   UNL     1      34.333 -23.387 -13.846  0.00  0.00    +0.196 C 
ATOM      9  C   UNL     1      32.502 -23.368 -15.091  0.00  0.00    +0.151 C 
ATOM     10  C   UNL     1      36.384 -22.421 -14.510  0.00  0.00    +0.034 C 
ATOM     11  C   UNL     1      32.287 -24.010 -13.895  0.00  0.00    +0.109 C 
ATOM     12  C   UNL     1      35.711 -22.020 -15.792  0.00  0.00    +0.151 C 
ATOM     13  C   UNL     1      31.050 -24.636 -13.402  0.00  0.00    +0.063 C 
ATOM     14  C   UNL     1      36.026 -20.881 -17.965  0.00  0.00    +0.152 C 
ATOM     15  C   UNL     1      36.892 -20.192 -18.835  0.00  0.00    +0.048 C 
ATOM     16  C   UNL     1      36.119 -19.908 -19.934  0.00  0.00    +0.046 C 
ATOM     17  C   UNL     1      36.421 -19.210 -21.195  0.00  0.00    +0.049 C 
ATOM     18  H   UNL     1      37.398 -21.154 -16.489  0.00  0.00    +0.155 HD
ATOM     19  H   UNL     1      34.129 -20.360 -20.293  0.00  0.00    +0.174 HD
ENDROOT
BRANCH   7  20
ATOM     20  C   UNL     1      36.379 -23.487 -12.285  0.00  0.00    -0.046 C 
BRANCH  20  22
ATOM     21  O   UNL     1      39.188 -25.998 -14.135  0.00  0.00    -0.358 OA
ATOM     22  N   UNL     1      37.360 -24.548 -12.505  0.00  0.00    +0.393 N 
ATOM     23  C   UNL     1      36.894 -25.486 -13.535  0.00  0.00    -0.044 C 
ATOM     24  C   UNL     1      38.661 -23.983 -12.889  0.00  0.00    -0.044 C 
ATOM     25  C   UNL     1      37.939 -26.576 -13.753  0.00  0.00    +0.119 C 
ATOM     26  C   UNL     1      39.665 -25.108 -13.125  0.00  0.00    +0.119 C 
ATOM     27  H   UNL     1      37.473 -25.055 -11.627  0.00  0.00    -0.079 HD
ENDBRANCH  20  22
ENDBRANCH   7  20
BRANCH   9  28
ATOM     28  C   UNL     1      31.609 -23.103 -16.234  0.00  0.00    +0.057 C 
BRANCH  28  31
ATOM     29 CL   UNL     1      25.995 -21.503 -14.714  0.00  0.00    -0.082 Cl
ATOM     30  F   UNL     1      31.018 -21.331 -14.092  0.00  0.00    -0.204 F 
ATOM     31  C   UNL     1      30.193 -22.699 -15.848  0.00  0.00    +0.007 C 
ATOM     32  C   UNL     1      29.981 -21.822 -14.783  0.00  0.00    +0.137 C 
ATOM     33  C   UNL     1      29.107 -23.204 -16.563  0.00  0.00    -0.001 C 
ATOM     34  C   UNL     1      28.682 -21.453 -14.433  0.00  0.00    +0.041 C 
ATOM     35  C   UNL     1      27.808 -22.835 -16.212  0.00  0.00    +0.011 C 
ATOM     36  C   UNL     1      27.596 -21.958 -15.147  0.00  0.00    +0.060 C 
ENDBRANCH  28  31
ENDBRANCH   9  28
TORSDOF 4
ENDMDL
MODEL 4
REMARK VINA RESULT:     -10.1      3.775      7.813
REMARK  Name = 46213929
REMARK  4 active torsions:
REMARK  status: ('A' for Active; 'I' for Inactive)
REMARK    1  A    between atoms: C_7  and  C_20
REMARK    2  A    between atoms: C_9  and  C_28
REMARK    3  A    between atoms: C_20  and  N_22
REMARK    4  A    between atoms: C_28  and  C_31
REMARK                            x       y       z     vdW  Elec       q    Type
REMARK                         _______ _______ _______ _____ _____    ______ ____
ROOT
ATOM      1  N   UNL     1      34.718 -21.994 -16.336  0.00  0.00    -0.179 N 
ATOM      2  N   UNL     1      36.939 -22.000 -16.173  0.00  0.00    -0.393 NA
ATOM      3  N   UNL     1      33.408 -22.102 -16.006  0.00  0.00    -0.160 NA
ATOM      4  N   UNL     1      31.885 -22.569 -14.312  0.00  0.00    -0.281 N 
ATOM      5  N   UNL     1      30.670 -22.057 -16.352  0.00  0.00    -0.166 NA
ATOM      6  N   UNL     1      29.349 -22.015 -16.600  0.00  0.00    -0.239 N 
ATOM      7  C   UNL     1      35.572 -22.550 -14.159  0.00  0.00    +0.005 C 
ATOM      8  C   UNL     1      35.811 -22.191 -15.516  0.00  0.00    +0.196 C 
ATOM      9  C   UNL     1      35.198 -21.662 -17.576  0.00  0.00    +0.151 C 
ATOM     10  C   UNL     1      34.290 -22.671 -13.774  0.00  0.00    +0.034 C 
ATOM     11  C   UNL     1      36.566 -21.673 -17.449  0.00  0.00    +0.109 C 
ATOM     12  C   UNL     1      33.180 -22.432 -14.758  0.00  0.00    +0.151 C 
ATOM     13  C   UNL     1      37.583 -21.388 -18.474  0.00  0.00    +0.063 C 
ATOM     14  C   UNL     1      30.726 -22.392 -15.061  0.00  0.00    +0.152 C 
ATOM     15  C   UNL     1      29.451 -22.561 -14.487  0.00  0.00    +0.048 C 
ATOM     16  C   UNL     1      28.576 -22.308 -15.515  0.00  0.00    +0.046 C 
ATOM     17  C   UNL     1      27.105 -22.315 -15.579  0.00  0.00    +0.049 C 
ATOM     18  H   UNL     1      31.767 -22.818 -13.367  0.00  0.00    +0.155 HD
ATOM     19  H   UNL     1      28.975 -21.792 -17.481  0.00  0.00    +0.174 HD
ENDROOT
BRANCH   7  20
ATOM     20  C   UNL     1      36.678 -22.792 -13.166  0.00  0.00    -0.046 C 
BRANCH  20  22
ATOM     21  O   UNL     1      39.096 -26.215 -13.404  0.00  0.00    -0.358 OA
ATOM     22  N   UNL     1      37.631 -23.788 -13.654  0.00  0.00    +0.393 N 
ATOM     23  C   UNL     1      38.779 -23.902 -12.744  0.00  0.00    -0.044 C 
ATOM     24  C   UNL     1      36.982 -25.096 -13.814  0.00  0.00    -0.044 C 
ATOM     25  C   UNL     1      39.752 -24.953 -13.269  0.00  0.00    +0.119 C 
ATOM     26  C   UNL     1      37.997 -26.121 -14.312  0.00  0.00    +0.119 C 
ATOM     27  H   UNL     1      37.966 -23.477 -14.566  0.00  0.00    -0.079 HD
ENDBRANCH  20  22
ENDBRANCH   7  20
BRANCH   9  28
ATOM     28  C   UNL     1      34.324 -21.375 -18.729  0.00  0.00    +0.057 C 
BRANCH  28  31
ATOM     29 CL   UNL     1      36.003 -16.588 -21.995  0.00  0.00    -0.082 Cl
ATOM     30  F   UNL     1      32.538 -19.916 -20.391  0.00  0.00    -0.204 F 
ATOM     31  C   UNL     1      34.746 -20.167 -19.554  0.00  0.00    +0.007 C 
ATOM     32  C   UNL     1      33.811 -19.500 -20.348  0.00  0.00    +0.137 C 
ATOM     33  C   UNL     1      36.069 -19.726 -19.515  0.00  0.00    -0.001 C 
ATOM     34  C   UNL     1      34.201 -18.393 -21.103  0.00  0.00    +0.041 C 
ATOM     35  C   UNL     1      36.458 -18.619 -20.270  0.00  0.00    +0.011 C 
ATOM     36  C   UNL     1      35.523 -17.953 -21.064  0.00  0.00    +0.060 C 
ENDBRANCH  28  31
ENDBRANCH   9  28
TORSDOF 4
ENDMDL
MODEL 5
REMARK VINA RESULT:      -9.7      3.871      7.075
REMARK  Name = 46213929
REMARK  4 active torsions:
REMARK  status: ('A' for Active; 'I' for Inactive)
REMARK    1  A    between atoms: C_7  and  C_20
REMARK    2  A    between atoms: C_9  and  C_28
REMARK    3  A    between atoms: C_20  and  N_22
REMARK    4  A    between atoms: C_28  and  C_31
REMARK                            x       y       z     vdW  Elec       q    Type
REMARK                         _______ _______ _______ _____ _____    ______ ____
ROOT
ATOM      1  N   UNL     1      34.649 -22.458 -15.980  0.00  0.00    -0.179 N 
ATOM      2  N   UNL     1      34.895 -23.476 -14.014  0.00  0.00    -0.393 NA
ATOM      3  N   UNL     1      34.917 -21.714 -17.081  0.00  0.00    -0.160 NA
ATOM      4  N   UNL     1      36.494 -20.406 -18.181  0.00  0.00    -0.281 N 
ATOM      5  N   UNL     1      34.472 -20.509 -19.525  0.00  0.00    -0.166 NA
ATOM      6  N   UNL     1      34.181 -19.955 -20.714  0.00  0.00    -0.239 N 
ATOM      7  C   UNL     1      36.787 -22.132 -14.932  0.00  0.00    +0.005 C 
ATOM      8  C   UNL     1      35.486 -22.708 -14.910  0.00  0.00    +0.196 C 
ATOM      9  C   UNL     1      33.470 -23.110 -15.731  0.00  0.00    +0.151 C 
ATOM     10  C   UNL     1      37.109 -21.383 -16.001  0.00  0.00    +0.034 C 
ATOM     11  C   UNL     1      33.647 -23.728 -14.517  0.00  0.00    +0.109 C 
ATOM     12  C   UNL     1      36.114 -21.182 -17.108  0.00  0.00    +0.151 C 
ATOM     13  C   UNL     1      32.697 -24.565 -13.768  0.00  0.00    +0.063 C 
ATOM     14  C   UNL     1      35.724 -20.100 -19.298  0.00  0.00    +0.152 C 
ATOM     15  C   UNL     1      36.228 -19.292 -20.335  0.00  0.00    +0.048 C 
ATOM     16  C   UNL     1      35.199 -19.217 -21.242  0.00  0.00    +0.046 C 
ATOM     17  C   UNL     1      35.079 -18.529 -22.538  0.00  0.00    +0.049 C 
ATOM     18  H   UNL     1      37.402 -20.029 -18.153  0.00  0.00    +0.155 HD
ATOM     19  H   UNL     1      33.314 -20.072 -21.163  0.00  0.00    +0.174 HD
ENDROOT
BRANCH   7  20
ATOM     20  C   UNL     1      37.792 -22.329 -13.827  0.00  0.00    -0.046 C 
BRANCH  20  22
ATOM     21  O   UNL     1      37.495 -24.574 -10.293  0.00  0.00    -0.358 OA
ATOM     22  N   UNL     1      37.278 -23.216 -12.785  0.00  0.00    +0.393 N 
ATOM     23  C   UNL     1      38.147 -24.389 -12.622  0.00  0.00    -0.044 C 
ATOM     24  C   UNL     1      37.151 -22.501 -11.507  0.00  0.00    -0.044 C 
ATOM     25  C   UNL     1      37.597 -25.292 -11.523  0.00  0.00    +0.119 C 
ATOM     26  C   UNL     1      36.626 -23.449 -10.433  0.00  0.00    +0.119 C 
ATOM     27  H   UNL     1      36.352 -23.533 -13.073  0.00  0.00    -0.079 HD
ENDBRANCH  20  22
ENDBRANCH   7  20
BRANCH   9  28
ATOM     28  C   UNL     1      32.321 -23.079 -16.655  0.00  0.00    +0.057 C 
BRANCH  28  31
ATOM     29 CL   UNL     1      27.018 -21.950 -14.008  0.00  0.00    -0.082 Cl
ATOM     30  F   UNL     1      30.417 -25.102 -16.049  0.00  0.00    -0.204 F 
ATOM     31  C   UNL     1      30.982 -22.797 -15.988  0.00  0.00    +0.007 C 
ATOM     32  C   UNL     1      30.097 -23.843 -15.721  0.00  0.00    +0.137 C 
ATOM     33  C   UNL     1      30.640 -21.489 -15.641  0.00  0.00    -0.001 C 
ATOM     34  C   UNL     1      28.872 -23.580 -15.109  0.00  0.00    +0.041 C 
ATOM     35  C   UNL     1      29.414 -21.227 -15.030  0.00  0.00    +0.011 C 
ATOM     36  C   UNL     1      28.530 -22.273 -14.763  0.00  0.00    +0.060 C 
ENDBRANCH  28  31
ENDBRANCH   9  28
TORSDOF 4
ENDMDL
MODEL 6
REMARK VINA RESULT:      -9.5     12.244     16.309
REMARK  Name = 46213929
REMARK  4 active torsions:
REMARK  status: ('A' for Active; 'I' for Inactive)
REMARK    1  A    between atoms: C_7  and  C_20
REMARK    2  A    between atoms: C_9  and  C_28
REMARK    3  A    between atoms: C_20  and  N_22
REMARK    4  A    between atoms: C_28  and  C_31
REMARK                            x       y       z     vdW  Elec       q    Type
REMARK                         _______ _______ _______ _____ _____    ______ ____
ROOT
ATOM      1  N   UNL     1      34.091 -10.608 -23.336  0.00  0.00    -0.179 N 
ATOM      2  N   UNL     1      34.806 -11.045 -25.399  0.00  0.00    -0.393 NA
ATOM      3  N   UNL     1      33.518 -10.765 -22.116  0.00  0.00    -0.160 NA
ATOM      4  N   UNL     1      32.392 -12.220 -20.694  0.00  0.00    -0.281 N 
ATOM      5  N   UNL     1      32.689 -10.084 -19.573  0.00  0.00    -0.166 NA
ATOM      6  N   UNL     1      32.316  -9.678 -18.348  0.00  0.00    -0.239 N 
ATOM      7  C   UNL     1      33.619 -12.830 -24.121  0.00  0.00    +0.005 C 
ATOM      8  C   UNL     1      34.181 -11.542 -24.349  0.00  0.00    +0.196 C 
ATOM      9  C   UNL     1      34.695  -9.464 -23.786  0.00  0.00    +0.151 C 
ATOM     10  C   UNL     1      33.037 -13.044 -22.928  0.00  0.00    +0.034 C 
ATOM     11  C   UNL     1      35.126  -9.758 -25.057  0.00  0.00    +0.109 C 
ATOM     12  C   UNL     1      33.000 -11.949 -21.900  0.00  0.00    +0.151 C 
ATOM     13  C   UNL     1      35.841  -8.891 -26.007  0.00  0.00    +0.063 C 
ATOM     14  C   UNL     1      32.254 -11.346 -19.620  0.00  0.00    +0.152 C 
ATOM     15  C   UNL     1      31.610 -11.744 -18.433  0.00  0.00    +0.048 C 
ATOM     16  C   UNL     1      31.667 -10.635 -17.624  0.00  0.00    +0.046 C 
ATOM     17  C   UNL     1      31.179 -10.389 -16.257  0.00  0.00    +0.049 C 
ATOM     18  H   UNL     1      32.018 -13.123 -20.581  0.00  0.00    +0.155 HD
ATOM     19  H   UNL     1      32.496  -8.775 -18.003  0.00  0.00    +0.174 HD
ENDROOT
BRANCH   7  20
ATOM     20  C   UNL     1      33.652 -13.934 -25.145  0.00  0.00    -0.046 C 
BRANCH  20  22
ATOM     21  O   UNL     1      34.781 -17.875 -24.245  0.00  0.00    -0.358 OA
ATOM     22  N   UNL     1      33.711 -15.251 -24.515  0.00  0.00    +0.393 N 
ATOM     23  C   UNL     1      33.405 -16.310 -25.486  0.00  0.00    -0.044 C 
ATOM     24  C   UNL     1      35.032 -15.484 -23.915  0.00  0.00    -0.044 C 
ATOM     25  C   UNL     1      33.484 -17.673 -24.808  0.00  0.00    +0.119 C 
ATOM     26  C   UNL     1      35.074 -16.868 -23.275  0.00  0.00    +0.119 C 
ATOM     27  H   UNL     1      33.009 -15.274 -23.774  0.00  0.00    -0.079 HD
ENDBRANCH  20  22
ENDBRANCH   7  20
BRANCH   9  28
ATOM     28  C   UNL     1      34.799  -8.234 -22.979  0.00  0.00    +0.057 C 
BRANCH  28  31
ATOM     29 CL   UNL     1      31.153  -3.764 -24.747  0.00  0.00    -0.082 Cl
ATOM     30  F   UNL     1      32.282  -7.702 -21.769  0.00  0.00    -0.204 F 
ATOM     31  C   UNL     1      33.877  -7.107 -23.424  0.00  0.00    +0.007 C 
ATOM     32  C   UNL     1      32.654  -6.907 -22.780  0.00  0.00    +0.137 C 
ATOM     33  C   UNL     1      34.256  -6.273 -24.475  0.00  0.00    -0.001 C 
ATOM     34  C   UNL     1      31.813  -5.872 -23.190  0.00  0.00    +0.041 C 
ATOM     35  C   UNL     1      33.414  -5.239 -24.885  0.00  0.00    +0.011 C 
ATOM     36  C   UNL     1      32.192  -5.039 -24.242  0.00  0.00    +0.060 C 
ENDBRANCH  28  31
ENDBRANCH   9  28
TORSDOF 4
ENDMDL
MODEL 7
REMARK VINA RESULT:      -9.4      4.029      8.606
REMARK  Name = 46213929
REMARK  4 active torsions:
REMARK  status: ('A' for Active; 'I' for Inactive)
REMARK    1  A    between atoms: C_7  and  C_20
REMARK    2  A    between atoms: C_9  and  C_28
REMARK    3  A    between atoms: C_20  and  N_22
REMARK    4  A    between atoms: C_28  and  C_31
REMARK                            x       y       z     vdW  Elec       q    Type
REMARK                         _______ _______ _______ _____ _____    ______ ____
ROOT
ATOM      1  N   UNL     1      35.341 -21.055 -17.827  0.00  0.00    -0.179 N 
ATOM      2  N   UNL     1      37.504 -20.673 -18.199  0.00  0.00    -0.393 NA
ATOM      3  N   UNL     1      34.199 -21.500 -17.248  0.00  0.00    -0.160 NA
ATOM      4  N   UNL     1      33.278 -22.690 -15.475  0.00  0.00    -0.281 N 
ATOM      5  N   UNL     1      31.487 -21.896 -16.913  0.00  0.00    -0.166 NA
ATOM      6  N   UNL     1      30.155 -22.047 -16.818  0.00  0.00    -0.239 N 
ATOM      7  C   UNL     1      36.831 -21.998 -16.193  0.00  0.00    +0.005 C 
ATOM      8  C   UNL     1      36.636 -21.249 -17.388  0.00  0.00    +0.196 C 
ATOM      9  C   UNL     1      35.411 -20.317 -18.979  0.00  0.00    +0.151 C 
ATOM     10  C   UNL     1      35.733 -22.464 -15.575  0.00  0.00    +0.034 C 
ATOM     11  C   UNL     1      36.751 -20.095 -19.186  0.00  0.00    +0.109 C 
ATOM     12  C   UNL     1      34.371 -22.190 -16.147  0.00  0.00    +0.151 C 
ATOM     13  C   UNL     1      37.399 -19.355 -20.280  0.00  0.00    +0.063 C 
ATOM     14  C   UNL     1      31.943 -22.548 -15.839  0.00  0.00    +0.152 C 
ATOM     15  C   UNL     1      30.910 -23.109 -15.064  0.00  0.00    +0.048 C 
ATOM     16  C   UNL     1      29.758 -22.765 -15.728  0.00  0.00    +0.046 C 
ATOM     17  C   UNL     1      28.340 -23.039 -15.444  0.00  0.00    +0.049 C 
ATOM     18  H   UNL     1      33.461 -23.202 -14.654  0.00  0.00    +0.155 HD
ATOM     19  H   UNL     1      29.525 -21.673 -17.473  0.00  0.00    +0.174 HD
ENDROOT
BRANCH   7  20
ATOM     20  C   UNL     1      38.192 -22.278 -15.612  0.00  0.00    -0.046 C 
BRANCH  20  22
ATOM     21  O   UNL     1      39.060 -24.916 -12.466  0.00  0.00    -0.358 OA
ATOM     22  N   UNL     1      38.173 -23.448 -14.737  0.00  0.00    +0.393 N 
ATOM     23  C   UNL     1      39.488 -24.102 -14.710  0.00  0.00    -0.044 C 
ATOM     24  C   UNL     1      37.768 -23.074 -13.375  0.00  0.00    -0.044 C 
ATOM     25  C   UNL     1      39.446 -25.312 -13.782  0.00  0.00    +0.119 C 
ATOM     26  C   UNL     1      37.767 -24.308 -12.477  0.00  0.00    +0.119 C 
ATOM     27  H   UNL     1      37.489 -24.106 -15.110  0.00  0.00    -0.079 HD
ENDBRANCH  20  22
ENDBRANCH   7  20
BRANCH   9  28
ATOM     28  C   UNL     1      34.221 -19.906 -19.747  0.00  0.00    +0.057 C 
BRANCH  28  31
ATOM     29 CL   UNL     1      35.349 -16.010 -24.213  0.00  0.00    -0.082 Cl
ATOM     30  F   UNL     1      35.009 -17.211 -19.304  0.00  0.00    -0.204 F 
ATOM     31  C   UNL     1      34.506 -18.921 -20.872  0.00  0.00    +0.007 C 
ATOM     32  C   UNL     1      34.889 -17.612 -20.577  0.00  0.00    +0.137 C 
ATOM     33  C   UNL     1      34.384 -19.329 -22.201  0.00  0.00    -0.001 C 
ATOM     34  C   UNL     1      35.150 -16.712 -21.611  0.00  0.00    +0.041 C 
ATOM     35  C   UNL     1      34.645 -18.429 -23.234  0.00  0.00    +0.011 C 
ATOM     36  C   UNL     1      35.028 -17.120 -22.939  0.00  0.00    +0.060 C 
ENDBRANCH  28  31
ENDBRANCH   9  28
TORSDOF 4
ENDMDL
MODEL 8
REMARK VINA RESULT:      -9.2     13.282     17.710
REMARK  Name = 46213929
REMARK  4 active torsions:
REMARK  status: ('A' for Active; 'I' for Inactive)
REMARK    1  A    between atoms: C_7  and  C_20
REMARK    2  A    between atoms: C_9  and  C_28
REMARK    3  A    between atoms: C_20  and  N_22
REMARK    4  A    between atoms: C_28  and  C_31
REMARK                            x       y       z     vdW  Elec       q    Type
REMARK                         _______ _______ _______ _____ _____    ______ ____
ROOT
ATOM      1  N   UNL     1      34.283  -9.232 -23.608  0.00  0.00    -0.179 N 
ATOM      2  N   UNL     1      34.624 -10.778 -25.175  0.00  0.00    -0.393 NA
ATOM      3  N   UNL     1      33.820  -8.619 -22.491  0.00  0.00    -0.160 NA
ATOM      4  N   UNL     1      32.483  -8.822 -20.599  0.00  0.00    -0.281 N 
ATOM      5  N   UNL     1      33.489  -6.611 -20.626  0.00  0.00    -0.166 NA
ATOM      6  N   UNL     1      33.378  -5.587 -19.763  0.00  0.00    -0.239 N 
ATOM      7  C   UNL     1      33.119 -11.305 -23.255  0.00  0.00    +0.005 C 
ATOM      8  C   UNL     1      33.997 -10.511 -24.045  0.00  0.00    +0.196 C 
ATOM      9  C   UNL     1      35.136  -8.674 -24.524  0.00  0.00    +0.151 C 
ATOM     10  C   UNL     1      32.630 -10.749 -22.133  0.00  0.00    +0.034 C 
ATOM     11  C   UNL     1      35.330  -9.645 -25.476  0.00  0.00    +0.109 C 
ATOM     12  C   UNL     1      33.012  -9.345 -21.758  0.00  0.00    +0.151 C 
ATOM     13  C   UNL     1      36.158  -9.584 -26.691  0.00  0.00    +0.063 C 
ATOM     14  C   UNL     1      32.712  -7.551 -20.082  0.00  0.00    +0.152 C 
ATOM     15  C   UNL     1      32.110  -7.131 -18.881  0.00  0.00    +0.048 C 
ATOM     16  C   UNL     1      32.564  -5.848 -18.700  0.00  0.00    +0.046 C 
ATOM     17  C   UNL     1      32.312  -4.855 -17.643  0.00  0.00    +0.049 C 
ATOM     18  H   UNL     1      31.882  -9.407 -20.085  0.00  0.00    +0.155 HD
ATOM     19  H   UNL     1      33.842  -4.728 -19.885  0.00  0.00    +0.174 HD
ENDROOT
BRANCH   7  20
ATOM     20  C   UNL     1      32.730 -12.713 -23.622  0.00  0.00    -0.046 C 
BRANCH  20  22
ATOM     21  O   UNL     1      35.178 -16.121 -23.510  0.00  0.00    -0.358 OA
ATOM     22  N   UNL     1      33.898 -13.587 -23.716  0.00  0.00    +0.393 N 
ATOM     23  C   UNL     1      34.207 -14.188 -22.412  0.00  0.00    -0.044 C 
ATOM     24  C   UNL     1      33.682 -14.640 -24.718  0.00  0.00    -0.044 C 
ATOM     25  C   UNL     1      35.421 -15.103 -22.538  0.00  0.00    +0.119 C 
ATOM     26  C   UNL     1      34.907 -15.546 -24.790  0.00  0.00    +0.119 C 
ATOM     27  H   UNL     1      34.692 -13.017 -24.010  0.00  0.00    -0.079 HD
ENDBRANCH  20  22
ENDBRANCH   7  20
BRANCH   9  28
ATOM     28  C   UNL     1      35.669  -7.304 -24.399  0.00  0.00    +0.057 C 
BRANCH  28  31
ATOM     29 CL   UNL     1      32.059  -3.013 -26.624  0.00  0.00    -0.082 Cl
ATOM     30  F   UNL     1      36.333  -5.729 -26.671  0.00  0.00    -0.204 F 
ATOM     31  C   UNL     1      34.760  -6.221 -24.962  0.00  0.00    +0.007 C 
ATOM     32  C   UNL     1      35.154  -5.487 -26.082  0.00  0.00    +0.137 C 
ATOM     33  C   UNL     1      33.530  -5.962 -24.357  0.00  0.00    -0.001 C 
ATOM     34  C   UNL     1      34.318  -4.495 -26.596  0.00  0.00    +0.041 C 
ATOM     35  C   UNL     1      32.694  -4.970 -24.870  0.00  0.00    +0.011 C 
ATOM     36  C   UNL     1      33.089  -4.236 -25.990  0.00  0.00    +0.060 C 
ENDBRANCH  28  31
ENDBRANCH   9  28
TORSDOF 4
ENDMDL
