MODEL 1
REMARK VINA RESULT:     -11.9      0.000      0.000
REMARK  Name = 25243828
REMARK  6 active torsions:
REMARK  status: ('A' for Active; 'I' for Inactive)
REMARK    1  A    between atoms: C_1  and  C_18
REMARK    2  A    between atoms: C_4  and  O_7
REMARK    3  A    between atoms: O_7  and  C_9
REMARK    4  A    between atoms: C_11  and  C_17
REMARK    5  A    between atoms: C_18  and  C_21
REMARK    6  A    between atoms: C_26  and  O_27
REMARK                            x       y       z     vdW  Elec       q    Type
REMARK                         _______ _______ _______ _____ _____    ______ ____
ROOT
ATOM      1  C   UNL     1      33.676 -22.782 -14.461  0.00  0.00    -0.019 C 
ATOM      2  C   UNL     1      33.831 -22.831 -15.846  0.00  0.00    +0.033 C 
ATOM      3  C   UNL     1      32.435 -22.466 -13.908  0.00  0.00    -0.004 C 
ATOM      4  C   UNL     1      32.744 -22.564 -16.679  0.00  0.00    +0.147 C 
ATOM      5  C   UNL     1      31.348 -22.199 -14.741  0.00  0.00    +0.003 C 
ATOM      6  C   UNL     1      31.502 -22.249 -16.127  0.00  0.00    +0.038 C 
ENDROOT
BRANCH   4   7
ATOM      7  O   UNL     1      32.894 -22.610 -18.031  0.00  0.00    -0.436 OA
BRANCH   7   9
ATOM      8  N   UNL     1      32.925 -20.681 -19.343  0.00  0.00    -0.210 NA
ATOM      9  C   UNL     1      33.622 -21.597 -18.633  0.00  0.00    +0.230 C 
ATOM     10  C   UNL     1      34.998 -21.574 -18.478  0.00  0.00    +0.058 C 
ATOM     11  C   UNL     1      35.023 -19.584 -19.829  0.00  0.00    +0.091 C 
ATOM     12  C   UNL     1      35.705 -20.545 -19.091  0.00  0.00    +0.010 C 
ATOM     13  C   UNL     1      33.645 -19.696 -19.924  0.00  0.00    +0.106 C 
BRANCH  11  17
ATOM     14  F   UNL     1      35.694 -18.518 -21.863  0.00  0.00    -0.166 F 
ATOM     15  F   UNL     1      35.283 -17.230 -20.166  0.00  0.00    -0.166 F 
ATOM     16  F   UNL     1      37.082 -18.451 -20.191  0.00  0.00    -0.166 F 
ATOM     17  C   UNL     1      35.751 -18.472 -20.497  0.00  0.00    +0.420 C 
ENDBRANCH  11  17
ENDBRANCH   7   9
ENDBRANCH   4   7
BRANCH   1  18
ATOM     18  C   UNL     1      34.848 -23.067 -13.562  0.00  0.00    +0.027 C 
BRANCH  18  21
ATOM     19  O   UNL     1      40.946 -23.939 -13.717  0.00  0.00    -0.226 OA
ATOM     20  N   UNL     1      38.805 -24.482 -14.449  0.00  0.00    -0.246 N 
ATOM     21  C   UNL     1      36.064 -23.540 -14.354  0.00  0.00    +0.008 C 
ATOM     22  C   UNL     1      37.257 -22.594 -14.143  0.00  0.00    +0.022 C 
ATOM     23  C   UNL     1      36.444 -24.978 -13.966  0.00  0.00    +0.022 C 
ATOM     24  C   UNL     1      38.505 -23.107 -14.859  0.00  0.00    +0.097 C 
ATOM     25  C   UNL     1      37.709 -25.429 -14.694  0.00  0.00    +0.097 C 
ATOM     26  C   UNL     1      40.055 -24.771 -13.893  0.00  0.00    +0.402 C 
BRANCH  26  27
ATOM     27  O   UNL     1      40.270 -26.066 -13.523  0.00  0.00    -0.466 OA
ATOM     28  H   UNL     1      40.665 -26.665 -14.126  0.00  0.00    +0.297 HD
ENDBRANCH  26  27
ENDBRANCH  18  21
ENDBRANCH   1  18
TORSDOF 6
ENDMDL
MODEL 2
REMARK VINA RESULT:     -11.3      5.056      9.575
REMARK  Name = 25243828
REMARK  6 active torsions:
REMARK  status: ('A' for Active; 'I' for Inactive)
REMARK    1  A    between atoms: C_1  and  C_18
REMARK    2  A    between atoms: C_4  and  O_7
REMARK    3  A    between atoms: O_7  and  C_9
REMARK    4  A    between atoms: C_11  and  C_17
REMARK    5  A    between atoms: C_18  and  C_21
REMARK    6  A    between atoms: C_26  and  O_27
REMARK                            x       y       z     vdW  Elec       q    Type
REMARK                         _______ _______ _______ _____ _____    ______ ____
ROOT
ATOM      1  C   UNL     1      35.480 -18.896 -19.995  0.00  0.00    -0.019 C 
ATOM      2  C   UNL     1      34.294 -19.550 -19.665  0.00  0.00    +0.033 C 
ATOM      3  C   UNL     1      36.699 -19.568 -19.894  0.00  0.00    -0.004 C 
ATOM      4  C   UNL     1      34.325 -20.876 -19.232  0.00  0.00    +0.147 C 
ATOM      5  C   UNL     1      36.730 -20.894 -19.461  0.00  0.00    +0.003 C 
ATOM      6  C   UNL     1      35.543 -21.548 -19.131  0.00  0.00    +0.038 C 
ENDROOT
BRANCH   4   7
ATOM      7  O   UNL     1      33.168 -21.514 -18.907  0.00  0.00    -0.436 OA
BRANCH   7   9
ATOM      8  N   UNL     1      31.758 -21.953 -17.101  0.00  0.00    -0.210 NA
ATOM      9  C   UNL     1      33.015 -21.944 -17.599  0.00  0.00    +0.230 C 
ATOM     10  C   UNL     1      34.135 -22.338 -16.886  0.00  0.00    +0.058 C 
ATOM     11  C   UNL     1      32.677 -22.792 -15.028  0.00  0.00    +0.091 C 
ATOM     12  C   UNL     1      33.955 -22.769 -15.576  0.00  0.00    +0.010 C 
ATOM     13  C   UNL     1      31.622 -22.378 -15.824  0.00  0.00    +0.106 C 
BRANCH  11  17
ATOM     14  F   UNL     1      32.001 -24.534 -13.534  0.00  0.00    -0.166 F 
ATOM     15  F   UNL     1      33.575 -23.207 -12.850  0.00  0.00    -0.166 F 
ATOM     16  F   UNL     1      31.526 -22.489 -12.969  0.00  0.00    -0.166 F 
ATOM     17  C   UNL     1      32.452 -23.246 -13.629  0.00  0.00    +0.420 C 
ENDBRANCH  11  17
ENDBRANCH   7   9
ENDBRANCH   4   7
BRANCH   1  18
ATOM     18  C   UNL     1      35.448 -17.466 -20.460  0.00  0.00    +0.027 C 
BRANCH  18  21
ATOM     19  O   UNL     1      32.329 -17.299 -25.772  0.00  0.00    -0.226 OA
ATOM     20  N   UNL     1      34.218 -16.776 -24.517  0.00  0.00    -0.246 N 
ATOM     21  C   UNL     1      35.497 -17.368 -21.983  0.00  0.00    +0.008 C 
ATOM     22  C   UNL     1      34.485 -18.328 -22.627  0.00  0.00    +0.022 C 
ATOM     23  C   UNL     1      35.238 -15.925 -22.446  0.00  0.00    +0.022 C 
ATOM     24  C   UNL     1      34.461 -18.173 -24.147  0.00  0.00    +0.097 C 
ATOM     25  C   UNL     1      35.203 -15.834 -23.971  0.00  0.00    +0.097 C 
ATOM     26  C   UNL     1      33.123 -16.468 -25.331  0.00  0.00    +0.402 C 
BRANCH  26  27
ATOM     27  O   UNL     1      32.945 -15.150 -25.633  0.00  0.00    -0.466 OA
ATOM     28  H   UNL     1      32.182 -14.877 -26.102  0.00  0.00    +0.297 HD
ENDBRANCH  26  27
ENDBRANCH  18  21
ENDBRANCH   1  18
TORSDOF 6
ENDMDL
MODEL 3
REMARK VINA RESULT:     -11.3      5.197      8.733
REMARK  Name = 25243828
REMARK  6 active torsions:
REMARK  status: ('A' for Active; 'I' for Inactive)
REMARK    1  A    between atoms: C_1  and  C_18
REMARK    2  A    between atoms: C_4  and  O_7
REMARK    3  A    between atoms: O_7  and  C_9
REMARK    4  A    between atoms: C_11  and  C_17
REMARK    5  A    between atoms: C_18  and  C_21
REMARK    6  A    between atoms: C_26  and  O_27
REMARK                            x       y       z     vdW  Elec       q    Type
REMARK                         _______ _______ _______ _____ _____    ______ ____
ROOT
ATOM      1  C   UNL     1      35.541 -17.409 -21.713  0.00  0.00    -0.019 C 
ATOM      2  C   UNL     1      35.612 -16.017 -21.714  0.00  0.00    +0.033 C 
ATOM      3  C   UNL     1      35.007 -18.082 -22.812  0.00  0.00    -0.004 C 
ATOM      4  C   UNL     1      35.149 -15.296 -22.815  0.00  0.00    +0.147 C 
ATOM      5  C   UNL     1      34.543 -17.361 -23.913  0.00  0.00    +0.003 C 
ATOM      6  C   UNL     1      34.615 -15.968 -23.915  0.00  0.00    +0.038 C 
ENDROOT
BRANCH   4   7
ATOM      7  O   UNL     1      35.216 -13.937 -22.817  0.00  0.00    -0.436 OA
BRANCH   7   9
ATOM      8  N   UNL     1      33.783 -12.112 -22.573  0.00  0.00    -0.210 NA
ATOM      9  C   UNL     1      34.297 -13.245 -22.045  0.00  0.00    +0.230 C 
ATOM     10  C   UNL     1      33.959 -13.742 -20.797  0.00  0.00    +0.058 C 
ATOM     11  C   UNL     1      32.481 -11.861 -20.552  0.00  0.00    +0.091 C 
ATOM     12  C   UNL     1      33.032 -13.031 -20.042  0.00  0.00    +0.010 C 
ATOM     13  C   UNL     1      32.886 -11.447 -21.811  0.00  0.00    +0.106 C 
BRANCH  11  17
ATOM     14  F   UNL     1      30.222 -11.120 -20.282  0.00  0.00    -0.166 F 
ATOM     15  F   UNL     1      31.358 -11.493 -18.472  0.00  0.00    -0.166 F 
ATOM     16  F   UNL     1      31.803  -9.750 -19.692  0.00  0.00    -0.166 F 
ATOM     17  C   UNL     1      31.488 -11.076 -19.768  0.00  0.00    +0.420 C 
ENDBRANCH  11  17
ENDBRANCH   7   9
ENDBRANCH   4   7
BRANCH   1  18
ATOM     18  C   UNL     1      36.038 -18.188 -20.526  0.00  0.00    +0.027 C 
BRANCH  18  21
ATOM     19  O   UNL     1      34.154 -22.733 -16.816  0.00  0.00    -0.226 OA
ATOM     20  N   UNL     1      33.928 -21.492 -18.771  0.00  0.00    -0.246 N 
ATOM     21  C   UNL     1      35.318 -19.527 -20.389  0.00  0.00    +0.008 C 
ATOM     22  C   UNL     1      36.064 -20.453 -19.415  0.00  0.00    +0.022 C 
ATOM     23  C   UNL     1      33.865 -19.322 -19.928  0.00  0.00    +0.022 C 
ATOM     24  C   UNL     1      35.303 -21.761 -19.201  0.00  0.00    +0.097 C 
ATOM     25  C   UNL     1      33.163 -20.660 -19.710  0.00  0.00    +0.097 C 
ATOM     26  C   UNL     1      33.473 -22.032 -17.564  0.00  0.00    +0.402 C 
BRANCH  26  27
ATOM     27  O   UNL     1      32.187 -21.738 -17.216  0.00  0.00    -0.466 OA
ATOM     28  H   UNL     1      31.530 -22.405 -17.247  0.00  0.00    +0.297 HD
ENDBRANCH  26  27
ENDBRANCH  18  21
ENDBRANCH   1  18
TORSDOF 6
ENDMDL
MODEL 4
REMARK VINA RESULT:     -11.2      2.967      4.412
REMARK  Name = 25243828
REMARK  6 active torsions:
REMARK  status: ('A' for Active; 'I' for Inactive)
REMARK    1  A    between atoms: C_1  and  C_18
REMARK    2  A    between atoms: C_4  and  O_7
REMARK    3  A    between atoms: O_7  and  C_9
REMARK    4  A    between atoms: C_11  and  C_17
REMARK    5  A    between atoms: C_18  and  C_21
REMARK    6  A    between atoms: C_26  and  O_27
REMARK                            x       y       z     vdW  Elec       q    Type
REMARK                         _______ _______ _______ _____ _____    ______ ____
ROOT
ATOM      1  C   UNL     1      36.354 -21.015 -17.339  0.00  0.00    -0.019 C 
ATOM      2  C   UNL     1      36.966 -20.268 -18.345  0.00  0.00    +0.033 C 
ATOM      3  C   UNL     1      35.071 -21.528 -17.531  0.00  0.00    -0.004 C 
ATOM      4  C   UNL     1      36.293 -20.031 -19.544  0.00  0.00    +0.147 C 
ATOM      5  C   UNL     1      34.398 -21.291 -18.731  0.00  0.00    +0.003 C 
ATOM      6  C   UNL     1      35.010 -20.543 -19.738  0.00  0.00    +0.038 C 
ENDROOT
BRANCH   4   7
ATOM      7  O   UNL     1      36.888 -19.300 -20.526  0.00  0.00    -0.436 OA
BRANCH   7   9
ATOM      8  N   UNL     1      35.904 -17.278 -19.904  0.00  0.00    -0.210 NA
ATOM      9  C   UNL     1      36.284 -18.111 -20.899  0.00  0.00    +0.230 C 
ATOM     10  C   UNL     1      36.105 -17.842 -22.246  0.00  0.00    +0.058 C 
ATOM     11  C   UNL     1      35.095 -15.757 -21.599  0.00  0.00    +0.091 C 
ATOM     12  C   UNL     1      35.499 -16.639 -22.595  0.00  0.00    +0.010 C 
ATOM     13  C   UNL     1      35.318 -16.119 -20.281  0.00  0.00    +0.106 C 
BRANCH  11  17
ATOM     14  F   UNL     1      35.312 -13.413 -22.027  0.00  0.00    -0.166 F 
ATOM     15  F   UNL     1      33.785 -14.479 -23.141  0.00  0.00    -0.166 F 
ATOM     16  F   UNL     1      33.506 -14.085 -21.021  0.00  0.00    -0.166 F 
ATOM     17  C   UNL     1      34.442 -14.464 -21.941  0.00  0.00    +0.420 C 
ENDBRANCH  11  17
ENDBRANCH   7   9
ENDBRANCH   4   7
BRANCH   1  18
ATOM     18  C   UNL     1      37.077 -21.270 -16.045  0.00  0.00    +0.027 C 
BRANCH  18  21
ATOM     19  O   UNL     1      37.548 -25.169 -11.296  0.00  0.00    -0.226 OA
ATOM     20  N   UNL     1      36.362 -24.325 -13.111  0.00  0.00    -0.246 N 
ATOM     21  C   UNL     1      36.670 -22.605 -15.425  0.00  0.00    +0.008 C 
ATOM     22  C   UNL     1      37.872 -23.286 -14.753  0.00  0.00    +0.022 C 
ATOM     23  C   UNL     1      35.527 -22.412 -14.414  0.00  0.00    +0.022 C 
ATOM     24  C   UNL     1      37.456 -24.579 -14.052  0.00  0.00    +0.097 C 
ATOM     25  C   UNL     1      35.169 -23.730 -13.730  0.00  0.00    +0.097 C 
ATOM     26  C   UNL     1      36.528 -24.662 -11.764  0.00  0.00    +0.402 C 
BRANCH  26  27
ATOM     27  O   UNL     1      35.478 -24.392 -10.937  0.00  0.00    -0.466 OA
ATOM     28  H   UNL     1      34.803 -23.805 -11.215  0.00  0.00    +0.297 HD
ENDBRANCH  26  27
ENDBRANCH  18  21
ENDBRANCH   1  18
TORSDOF 6
ENDMDL
MODEL 5
REMARK VINA RESULT:     -11.1      3.138      5.853
REMARK  Name = 25243828
REMARK  6 active torsions:
REMARK  status: ('A' for Active; 'I' for Inactive)
REMARK    1  A    between atoms: C_1  and  C_18
REMARK    2  A    between atoms: C_4  and  O_7
REMARK    3  A    between atoms: O_7  and  C_9
REMARK    4  A    between atoms: C_11  and  C_17
REMARK    5  A    between atoms: C_18  and  C_21
REMARK    6  A    between atoms: C_26  and  O_27
REMARK                            x       y       z     vdW  Elec       q    Type
REMARK                         _______ _______ _______ _____ _____    ______ ____
ROOT
ATOM      1  C   UNL     1      33.665 -23.430 -14.263  0.00  0.00    -0.019 C 
ATOM      2  C   UNL     1      33.351 -23.441 -15.621  0.00  0.00    +0.033 C 
ATOM      3  C   UNL     1      34.797 -22.750 -13.813  0.00  0.00    -0.004 C 
ATOM      4  C   UNL     1      34.170 -22.773 -16.532  0.00  0.00    +0.147 C 
ATOM      5  C   UNL     1      35.616 -22.082 -14.723  0.00  0.00    +0.003 C 
ATOM      6  C   UNL     1      35.303 -22.093 -16.083  0.00  0.00    +0.038 C 
ENDROOT
BRANCH   4   7
ATOM      7  O   UNL     1      33.866 -22.786 -17.858  0.00  0.00    -0.436 OA
BRANCH   7   9
ATOM      8  N   UNL     1      35.552 -21.564 -18.911  0.00  0.00    -0.210 NA
ATOM      9  C   UNL     1      34.239 -21.687 -18.615  0.00  0.00    +0.230 C 
ATOM     10  C   UNL     1      33.264 -20.791 -19.022  0.00  0.00    +0.058 C 
ATOM     11  C   UNL     1      35.006 -19.536 -20.108  0.00  0.00    +0.091 C 
ATOM     12  C   UNL     1      33.663 -19.697 -19.784  0.00  0.00    +0.010 C 
ATOM     13  C   UNL     1      35.903 -20.489 -19.652  0.00  0.00    +0.106 C 
BRANCH  11  17
ATOM     14  F   UNL     1      35.112 -17.163 -20.395  0.00  0.00    -0.166 F 
ATOM     15  F   UNL     1      36.822 -18.314 -21.072  0.00  0.00    -0.166 F 
ATOM     16  F   UNL     1      34.957 -18.384 -22.187  0.00  0.00    -0.166 F 
ATOM     17  C   UNL     1      35.464 -18.376 -20.919  0.00  0.00    +0.420 C 
ENDBRANCH  11  17
ENDBRANCH   7   9
ENDBRANCH   4   7
BRANCH   1  18
ATOM     18  C   UNL     1      32.784 -24.151 -13.280  0.00  0.00    +0.027 C 
BRANCH  18  21
ATOM     19  O   UNL     1      28.415 -21.645 -16.831  0.00  0.00    -0.226 OA
ATOM     20  N   UNL     1      29.048 -23.068 -15.102  0.00  0.00    -0.246 N 
ATOM     21  C   UNL     1      31.320 -23.744 -13.432  0.00  0.00    +0.008 C 
ATOM     22  C   UNL     1      31.200 -22.380 -14.128  0.00  0.00    +0.022 C 
ATOM     23  C   UNL     1      30.533 -24.814 -14.207  0.00  0.00    +0.022 C 
ATOM     24  C   UNL     1      29.738 -22.005 -14.367  0.00  0.00    +0.097 C 
ATOM     25  C   UNL     1      29.087 -24.377 -14.435  0.00  0.00    +0.097 C 
ATOM     26  C   UNL     1      28.427 -22.764 -16.318  0.00  0.00    +0.402 C 
BRANCH  26  27
ATOM     27  O   UNL     1      27.810 -23.798 -16.958  0.00  0.00    -0.466 OA
ATOM     28  H   UNL     1      28.176 -24.146 -17.747  0.00  0.00    +0.297 HD
ENDBRANCH  26  27
ENDBRANCH  18  21
ENDBRANCH   1  18
TORSDOF 6
ENDMDL
MODEL 6
REMARK VINA RESULT:     -11.0      4.006      7.766
REMARK  Name = 25243828
REMARK  6 active torsions:
REMARK  status: ('A' for Active; 'I' for Inactive)
REMARK    1  A    between atoms: C_1  and  C_18
REMARK    2  A    between atoms: C_4  and  O_7
REMARK    3  A    between atoms: O_7  and  C_9
REMARK    4  A    between atoms: C_11  and  C_17
REMARK    5  A    between atoms: C_18  and  C_21
REMARK    6  A    between atoms: C_26  and  O_27
REMARK                            x       y       z     vdW  Elec       q    Type
REMARK                         _______ _______ _______ _____ _____    ______ ____
ROOT
ATOM      1  C   UNL     1      33.822 -22.436 -16.942  0.00  0.00    -0.019 C 
ATOM      2  C   UNL     1      34.542 -22.750 -15.789  0.00  0.00    +0.033 C 
ATOM      3  C   UNL     1      32.440 -22.254 -16.875  0.00  0.00    -0.004 C 
ATOM      4  C   UNL     1      33.880 -22.882 -14.569  0.00  0.00    +0.147 C 
ATOM      5  C   UNL     1      31.779 -22.386 -15.654  0.00  0.00    +0.003 C 
ATOM      6  C   UNL     1      32.498 -22.700 -14.500  0.00  0.00    +0.038 C 
ENDROOT
BRANCH   4   7
ATOM      7  O   UNL     1      34.581 -23.190 -13.443  0.00  0.00    -0.436 OA
BRANCH   7   9
ATOM      8  N   UNL     1      36.863 -22.801 -13.159  0.00  0.00    -0.210 NA
ATOM      9  C   UNL     1      35.886 -23.626 -13.597  0.00  0.00    +0.230 C 
ATOM     10  C   UNL     1      36.117 -24.863 -14.178  0.00  0.00    +0.058 C 
ATOM     11  C   UNL     1      38.469 -24.457 -13.879  0.00  0.00    +0.091 C 
ATOM     12  C   UNL     1      37.437 -25.279 -14.318  0.00  0.00    +0.010 C 
ATOM     13  C   UNL     1      38.133 -23.239 -13.312  0.00  0.00    +0.106 C 
BRANCH  11  17
ATOM     14  F   UNL     1      40.082 -26.224 -13.920  0.00  0.00    -0.166 F 
ATOM     15  F   UNL     1      40.454 -24.523 -15.213  0.00  0.00    -0.166 F 
ATOM     16  F   UNL     1      40.699 -24.325 -13.062  0.00  0.00    -0.166 F 
ATOM     17  C   UNL     1      39.891 -24.874 -14.017  0.00  0.00    +0.420 C 
ENDBRANCH  11  17
ENDBRANCH   7   9
ENDBRANCH   4   7
BRANCH   1  18
ATOM     18  C   UNL     1      34.534 -22.295 -18.260  0.00  0.00    +0.027 C 
BRANCH  18  21
ATOM     19  O   UNL     1      36.436 -18.229 -22.481  0.00  0.00    -0.226 OA
ATOM     20  N   UNL     1      34.943 -18.866 -20.814  0.00  0.00    -0.246 N 
ATOM     21  C   UNL     1      34.581 -20.841 -18.721  0.00  0.00    +0.008 C 
ATOM     22  C   UNL     1      35.971 -20.487 -19.274  0.00  0.00    +0.022 C 
ATOM     23  C   UNL     1      33.498 -20.566 -19.777  0.00  0.00    +0.022 C 
ATOM     24  C   UNL     1      36.003 -19.060 -19.822  0.00  0.00    +0.097 C 
ATOM     25  C   UNL     1      33.592 -19.135 -20.303  0.00  0.00    +0.097 C 
ATOM     26  C   UNL     1      35.285 -18.451 -22.105  0.00  0.00    +0.402 C 
BRANCH  26  27
ATOM     27  O   UNL     1      34.254 -18.297 -22.985  0.00  0.00    -0.466 OA
ATOM     28  H   UNL     1      33.681 -17.560 -22.910  0.00  0.00    +0.297 HD
ENDBRANCH  26  27
ENDBRANCH  18  21
ENDBRANCH   1  18
TORSDOF 6
ENDMDL
MODEL 7
REMARK VINA RESULT:     -11.0      5.859     10.818
REMARK  Name = 25243828
REMARK  6 active torsions:
REMARK  status: ('A' for Active; 'I' for Inactive)
REMARK    1  A    between atoms: C_1  and  C_18
REMARK    2  A    between atoms: C_4  and  O_7
REMARK    3  A    between atoms: O_7  and  C_9
REMARK    4  A    between atoms: C_11  and  C_17
REMARK    5  A    between atoms: C_18  and  C_21
REMARK    6  A    between atoms: C_26  and  O_27
REMARK                            x       y       z     vdW  Elec       q    Type
REMARK                         _______ _______ _______ _____ _____    ______ ____
ROOT
ATOM      1  C   UNL     1      35.094 -15.439 -22.639  0.00  0.00    -0.019 C 
ATOM      2  C   UNL     1      35.806 -16.199 -21.711  0.00  0.00    +0.033 C 
ATOM      3  C   UNL     1      34.469 -16.062 -23.720  0.00  0.00    -0.004 C 
ATOM      4  C   UNL     1      35.894 -17.583 -21.864  0.00  0.00    +0.147 C 
ATOM      5  C   UNL     1      34.557 -17.446 -23.873  0.00  0.00    +0.003 C 
ATOM      6  C   UNL     1      35.269 -18.207 -22.944  0.00  0.00    +0.038 C 
ENDROOT
BRANCH   4   7
ATOM      7  O   UNL     1      36.590 -18.325 -20.961  0.00  0.00    -0.436 OA
BRANCH   7   9
ATOM      8  N   UNL     1      36.593 -19.986 -19.323  0.00  0.00    -0.210 NA
ATOM      9  C   UNL     1      35.879 -19.218 -20.176  0.00  0.00    +0.230 C 
ATOM     10  C   UNL     1      34.501 -19.275 -20.304  0.00  0.00    +0.058 C 
ATOM     11  C   UNL     1      34.510 -20.986 -18.613  0.00  0.00    +0.091 C 
ATOM     12  C   UNL     1      33.810 -20.179 -19.503  0.00  0.00    +0.010 C 
ATOM     13  C   UNL     1      35.888 -20.853 -18.561  0.00  0.00    +0.106 C 
BRANCH  11  17
ATOM     14  F   UNL     1      34.378 -22.132 -16.517  0.00  0.00    -0.166 F 
ATOM     15  F   UNL     1      32.502 -21.622 -17.479  0.00  0.00    -0.166 F 
ATOM     16  F   UNL     1      33.741 -23.213 -18.292  0.00  0.00    -0.166 F 
ATOM     17  C   UNL     1      33.800 -21.963 -17.744  0.00  0.00    +0.420 C 
ENDBRANCH  11  17
ENDBRANCH   7   9
ENDBRANCH   4   7
BRANCH   1  18
ATOM     18  C   UNL     1      35.000 -13.946 -22.477  0.00  0.00    +0.027 C 
BRANCH  18  21
ATOM     19  O   UNL     1      31.763 -11.092 -18.079  0.00  0.00    -0.226 OA
ATOM     20  N   UNL     1      31.985 -11.820 -20.277  0.00  0.00    -0.246 N 
ATOM     21  C   UNL     1      33.630 -13.522 -21.952  0.00  0.00    +0.008 C 
ATOM     22  C   UNL     1      33.542 -13.719 -20.430  0.00  0.00    +0.022 C 
ATOM     23  C   UNL     1      33.332 -12.060 -22.322  0.00  0.00    +0.022 C 
ATOM     24  C   UNL     1      32.208 -13.214 -19.882  0.00  0.00    +0.097 C 
ATOM     25  C   UNL     1      31.999 -11.603 -21.730  0.00  0.00    +0.097 C 
ATOM     26  C   UNL     1      31.775 -10.856 -19.287  0.00  0.00    +0.402 C 
BRANCH  26  27
ATOM     27  O   UNL     1      31.582  -9.576 -19.718  0.00  0.00    -0.466 OA
ATOM     28  H   UNL     1      31.832  -8.856 -19.174  0.00  0.00    +0.297 HD
ENDBRANCH  26  27
ENDBRANCH  18  21
ENDBRANCH   1  18
TORSDOF 6
ENDMDL
MODEL 8
REMARK VINA RESULT:     -10.9      4.922      9.239
REMARK  Name = 25243828
REMARK  6 active torsions:
REMARK  status: ('A' for Active; 'I' for Inactive)
REMARK    1  A    between atoms: C_1  and  C_18
REMARK    2  A    between atoms: C_4  and  O_7
REMARK    3  A    between atoms: O_7  and  C_9
REMARK    4  A    between atoms: C_11  and  C_17
REMARK    5  A    between atoms: C_18  and  C_21
REMARK    6  A    between atoms: C_26  and  O_27
REMARK                            x       y       z     vdW  Elec       q    Type
REMARK                         _______ _______ _______ _____ _____    ______ ____
ROOT
ATOM      1  C   UNL     1      34.999 -20.515 -18.951  0.00  0.00    -0.019 C 
ATOM      2  C   UNL     1      34.416 -21.345 -17.995  0.00  0.00    +0.033 C 
ATOM      3  C   UNL     1      36.366 -20.242 -18.899  0.00  0.00    -0.004 C 
ATOM      4  C   UNL     1      35.200 -21.903 -16.984  0.00  0.00    +0.147 C 
ATOM      5  C   UNL     1      37.150 -20.799 -17.888  0.00  0.00    +0.003 C 
ATOM      6  C   UNL     1      36.567 -21.630 -16.931  0.00  0.00    +0.038 C 
ENDROOT
BRANCH   4   7
ATOM      7  O   UNL     1      34.631 -22.712 -16.049  0.00  0.00    -0.436 OA
BRANCH   7   9
ATOM      8  N   UNL     1      35.869 -24.511 -15.230  0.00  0.00    -0.210 NA
ATOM      9  C   UNL     1      35.453 -23.236 -15.065  0.00  0.00    +0.230 C 
ATOM     10  C   UNL     1      35.801 -22.440 -13.986  0.00  0.00    +0.058 C 
ATOM     11  C   UNL     1      37.078 -24.298 -13.148  0.00  0.00    +0.091 C 
ATOM     12  C   UNL     1      36.630 -22.988 -13.013  0.00  0.00    +0.010 C 
ATOM     13  C   UNL     1      36.673 -25.011 -14.264  0.00  0.00    +0.106 C 
BRANCH  11  17
ATOM     14  F   UNL     1      37.505 -26.110 -11.644  0.00  0.00    -0.166 F 
ATOM     15  F   UNL     1      39.228 -25.176 -12.575  0.00  0.00    -0.166 F 
ATOM     16  F   UNL     1      38.129 -24.122 -11.022  0.00  0.00    -0.166 F 
ATOM     17  C   UNL     1      37.964 -24.914 -12.123  0.00  0.00    +0.420 C 
ENDBRANCH  11  17
ENDBRANCH   7   9
ENDBRANCH   4   7
BRANCH   1  18
ATOM     18  C   UNL     1      34.154 -19.911 -20.040  0.00  0.00    +0.027 C 
BRANCH  18  21
ATOM     19  O   UNL     1      34.380 -15.513 -24.350  0.00  0.00    -0.226 OA
ATOM     20  N   UNL     1      35.418 -16.787 -22.703  0.00  0.00    -0.246 N 
ATOM     21  C   UNL     1      35.001 -19.124 -21.038  0.00  0.00    +0.008 C 
ATOM     22  C   UNL     1      34.243 -18.921 -22.359  0.00  0.00    +0.022 C 
ATOM     23  C   UNL     1      35.422 -17.768 -20.447  0.00  0.00    +0.022 C 
ATOM     24  C   UNL     1      35.044 -18.057 -23.331  0.00  0.00    +0.097 C 
ATOM     25  C   UNL     1      36.199 -16.940 -21.468  0.00  0.00    +0.097 C 
ATOM     26  C   UNL     1      35.028 -15.587 -23.306  0.00  0.00    +0.402 C 
BRANCH  26  27
ATOM     27  O   UNL     1      35.399 -14.440 -22.668  0.00  0.00    -0.466 OA
ATOM     28  H   UNL     1      34.818 -14.039 -22.052  0.00  0.00    +0.297 HD
ENDBRANCH  26  27
ENDBRANCH  18  21
ENDBRANCH   1  18
TORSDOF 6
ENDMDL
MODEL 9
REMARK VINA RESULT:     -10.9      9.384     12.739
REMARK  Name = 25243828
REMARK  6 active torsions:
REMARK  status: ('A' for Active; 'I' for Inactive)
REMARK    1  A    between atoms: C_1  and  C_18
REMARK    2  A    between atoms: C_4  and  O_7
REMARK    3  A    between atoms: O_7  and  C_9
REMARK    4  A    between atoms: C_11  and  C_17
REMARK    5  A    between atoms: C_18  and  C_21
REMARK    6  A    between atoms: C_26  and  O_27
REMARK                            x       y       z     vdW  Elec       q    Type
REMARK                         _______ _______ _______ _____ _____    ______ ____
ROOT
ATOM      1  C   UNL     1      31.988 -11.195 -19.775  0.00  0.00    -0.019 C 
ATOM      2  C   UNL     1      32.120 -10.243 -20.785  0.00  0.00    +0.033 C 
ATOM      3  C   UNL     1      31.859 -10.789 -18.446  0.00  0.00    -0.004 C 
ATOM      4  C   UNL     1      32.124  -8.885 -20.467  0.00  0.00    +0.147 C 
ATOM      5  C   UNL     1      31.864  -9.431 -18.128  0.00  0.00    +0.003 C 
ATOM      6  C   UNL     1      31.996  -8.478 -19.139  0.00  0.00    +0.038 C 
ENDROOT
BRANCH   4   7
ATOM      7  O   UNL     1      32.255  -7.955 -21.452  0.00  0.00    -0.436 OA
BRANCH   7   9
ATOM      8  N   UNL     1      32.832  -9.069 -23.419  0.00  0.00    -0.210 NA
ATOM      9  C   UNL     1      33.187  -8.198 -22.448  0.00  0.00    +0.230 C 
ATOM     10  C   UNL     1      34.408  -7.546 -22.398  0.00  0.00    +0.058 C 
ATOM     11  C   UNL     1      34.996  -8.696 -24.428  0.00  0.00    +0.091 C 
ATOM     12  C   UNL     1      35.325  -7.805 -23.412  0.00  0.00    +0.010 C 
ATOM     13  C   UNL     1      33.749  -9.296 -24.386  0.00  0.00    +0.106 C 
BRANCH  11  17
ATOM     14  F   UNL     1      37.199  -9.360 -25.085  0.00  0.00    -0.166 F 
ATOM     15  F   UNL     1      35.557 -10.016 -26.342  0.00  0.00    -0.166 F 
ATOM     16  F   UNL     1      36.164  -7.928 -26.352  0.00  0.00    -0.166 F 
ATOM     17  C   UNL     1      35.957  -8.995 -25.525  0.00  0.00    +0.420 C 
ENDBRANCH  11  17
ENDBRANCH   7   9
ENDBRANCH   4   7
BRANCH   1  18
ATOM     18  C   UNL     1      31.985 -12.660 -20.116  0.00  0.00    +0.027 C 
BRANCH  18  21
ATOM     19  O   UNL     1      35.584 -17.410 -21.680  0.00  0.00    -0.226 OA
ATOM     20  N   UNL     1      35.111 -15.133 -21.716  0.00  0.00    -0.246 N 
ATOM     21  C   UNL     1      33.379 -13.152 -20.497  0.00  0.00    +0.008 C 
ATOM     22  C   UNL     1      33.695 -14.490 -19.810  0.00  0.00    +0.022 C 
ATOM     23  C   UNL     1      33.511 -13.288 -22.023  0.00  0.00    +0.022 C 
ATOM     24  C   UNL     1      35.050 -15.036 -20.256  0.00  0.00    +0.097 C 
ATOM     25  C   UNL     1      34.875 -13.858 -22.408  0.00  0.00    +0.097 C 
ATOM     26  C   UNL     1      35.385 -16.370 -22.307  0.00  0.00    +0.402 C 
BRANCH  26  27
ATOM     27  O   UNL     1      35.418 -16.397 -23.670  0.00  0.00    -0.466 OA
ATOM     28  H   UNL     1      35.519 -17.213 -24.120  0.00  0.00    +0.297 HD
ENDBRANCH  26  27
ENDBRANCH  18  21
ENDBRANCH   1  18
TORSDOF 6
ENDMDL
