MODEL 1
REMARK VINA RESULT:     -12.0      0.000      0.000
REMARK  Name = 4249
REMARK  7 active torsions:
REMARK  status: ('A' for Active; 'I' for Inactive)
REMARK    1  A    between atoms: N_1  and  C_17
REMARK    2  A    between atoms: C_2  and  C_8
REMARK    3  A    between atoms: C_2  and  O_15
REMARK    4  A    between atoms: C_17  and  C_18
REMARK    5  A    between atoms: C_18  and  C_19
REMARK    6  A    between atoms: C_19  and  C_21
REMARK    7  A    between atoms: C_21  and  C_23
REMARK                            x       y       z     vdW  Elec       q    Type
REMARK                         _______ _______ _______ _____ _____    ______ ____
ROOT
ATOM      1  N   UNL     1      33.409 -22.646 -14.955  0.00  0.00    +0.387 N 
ATOM      2  C   UNL     1      34.053 -22.006 -17.783  0.00  0.00    +0.103 C 
ATOM      3  C   UNL     1      35.108 -22.085 -16.657  0.00  0.00    +0.008 C 
ATOM      4  C   UNL     1      32.670 -21.742 -17.144  0.00  0.00    +0.008 C 
ATOM      5  C   UNL     1      34.705 -23.034 -15.522  0.00  0.00    -0.075 C 
ATOM      6  C   UNL     1      32.355 -22.682 -15.973  0.00  0.00    -0.075 C 
ATOM      7  H   UNL     1      33.489 -21.686 -14.616  0.00  0.00    -0.080 HD
ENDROOT
BRANCH   2   8
ATOM      8  C   UNL     1      34.346 -20.972 -18.871  0.00  0.00    +0.002 C 
ATOM      9  C   UNL     1      33.293 -20.346 -19.536  0.00  0.00    -0.002 C 
ATOM     10  C   UNL     1      35.664 -20.656 -19.195  0.00  0.00    -0.002 C 
ATOM     11  C   UNL     1      33.561 -19.401 -20.528  0.00  0.00    -0.005 C 
ATOM     12  C   UNL     1      35.931 -19.713 -20.186  0.00  0.00    -0.005 C 
ATOM     13  C   UNL     1      34.879 -19.085 -20.853  0.00  0.00    -0.022 C 
ATOM     14  C   UNL     1      35.164 -18.076 -21.914  0.00  0.00    +0.031 C 
ENDBRANCH   2   8
BRANCH   2  15
ATOM     15  O   UNL     1      34.034 -23.274 -18.456  0.00  0.00    -0.383 OA
ATOM     16  H   UNL     1      34.422 -23.177 -19.340  0.00  0.00    +0.211 HD
ENDBRANCH   2  15
BRANCH   1  17
ATOM     17  C   UNL     1      33.064 -23.511 -13.827  0.00  0.00    -0.077 C 
BRANCH  17  18
ATOM     18  C   UNL     1      34.330 -24.113 -13.214  0.00  0.00    -0.015 C 
BRANCH  18  19
ATOM     19  C   UNL     1      34.721 -23.431 -11.900  0.00  0.00    +0.067 C 
BRANCH  19  21
ATOM     20  O   UNL     1      35.588 -24.633  -9.996  0.00  0.00    -0.291 OA
ATOM     21  C   UNL     1      35.789 -24.184 -11.122  0.00  0.00    +0.173 C 
BRANCH  21  23
ATOM     22  F   UNL     1      40.765 -24.995 -13.522  0.00  0.00    -0.204 F 
ATOM     23  C   UNL     1      37.118 -24.401 -11.762  0.00  0.00    +0.035 C 
ATOM     24  C   UNL     1      37.345 -25.584 -12.431  0.00  0.00    +0.005 C 
ATOM     25  C   UNL     1      38.069 -23.410 -11.662  0.00  0.00    +0.005 C 
ATOM     26  C   UNL     1      38.588 -25.785 -13.030  0.00  0.00    +0.030 C 
ATOM     27  C   UNL     1      39.313 -23.612 -12.262  0.00  0.00    +0.030 C 
ATOM     28  C   UNL     1      39.571 -24.801 -12.947  0.00  0.00    +0.140 C 
ENDBRANCH  21  23
ENDBRANCH  19  21
ENDBRANCH  18  19
ENDBRANCH  17  18
ENDBRANCH   1  17
TORSDOF 7
ENDMDL
MODEL 2
REMARK VINA RESULT:     -11.1      5.054     10.528
REMARK  Name = 4249
REMARK  7 active torsions:
REMARK  status: ('A' for Active; 'I' for Inactive)
REMARK    1  A    between atoms: N_1  and  C_17
REMARK    2  A    between atoms: C_2  and  C_8
REMARK    3  A    between atoms: C_2  and  O_15
REMARK    4  A    between atoms: C_17  and  C_18
REMARK    5  A    between atoms: C_18  and  C_19
REMARK    6  A    between atoms: C_19  and  C_21
REMARK    7  A    between atoms: C_21  and  C_23
REMARK                            x       y       z     vdW  Elec       q    Type
REMARK                         _______ _______ _______ _____ _____    ______ ____
ROOT
ATOM      1  N   UNL     1      34.970 -19.493 -19.933  0.00  0.00    +0.387 N 
ATOM      2  C   UNL     1      34.036 -21.742 -18.233  0.00  0.00    +0.103 C 
ATOM      3  C   UNL     1      33.105 -20.646 -18.798  0.00  0.00    +0.008 C 
ATOM      4  C   UNL     1      35.480 -21.192 -18.198  0.00  0.00    +0.008 C 
ATOM      5  C   UNL     1      33.619 -20.037 -20.107  0.00  0.00    -0.075 C 
ATOM      6  C   UNL     1      35.911 -20.538 -19.517  0.00  0.00    -0.075 C 
ATOM      7  H   UNL     1      34.933 -18.789 -19.194  0.00  0.00    -0.080 HD
ENDROOT
BRANCH   2   8
ATOM      8  C   UNL     1      33.636 -22.285 -16.861  0.00  0.00    +0.002 C 
ATOM      9  C   UNL     1      32.287 -22.401 -16.525  0.00  0.00    -0.002 C 
ATOM     10  C   UNL     1      34.618 -22.664 -15.948  0.00  0.00    -0.002 C 
ATOM     11  C   UNL     1      31.923 -22.898 -15.273  0.00  0.00    -0.005 C 
ATOM     12  C   UNL     1      34.253 -23.159 -14.697  0.00  0.00    -0.005 C 
ATOM     13  C   UNL     1      32.905 -23.277 -14.360  0.00  0.00    -0.022 C 
ATOM     14  C   UNL     1      32.514 -23.806 -13.021  0.00  0.00    +0.031 C 
ENDBRANCH   2   8
BRANCH   2  15
ATOM     15  O   UNL     1      33.975 -22.869 -19.122  0.00  0.00    -0.383 OA
ATOM     16  H   UNL     1      33.681 -22.575 -19.998  0.00  0.00    +0.211 HD
ENDBRANCH   2  15
BRANCH   1  17
ATOM     17  C   UNL     1      35.427 -18.850 -21.165  0.00  0.00    -0.077 C 
BRANCH  17  18
ATOM     18  C   UNL     1      36.139 -17.535 -20.844  0.00  0.00    -0.015 C 
BRANCH  18  19
ATOM     19  C   UNL     1      35.409 -16.322 -21.427  0.00  0.00    +0.067 C 
BRANCH  19  21
ATOM     20  O   UNL     1      35.362 -15.389 -19.201  0.00  0.00    -0.291 OA
ATOM     21  C   UNL     1      35.035 -15.282 -20.381  0.00  0.00    +0.173 C 
BRANCH  21  23
ATOM     22  F   UNL     1      32.142 -10.787 -21.993  0.00  0.00    -0.204 F 
ATOM     23  C   UNL     1      34.262 -14.082 -20.812  0.00  0.00    +0.035 C 
ATOM     24  C   UNL     1      33.177 -13.689 -20.060  0.00  0.00    +0.005 C 
ATOM     25  C   UNL     1      34.662 -13.410 -21.946  0.00  0.00    +0.005 C 
ATOM     26  C   UNL     1      32.455 -12.565 -20.463  0.00  0.00    +0.030 C 
ATOM     27  C   UNL     1      33.939 -12.286 -22.349  0.00  0.00    +0.030 C 
ATOM     28  C   UNL     1      32.836 -11.864 -21.606  0.00  0.00    +0.140 C 
ENDBRANCH  21  23
ENDBRANCH  19  21
ENDBRANCH  18  19
ENDBRANCH  17  18
ENDBRANCH   1  17
TORSDOF 7
ENDMDL
MODEL 3
REMARK VINA RESULT:     -11.1      5.118     11.021
REMARK  Name = 4249
REMARK  7 active torsions:
REMARK  status: ('A' for Active; 'I' for Inactive)
REMARK    1  A    between atoms: N_1  and  C_17
REMARK    2  A    between atoms: C_2  and  C_8
REMARK    3  A    between atoms: C_2  and  O_15
REMARK    4  A    between atoms: C_17  and  C_18
REMARK    5  A    between atoms: C_18  and  C_19
REMARK    6  A    between atoms: C_19  and  C_21
REMARK    7  A    between atoms: C_21  and  C_23
REMARK                            x       y       z     vdW  Elec       q    Type
REMARK                         _______ _______ _______ _____ _____    ______ ____
ROOT
ATOM      1  N   UNL     1      35.545 -19.602 -19.534  0.00  0.00    +0.387 N 
ATOM      2  C   UNL     1      34.181 -21.801 -18.075  0.00  0.00    +0.103 C 
ATOM      3  C   UNL     1      33.438 -20.632 -18.761  0.00  0.00    +0.008 C 
ATOM      4  C   UNL     1      35.633 -21.357 -17.782  0.00  0.00    +0.008 C 
ATOM      5  C   UNL     1      34.209 -20.044 -19.948  0.00  0.00    -0.075 C 
ATOM      6  C   UNL     1      36.327 -20.718 -18.992  0.00  0.00    -0.075 C 
ATOM      7  H   UNL     1      35.431 -18.908 -18.794  0.00  0.00    -0.080 HD
ENDROOT
BRANCH   2   8
ATOM      8  C   UNL     1      33.517 -22.332 -16.804  0.00  0.00    +0.002 C 
ATOM      9  C   UNL     1      34.300 -22.859 -15.778  0.00  0.00    -0.002 C 
ATOM     10  C   UNL     1      32.130 -22.287 -16.673  0.00  0.00    -0.002 C 
ATOM     11  C   UNL     1      33.694 -23.342 -14.618  0.00  0.00    -0.005 C 
ATOM     12  C   UNL     1      31.525 -22.771 -15.513  0.00  0.00    -0.005 C 
ATOM     13  C   UNL     1      32.307 -23.298 -14.486  0.00  0.00    -0.022 C 
ATOM     14  C   UNL     1      31.659 -23.816 -13.246  0.00  0.00    +0.031 C 
ENDBRANCH   2   8
BRANCH   2  15
ATOM     15  O   UNL     1      34.196 -22.908 -18.990  0.00  0.00    -0.383 OA
ATOM     16  H   UNL     1      35.083 -23.003 -19.369  0.00  0.00    +0.211 HD
ENDBRANCH   2  15
BRANCH   1  17
ATOM     17  C   UNL     1      36.248 -18.978 -20.654  0.00  0.00    -0.077 C 
BRANCH  17  18
ATOM     18  C   UNL     1      35.247 -18.490 -21.703  0.00  0.00    -0.015 C 
BRANCH  18  19
ATOM     19  C   UNL     1      35.804 -17.340 -22.547  0.00  0.00    +0.067 C 
BRANCH  19  21
ATOM     20  O   UNL     1      34.267 -17.564 -24.393  0.00  0.00    -0.291 OA
ATOM     21  C   UNL     1      34.822 -16.822 -23.586  0.00  0.00    +0.173 C 
BRANCH  21  23
ATOM     22  F   UNL     1      33.653 -11.363 -23.672  0.00  0.00    -0.204 F 
ATOM     23  C   UNL     1      34.508 -15.364 -23.609  0.00  0.00    +0.035 C 
ATOM     24  C   UNL     1      34.913 -14.585 -22.547  0.00  0.00    +0.005 C 
ATOM     25  C   UNL     1      33.828 -14.851 -24.690  0.00  0.00    +0.005 C 
ATOM     26  C   UNL     1      34.621 -13.221 -22.570  0.00  0.00    +0.030 C 
ATOM     27  C   UNL     1      33.536 -13.487 -24.712  0.00  0.00    +0.030 C 
ATOM     28  C   UNL     1      33.933 -12.672 -23.651  0.00  0.00    +0.140 C 
ENDBRANCH  21  23
ENDBRANCH  19  21
ENDBRANCH  18  19
ENDBRANCH  17  18
ENDBRANCH   1  17
TORSDOF 7
ENDMDL
MODEL 4
REMARK VINA RESULT:     -11.0      7.026     12.303
REMARK  Name = 4249
REMARK  7 active torsions:
REMARK  status: ('A' for Active; 'I' for Inactive)
REMARK    1  A    between atoms: N_1  and  C_17
REMARK    2  A    between atoms: C_2  and  C_8
REMARK    3  A    between atoms: C_2  and  O_15
REMARK    4  A    between atoms: C_17  and  C_18
REMARK    5  A    between atoms: C_18  and  C_19
REMARK    6  A    between atoms: C_19  and  C_21
REMARK    7  A    between atoms: C_21  and  C_23
REMARK                            x       y       z     vdW  Elec       q    Type
REMARK                         _______ _______ _______ _____ _____    ______ ____
ROOT
ATOM      1  N   UNL     1      34.666 -15.443 -22.521  0.00  0.00    +0.387 N 
ATOM      2  C   UNL     1      35.485 -17.911 -21.083  0.00  0.00    +0.103 C 
ATOM      3  C   UNL     1      34.892 -17.902 -22.510  0.00  0.00    +0.008 C 
ATOM      4  C   UNL     1      35.059 -16.609 -20.366  0.00  0.00    +0.008 C 
ATOM      5  C   UNL     1      35.170 -16.600 -23.269  0.00  0.00    -0.075 C 
ATOM      6  C   UNL     1      35.304 -15.347 -21.204  0.00  0.00    -0.075 C 
ATOM      7  H   UNL     1      33.664 -15.574 -22.377  0.00  0.00    -0.080 HD
ENDROOT
BRANCH   2   8
ATOM      8  C   UNL     1      35.120 -19.132 -20.239  0.00  0.00    +0.002 C 
ATOM      9  C   UNL     1      36.125 -19.883 -19.632  0.00  0.00    -0.002 C 
ATOM     10  C   UNL     1      33.783 -19.492 -20.077  0.00  0.00    -0.002 C 
ATOM     11  C   UNL     1      35.791 -20.997 -18.860  0.00  0.00    -0.005 C 
ATOM     12  C   UNL     1      33.450 -20.605 -19.306  0.00  0.00    -0.005 C 
ATOM     13  C   UNL     1      34.455 -21.357 -18.698  0.00  0.00    -0.022 C 
ATOM     14  C   UNL     1      34.099 -22.549 -17.874  0.00  0.00    +0.031 C 
ENDBRANCH   2   8
BRANCH   2  15
ATOM     15  O   UNL     1      36.916 -17.943 -21.204  0.00  0.00    -0.383 OA
ATOM     16  H   UNL     1      37.298 -17.190 -20.728  0.00  0.00    +0.211 HD
ENDBRANCH   2  15
BRANCH   1  17
ATOM     17  C   UNL     1      34.870 -14.211 -23.282  0.00  0.00    -0.077 C 
BRANCH  17  18
ATOM     18  C   UNL     1      34.507 -12.995 -22.429  0.00  0.00    -0.015 C 
BRANCH  18  19
ATOM     19  C   UNL     1      32.997 -12.741 -22.391  0.00  0.00    +0.067 C 
BRANCH  19  21
ATOM     20  O   UNL     1      32.138 -13.616 -20.312  0.00  0.00    -0.291 OA
ATOM     21  C   UNL     1      32.438 -12.629 -20.981  0.00  0.00    +0.173 C 
BRANCH  21  23
ATOM     22  F   UNL     1      31.804  -7.550 -18.752  0.00  0.00    -0.204 F 
ATOM     23  C   UNL     1      32.270 -11.272 -20.385  0.00  0.00    +0.035 C 
ATOM     24  C   UNL     1      32.302 -10.177 -21.219  0.00  0.00    +0.005 C 
ATOM     25  C   UNL     1      32.087 -11.166 -19.025  0.00  0.00    +0.005 C 
ATOM     26  C   UNL     1      32.143  -8.907 -20.661  0.00  0.00    +0.030 C 
ATOM     27  C   UNL     1      31.929  -9.897 -18.467  0.00  0.00    +0.030 C 
ATOM     28  C   UNL     1      31.956  -8.767 -19.287  0.00  0.00    +0.140 C 
ENDBRANCH  21  23
ENDBRANCH  19  21
ENDBRANCH  18  19
ENDBRANCH  17  18
ENDBRANCH   1  17
TORSDOF 7
ENDMDL
MODEL 5
REMARK VINA RESULT:     -10.9      6.631     12.110
REMARK  Name = 4249
REMARK  7 active torsions:
REMARK  status: ('A' for Active; 'I' for Inactive)
REMARK    1  A    between atoms: N_1  and  C_17
REMARK    2  A    between atoms: C_2  and  C_8
REMARK    3  A    between atoms: C_2  and  O_15
REMARK    4  A    between atoms: C_17  and  C_18
REMARK    5  A    between atoms: C_18  and  C_19
REMARK    6  A    between atoms: C_19  and  C_21
REMARK    7  A    between atoms: C_21  and  C_23
REMARK                            x       y       z     vdW  Elec       q    Type
REMARK                         _______ _______ _______ _____ _____    ______ ____
ROOT
ATOM      1  N   UNL     1      34.850 -16.234 -22.634  0.00  0.00    +0.387 N 
ATOM      2  C   UNL     1      35.505 -18.532 -20.871  0.00  0.00    +0.103 C 
ATOM      3  C   UNL     1      34.948 -18.679 -22.305  0.00  0.00    +0.008 C 
ATOM      4  C   UNL     1      35.129 -17.131 -20.338  0.00  0.00    +0.008 C 
ATOM      5  C   UNL     1      35.312 -17.499 -23.214  0.00  0.00    -0.075 C 
ATOM      6  C   UNL     1      35.459 -16.000 -21.321  0.00  0.00    -0.075 C 
ATOM      7  H   UNL     1      33.839 -16.297 -22.506  0.00  0.00    -0.080 HD
ENDROOT
BRANCH   2   8
ATOM      8  C   UNL     1      35.057 -19.616 -19.890  0.00  0.00    +0.002 C 
ATOM      9  C   UNL     1      33.700 -19.906 -19.747  0.00  0.00    -0.002 C 
ATOM     10  C   UNL     1      36.004 -20.314 -19.142  0.00  0.00    -0.002 C 
ATOM     11  C   UNL     1      33.292 -20.896 -18.852  0.00  0.00    -0.005 C 
ATOM     12  C   UNL     1      35.594 -21.303 -18.248  0.00  0.00    -0.005 C 
ATOM     13  C   UNL     1      34.238 -21.594 -18.104  0.00  0.00    -0.022 C 
ATOM     14  C   UNL     1      33.800 -22.652 -17.147  0.00  0.00    +0.031 C 
ENDBRANCH   2   8
BRANCH   2  15
ATOM     15  O   UNL     1      36.935 -18.649 -20.942  0.00  0.00    -0.383 OA
ATOM     16  H   UNL     1      37.339 -17.784 -20.771  0.00  0.00    +0.211 HD
ENDBRANCH   2  15
BRANCH   1  17
ATOM     17  C   UNL     1      35.136 -15.121 -23.539  0.00  0.00    -0.077 C 
BRANCH  17  18
ATOM     18  C   UNL     1      34.906 -13.786 -22.827  0.00  0.00    -0.015 C 
BRANCH  18  19
ATOM     19  C   UNL     1      33.490 -13.248 -23.045  0.00  0.00    +0.067 C 
BRANCH  19  21
ATOM     20  O   UNL     1      33.751 -10.874 -23.391  0.00  0.00    -0.291 OA
ATOM     21  C   UNL     1      33.337 -11.781 -22.673  0.00  0.00    +0.173 C 
BRANCH  21  23
ATOM     22  F   UNL     1      30.736 -10.489 -17.904  0.00  0.00    -0.204 F 
ATOM     23  C   UNL     1      32.641 -11.436 -21.399  0.00  0.00    +0.035 C 
ATOM     24  C   UNL     1      32.530 -12.402 -20.425  0.00  0.00    +0.005 C 
ATOM     25  C   UNL     1      32.137 -10.164 -21.245  0.00  0.00    +0.005 C 
ATOM     26  C   UNL     1      31.880 -12.079 -19.233  0.00  0.00    +0.030 C 
ATOM     27  C   UNL     1      31.487  -9.841 -20.053  0.00  0.00    +0.030 C 
ATOM     28  C   UNL     1      31.360 -10.799 -19.047  0.00  0.00    +0.140 C 
ENDBRANCH  21  23
ENDBRANCH  19  21
ENDBRANCH  18  19
ENDBRANCH  17  18
ENDBRANCH   1  17
TORSDOF 7
ENDMDL
MODEL 6
REMARK VINA RESULT:     -10.8      4.252      6.362
REMARK  Name = 4249
REMARK  7 active torsions:
REMARK  status: ('A' for Active; 'I' for Inactive)
REMARK    1  A    between atoms: N_1  and  C_17
REMARK    2  A    between atoms: C_2  and  C_8
REMARK    3  A    between atoms: C_2  and  O_15
REMARK    4  A    between atoms: C_17  and  C_18
REMARK    5  A    between atoms: C_18  and  C_19
REMARK    6  A    between atoms: C_19  and  C_21
REMARK    7  A    between atoms: C_21  and  C_23
REMARK                            x       y       z     vdW  Elec       q    Type
REMARK                         _______ _______ _______ _____ _____    ______ ____
ROOT
ATOM      1  N   UNL     1      33.353 -22.673 -15.108  0.00  0.00    +0.387 N 
ATOM      2  C   UNL     1      34.118 -21.941 -17.884  0.00  0.00    +0.103 C 
ATOM      3  C   UNL     1      35.124 -22.060 -16.717  0.00  0.00    +0.008 C 
ATOM      4  C   UNL     1      32.709 -21.695 -17.296  0.00  0.00    +0.008 C 
ATOM      5  C   UNL     1      34.671 -23.045 -15.632  0.00  0.00    -0.075 C 
ATOM      6  C   UNL     1      32.343 -22.673 -16.171  0.00  0.00    -0.075 C 
ATOM      7  H   UNL     1      33.419 -21.725 -14.735  0.00  0.00    -0.080 HD
ENDROOT
BRANCH   2   8
ATOM      8  C   UNL     1      34.458 -20.872 -18.923  0.00  0.00    +0.002 C 
ATOM      9  C   UNL     1      35.789 -20.523 -19.151  0.00  0.00    -0.002 C 
ATOM     10  C   UNL     1      33.439 -20.250 -19.642  0.00  0.00    -0.002 C 
ATOM     11  C   UNL     1      36.099 -19.549 -20.100  0.00  0.00    -0.005 C 
ATOM     12  C   UNL     1      33.750 -19.276 -20.590  0.00  0.00    -0.005 C 
ATOM     13  C   UNL     1      35.080 -18.926 -20.819  0.00  0.00    -0.022 C 
ATOM     14  C   UNL     1      35.413 -17.883 -21.833  0.00  0.00    +0.031 C 
ENDBRANCH   2   8
BRANCH   2  15
ATOM     15  O   UNL     1      34.126 -23.186 -18.599  0.00  0.00    -0.383 OA
ATOM     16  H   UNL     1      35.007 -23.587 -18.540  0.00  0.00    +0.211 HD
ENDBRANCH   2  15
BRANCH   1  17
ATOM     17  C   UNL     1      32.959 -23.573 -14.025  0.00  0.00    -0.077 C 
BRANCH  17  18
ATOM     18  C   UNL     1      31.985 -22.870 -13.079  0.00  0.00    -0.015 C 
BRANCH  18  19
ATOM     19  C   UNL     1      30.751 -23.725 -12.774  0.00  0.00    +0.067 C 
BRANCH  19  21
ATOM     20  O   UNL     1      30.301 -25.509 -14.335  0.00  0.00    -0.291 OA
ATOM     21  C   UNL     1      30.119 -24.337 -14.015  0.00  0.00    +0.173 C 
BRANCH  21  23
ATOM     22  F   UNL     1      26.792 -21.150 -17.170  0.00  0.00    -0.204 F 
ATOM     23  C   UNL     1      29.231 -23.485 -14.858  0.00  0.00    +0.035 C 
ATOM     24  C   UNL     1      28.840 -23.956 -16.092  0.00  0.00    +0.005 C 
ATOM     25  C   UNL     1      28.834 -22.260 -14.371  0.00  0.00    +0.005 C 
ATOM     26  C   UNL     1      28.008 -23.159 -16.880  0.00  0.00    +0.030 C 
ATOM     27  C   UNL     1      28.002 -21.463 -15.159  0.00  0.00    +0.030 C 
ATOM     28  C   UNL     1      27.589 -21.914 -16.413  0.00  0.00    +0.140 C 
ENDBRANCH  21  23
ENDBRANCH  19  21
ENDBRANCH  18  19
ENDBRANCH  17  18
ENDBRANCH   1  17
TORSDOF 7
ENDMDL
MODEL 7
REMARK VINA RESULT:     -10.7      7.630     13.473
REMARK  Name = 4249
REMARK  7 active torsions:
REMARK  status: ('A' for Active; 'I' for Inactive)
REMARK    1  A    between atoms: N_1  and  C_17
REMARK    2  A    between atoms: C_2  and  C_8
REMARK    3  A    between atoms: C_2  and  O_15
REMARK    4  A    between atoms: C_17  and  C_18
REMARK    5  A    between atoms: C_18  and  C_19
REMARK    6  A    between atoms: C_19  and  C_21
REMARK    7  A    between atoms: C_21  and  C_23
REMARK                            x       y       z     vdW  Elec       q    Type
REMARK                         _______ _______ _______ _____ _____    ______ ____
ROOT
ATOM      1  N   UNL     1      34.724 -15.860 -22.822  0.00  0.00    +0.387 N 
ATOM      2  C   UNL     1      35.490 -18.183 -21.136  0.00  0.00    +0.103 C 
ATOM      3  C   UNL     1      34.878 -18.310 -22.550  0.00  0.00    +0.008 C 
ATOM      4  C   UNL     1      35.112 -16.800 -20.558  0.00  0.00    +0.008 C 
ATOM      5  C   UNL     1      35.184 -17.105 -23.447  0.00  0.00    -0.075 C 
ATOM      6  C   UNL     1      35.383 -15.643 -21.530  0.00  0.00    -0.075 C 
ATOM      7  H   UNL     1      33.721 -15.944 -22.654  0.00  0.00    -0.080 HD
ENDROOT
BRANCH   2   8
ATOM      8  C   UNL     1      35.100 -19.296 -20.162  0.00  0.00    +0.002 C 
ATOM      9  C   UNL     1      36.088 -19.967 -19.443  0.00  0.00    -0.002 C 
ATOM     10  C   UNL     1      33.760 -19.636 -19.994  0.00  0.00    -0.002 C 
ATOM     11  C   UNL     1      35.732 -20.981 -18.553  0.00  0.00    -0.005 C 
ATOM     12  C   UNL     1      33.405 -20.650 -19.105  0.00  0.00    -0.005 C 
ATOM     13  C   UNL     1      34.391 -21.322 -18.384  0.00  0.00    -0.022 C 
ATOM     14  C   UNL     1      34.011 -22.407 -17.434  0.00  0.00    +0.031 C 
ENDBRANCH   2   8
BRANCH   2  15
ATOM     15  O   UNL     1      36.917 -18.273 -21.268  0.00  0.00    -0.383 OA
ATOM     16  H   UNL     1      37.205 -17.753 -22.034  0.00  0.00    +0.211 HD
ENDBRANCH   2  15
BRANCH   1  17
ATOM     17  C   UNL     1      34.955 -14.723 -23.713  0.00  0.00    -0.077 C 
BRANCH  17  18
ATOM     18  C   UNL     1      33.817 -13.709 -23.582  0.00  0.00    -0.015 C 
BRANCH  18  19
ATOM     19  C   UNL     1      34.276 -12.402 -22.930  0.00  0.00    +0.067 C 
BRANCH  19  21
ATOM     20  O   UNL     1      34.118 -11.279 -25.060  0.00  0.00    -0.291 OA
ATOM     21  C   UNL     1      34.124 -11.188 -23.834  0.00  0.00    +0.173 C 
BRANCH  21  23
ATOM     22  F   UNL     1      33.488  -6.163 -21.486  0.00  0.00    -0.204 F 
ATOM     23  C   UNL     1      33.954  -9.846 -23.206  0.00  0.00    +0.035 C 
ATOM     24  C   UNL     1      34.900  -8.877 -23.454  0.00  0.00    +0.005 C 
ATOM     25  C   UNL     1      32.858  -9.626 -22.403  0.00  0.00    +0.005 C 
ATOM     26  C   UNL     1      34.741  -7.621 -22.867  0.00  0.00    +0.030 C 
ATOM     27  C   UNL     1      32.698  -8.370 -21.816  0.00  0.00    +0.030 C 
ATOM     28  C   UNL     1      33.641  -7.368 -22.049  0.00  0.00    +0.140 C 
ENDBRANCH  21  23
ENDBRANCH  19  21
ENDBRANCH  18  19
ENDBRANCH  17  18
ENDBRANCH   1  17
TORSDOF 7
ENDMDL
MODEL 8
REMARK VINA RESULT:     -10.6      7.363     13.479
REMARK  Name = 4249
REMARK  7 active torsions:
REMARK  status: ('A' for Active; 'I' for Inactive)
REMARK    1  A    between atoms: N_1  and  C_17
REMARK    2  A    between atoms: C_2  and  C_8
REMARK    3  A    between atoms: C_2  and  O_15
REMARK    4  A    between atoms: C_17  and  C_18
REMARK    5  A    between atoms: C_18  and  C_19
REMARK    6  A    between atoms: C_19  and  C_21
REMARK    7  A    between atoms: C_21  and  C_23
REMARK                            x       y       z     vdW  Elec       q    Type
REMARK                         _______ _______ _______ _____ _____    ______ ____
ROOT
ATOM      1  N   UNL     1      34.824 -15.962 -22.868  0.00  0.00    +0.387 N 
ATOM      2  C   UNL     1      35.496 -18.263 -21.113  0.00  0.00    +0.103 C 
ATOM      3  C   UNL     1      34.943 -18.408 -22.549  0.00  0.00    +0.008 C 
ATOM      4  C   UNL     1      35.108 -16.866 -20.575  0.00  0.00    +0.008 C 
ATOM      5  C   UNL     1      35.298 -17.222 -23.452  0.00  0.00    -0.075 C 
ATOM      6  C   UNL     1      35.430 -15.729 -21.554  0.00  0.00    -0.075 C 
ATOM      7  H   UNL     1      33.814 -16.035 -22.742  0.00  0.00    -0.080 HD
ENDROOT
BRANCH   2   8
ATOM      8  C   UNL     1      35.056 -19.354 -20.138  0.00  0.00    +0.002 C 
ATOM      9  C   UNL     1      36.012 -20.078 -19.426  0.00  0.00    -0.002 C 
ATOM     10  C   UNL     1      33.700 -19.624 -19.960  0.00  0.00    -0.002 C 
ATOM     11  C   UNL     1      35.609 -21.073 -18.535  0.00  0.00    -0.005 C 
ATOM     12  C   UNL     1      33.298 -20.619 -19.070  0.00  0.00    -0.005 C 
ATOM     13  C   UNL     1      34.253 -21.343 -18.357  0.00  0.00    -0.022 C 
ATOM     14  C   UNL     1      33.823 -22.409 -17.405  0.00  0.00    +0.031 C 
ENDBRANCH   2   8
BRANCH   2  15
ATOM     15  O   UNL     1      36.927 -18.367 -21.182  0.00  0.00    -0.383 OA
ATOM     16  H   UNL     1      37.293 -18.399 -20.285  0.00  0.00    +0.211 HD
ENDBRANCH   2  15
BRANCH   1  17
ATOM     17  C   UNL     1      35.103 -14.843 -23.768  0.00  0.00    -0.077 C 
BRANCH  17  18
ATOM     18  C   UNL     1      33.802 -14.319 -24.379  0.00  0.00    -0.015 C 
BRANCH  18  19
ATOM     19  C   UNL     1      33.468 -12.901 -23.905  0.00  0.00    +0.067 C 
BRANCH  19  21
ATOM     20  O   UNL     1      33.524 -11.987 -26.138  0.00  0.00    -0.291 OA
ATOM     21  C   UNL     1      33.766 -11.830 -24.943  0.00  0.00    +0.173 C 
BRANCH  21  23
ATOM     22  F   UNL     1      35.971  -6.995 -23.232  0.00  0.00    -0.204 F 
ATOM     23  C   UNL     1      34.354 -10.538 -24.487  0.00  0.00    +0.035 C 
ATOM     24  C   UNL     1      33.872  -9.964 -23.332  0.00  0.00    +0.005 C 
ATOM     25  C   UNL     1      35.359  -9.968 -25.236  0.00  0.00    +0.005 C 
ATOM     26  C   UNL     1      34.424  -8.756 -22.904  0.00  0.00    +0.030 C 
ATOM     27  C   UNL     1      35.911  -8.760 -24.809  0.00  0.00    +0.030 C 
ATOM     28  C   UNL     1      35.442  -8.154 -23.642  0.00  0.00    +0.140 C 
ENDBRANCH  21  23
ENDBRANCH  19  21
ENDBRANCH  18  19
ENDBRANCH  17  18
ENDBRANCH   1  17
TORSDOF 7
ENDMDL
MODEL 9
REMARK VINA RESULT:     -10.5      6.591     10.729
REMARK  Name = 4249
REMARK  7 active torsions:
REMARK  status: ('A' for Active; 'I' for Inactive)
REMARK    1  A    between atoms: N_1  and  C_17
REMARK    2  A    between atoms: C_2  and  C_8
REMARK    3  A    between atoms: C_2  and  O_15
REMARK    4  A    between atoms: C_17  and  C_18
REMARK    5  A    between atoms: C_18  and  C_19
REMARK    6  A    between atoms: C_19  and  C_21
REMARK    7  A    between atoms: C_21  and  C_23
REMARK                            x       y       z     vdW  Elec       q    Type
REMARK                         _______ _______ _______ _____ _____    ______ ____
ROOT
ATOM      1  N   UNL     1      34.917 -14.903 -23.418  0.00  0.00    +0.387 N 
ATOM      2  C   UNL     1      33.443 -12.424 -22.710  0.00  0.00    +0.103 C 
ATOM      3  C   UNL     1      33.539 -12.987 -24.145  0.00  0.00    +0.008 C 
ATOM      4  C   UNL     1      34.628 -12.975 -21.884  0.00  0.00    +0.008 C 
ATOM      5  C   UNL     1      33.729 -14.508 -24.182  0.00  0.00    -0.075 C 
ATOM      6  C   UNL     1      34.803 -14.494 -22.015  0.00  0.00    -0.075 C 
ATOM      7  H   UNL     1      35.723 -14.426 -23.822  0.00  0.00    -0.080 HD
ENDROOT
BRANCH   2   8
ATOM      8  C   UNL     1      33.389 -10.898 -22.617  0.00  0.00    +0.002 C 
ATOM      9  C   UNL     1      32.480 -10.286 -21.754  0.00  0.00    -0.002 C 
ATOM     10  C   UNL     1      34.247 -10.123 -23.393  0.00  0.00    -0.002 C 
ATOM     11  C   UNL     1      32.432  -8.895 -21.669  0.00  0.00    -0.005 C 
ATOM     12  C   UNL     1      34.198  -8.732 -23.308  0.00  0.00    -0.005 C 
ATOM     13  C   UNL     1      33.291  -8.118 -22.445  0.00  0.00    -0.022 C 
ATOM     14  C   UNL     1      33.238  -6.630 -22.354  0.00  0.00    +0.031 C 
ENDBRANCH   2   8
BRANCH   2  15
ATOM     15  O   UNL     1      32.208 -12.885 -22.140  0.00  0.00    -0.383 OA
ATOM     16  H   UNL     1      32.036 -12.410 -21.312  0.00  0.00    +0.211 HD
ENDBRANCH   2  15
BRANCH   1  17
ATOM     17  C   UNL     1      35.132 -16.347 -23.517  0.00  0.00    -0.077 C 
BRANCH  17  18
ATOM     18  C   UNL     1      35.736 -16.882 -22.217  0.00  0.00    -0.015 C 
BRANCH  18  19
ATOM     19  C   UNL     1      35.368 -18.347 -21.965  0.00  0.00    +0.067 C 
BRANCH  19  21
ATOM     20  O   UNL     1      37.112 -18.648 -20.325  0.00  0.00    -0.291 OA
ATOM     21  C   UNL     1      35.966 -18.909 -20.685  0.00  0.00    +0.173 C 
BRANCH  21  23
ATOM     22  F   UNL     1      32.802 -22.206 -17.477  0.00  0.00    -0.204 F 
ATOM     23  C   UNL     1      35.121 -19.790 -19.829  0.00  0.00    +0.035 C 
ATOM     24  C   UNL     1      35.742 -20.673 -18.974  0.00  0.00    +0.005 C 
ATOM     25  C   UNL     1      33.751 -19.687 -19.924  0.00  0.00    +0.005 C 
ATOM     26  C   UNL     1      34.950 -21.497 -18.172  0.00  0.00    +0.030 C 
ATOM     27  C   UNL     1      32.960 -20.511 -19.122  0.00  0.00    +0.030 C 
ATOM     28  C   UNL     1      33.561 -21.416 -18.246  0.00  0.00    +0.140 C 
ENDBRANCH  21  23
ENDBRANCH  19  21
ENDBRANCH  18  19
ENDBRANCH  17  18
ENDBRANCH   1  17
TORSDOF 7
ENDMDL
