MODEL 1
REMARK VINA RESULT:     -11.9      0.000      0.000
REMARK  Name = 15942672
REMARK  5 active torsions:
REMARK  status: ('A' for Active; 'I' for Inactive)
REMARK    1  A    between atoms: N_2  and  C_7
REMARK    2  A    between atoms: N_3  and  C_17
REMARK    3  A    between atoms: C_8  and  C_16
REMARK    4  A    between atoms: C_18  and  O_23
REMARK    5  A    between atoms: O_23  and  C_25
REMARK                            x       y       z     vdW  Elec       q    Type
REMARK                         _______ _______ _______ _____ _____    ______ ____
ROOT
ATOM      1  O   UNL     1      37.448 -20.743 -16.536  0.00  0.00    -0.252 OA
ATOM      2  N   UNL     1      36.089 -22.512 -15.818  0.00  0.00    -0.268 N 
ATOM      3  N   UNL     1      35.556 -21.375 -17.757  0.00  0.00    -0.268 N 
ATOM      4  C   UNL     1      36.467 -21.464 -16.692  0.00  0.00    +0.308 C 
ATOM      5  H   UNL     1      35.275 -23.006 -16.071  0.00  0.00    +0.156 HD
ATOM      6  H   UNL     1      34.816 -22.023 -17.747  0.00  0.00    +0.156 HD
ENDROOT
BRANCH   2   7
ATOM      7  C   UNL     1      36.715 -22.935 -14.645  0.00  0.00    +0.052 C 
ATOM      8  C   UNL     1      38.570 -24.014 -13.536  0.00  0.00    +0.073 C 
ATOM      9  C   UNL     1      37.944 -23.591 -14.709  0.00  0.00    +0.019 C 
ATOM     10  C   UNL     1      36.110 -22.704 -13.410  0.00  0.00    +0.015 C 
ATOM     11  C   UNL     1      37.965 -23.782 -12.300  0.00  0.00    +0.004 C 
ATOM     12  C   UNL     1      36.736 -23.127 -12.237  0.00  0.00    +0.001 C 
BRANCH   8  16
ATOM     13  F   UNL     1      40.420 -24.758 -14.857  0.00  0.00    -0.166 F 
ATOM     14  F   UNL     1      40.849 -24.140 -12.823  0.00  0.00    -0.166 F 
ATOM     15  F   UNL     1      39.809 -26.014 -13.191  0.00  0.00    -0.166 F 
ATOM     16  C   UNL     1      39.885 -24.714 -13.602  0.00  0.00    +0.419 C 
ENDBRANCH   8  16
ENDBRANCH   2   7
BRANCH   3  17
ATOM     17  C   UNL     1      35.570 -20.468 -18.843  0.00  0.00    +0.052 C 
ATOM     18  C   UNL     1      35.599 -18.693 -20.969  0.00  0.00    +0.145 C 
ATOM     19  C   UNL     1      34.384 -20.167 -19.490  0.00  0.00    +0.018 C 
ATOM     20  C   UNL     1      36.771 -19.901 -19.236  0.00  0.00    +0.018 C 
ATOM     21  C   UNL     1      34.399 -19.273 -20.561  0.00  0.00    +0.039 C 
ATOM     22  C   UNL     1      36.786 -19.006 -20.306  0.00  0.00    +0.039 C 
BRANCH  18  23
ATOM     23  O   UNL     1      35.613 -17.819 -22.012  0.00  0.00    -0.453 OA
BRANCH  23  25
ATOM     24  N   UNL     1      34.748 -13.836 -21.205  0.00  0.00    -0.242 NA
ATOM     25  C   UNL     1      35.323 -16.492 -21.744  0.00  0.00    +0.148 C 
ATOM     26  C   UNL     1      35.170 -15.610 -22.793  0.00  0.00    +0.058 C 
ATOM     27  C   UNL     1      35.197 -16.082 -20.434  0.00  0.00    +0.058 C 
ATOM     28  C   UNL     1      34.882 -14.293 -22.471  0.00  0.00    +0.102 C 
ATOM     29  C   UNL     1      34.909 -14.744 -20.218  0.00  0.00    +0.102 C 
ENDBRANCH  23  25
ENDBRANCH  18  23
ENDBRANCH   3  17
TORSDOF 5
ENDMDL
MODEL 2
REMARK VINA RESULT:     -11.9      0.048      1.486
REMARK  Name = 15942672
REMARK  5 active torsions:
REMARK  status: ('A' for Active; 'I' for Inactive)
REMARK    1  A    between atoms: N_2  and  C_7
REMARK    2  A    between atoms: N_3  and  C_17
REMARK    3  A    between atoms: C_8  and  C_16
REMARK    4  A    between atoms: C_18  and  O_23
REMARK    5  A    between atoms: O_23  and  C_25
REMARK                            x       y       z     vdW  Elec       q    Type
REMARK                         _______ _______ _______ _____ _____    ______ ____
ROOT
ATOM      1  O   UNL     1      37.478 -20.767 -16.503  0.00  0.00    -0.252 OA
ATOM      2  N   UNL     1      36.101 -22.526 -15.796  0.00  0.00    -0.268 N 
ATOM      3  N   UNL     1      35.584 -21.376 -17.732  0.00  0.00    -0.268 N 
ATOM      4  C   UNL     1      36.490 -21.477 -16.665  0.00  0.00    +0.308 C 
ATOM      5  H   UNL     1      35.284 -23.011 -16.055  0.00  0.00    +0.156 HD
ATOM      6  H   UNL     1      34.838 -22.017 -17.727  0.00  0.00    +0.156 HD
ENDROOT
BRANCH   2   7
ATOM      7  C   UNL     1      36.719 -22.961 -14.624  0.00  0.00    +0.052 C 
ATOM      8  C   UNL     1      38.569 -24.046 -13.513  0.00  0.00    +0.073 C 
ATOM      9  C   UNL     1      37.951 -23.611 -14.685  0.00  0.00    +0.019 C 
ATOM     10  C   UNL     1      36.105 -22.744 -13.391  0.00  0.00    +0.015 C 
ATOM     11  C   UNL     1      37.955 -23.829 -12.279  0.00  0.00    +0.004 C 
ATOM     12  C   UNL     1      36.723 -23.179 -12.218  0.00  0.00    +0.001 C 
BRANCH   8  16
ATOM     13  F   UNL     1      39.839 -26.045 -13.177  0.00  0.00    -0.166 F 
ATOM     14  F   UNL     1      40.428 -24.772 -14.830  0.00  0.00    -0.166 F 
ATOM     15  F   UNL     1      40.830 -24.151 -12.785  0.00  0.00    -0.166 F 
ATOM     16  C   UNL     1      39.887 -24.741 -13.577  0.00  0.00    +0.419 C 
ENDBRANCH   8  16
ENDBRANCH   2   7
BRANCH   3  17
ATOM     17  C   UNL     1      35.610 -20.464 -18.814  0.00  0.00    +0.052 C 
ATOM     18  C   UNL     1      35.658 -18.679 -20.931  0.00  0.00    +0.145 C 
ATOM     19  C   UNL     1      36.812 -19.886 -19.185  0.00  0.00    +0.018 C 
ATOM     20  C   UNL     1      34.431 -20.168 -19.478  0.00  0.00    +0.018 C 
ATOM     21  C   UNL     1      36.836 -18.987 -20.252  0.00  0.00    +0.039 C 
ATOM     22  C   UNL     1      34.455 -19.270 -20.545  0.00  0.00    +0.039 C 
BRANCH  18  23
ATOM     23  O   UNL     1      35.682 -17.803 -21.973  0.00  0.00    -0.453 OA
BRANCH  23  25
ATOM     24  N   UNL     1      34.724 -13.837 -21.188  0.00  0.00    -0.242 NA
ATOM     25  C   UNL     1      35.364 -16.482 -21.711  0.00  0.00    +0.148 C 
ATOM     26  C   UNL     1      35.209 -16.072 -20.403  0.00  0.00    +0.058 C 
ATOM     27  C   UNL     1      35.208 -15.605 -22.763  0.00  0.00    +0.058 C 
ATOM     28  C   UNL     1      34.889 -14.739 -20.195  0.00  0.00    +0.102 C 
ATOM     29  C   UNL     1      34.888 -14.294 -22.449  0.00  0.00    +0.102 C 
ENDBRANCH  23  25
ENDBRANCH  18  23
ENDBRANCH   3  17
TORSDOF 5
ENDMDL
MODEL 3
REMARK VINA RESULT:     -11.6      1.474      2.123
REMARK  Name = 15942672
REMARK  5 active torsions:
REMARK  status: ('A' for Active; 'I' for Inactive)
REMARK    1  A    between atoms: N_2  and  C_7
REMARK    2  A    between atoms: N_3  and  C_17
REMARK    3  A    between atoms: C_8  and  C_16
REMARK    4  A    between atoms: C_18  and  O_23
REMARK    5  A    between atoms: O_23  and  C_25
REMARK                            x       y       z     vdW  Elec       q    Type
REMARK                         _______ _______ _______ _____ _____    ______ ____
ROOT
ATOM      1  O   UNL     1      35.589 -21.704 -18.368  0.00  0.00    -0.252 OA
ATOM      2  N   UNL     1      37.054 -21.082 -16.649  0.00  0.00    -0.268 N 
ATOM      3  N   UNL     1      36.850 -19.741 -18.519  0.00  0.00    -0.268 N 
ATOM      4  C   UNL     1      36.410 -20.922 -17.900  0.00  0.00    +0.308 C 
ATOM      5  H   UNL     1      37.692 -20.373 -16.404  0.00  0.00    +0.156 HD
ATOM      6  H   UNL     1      37.515 -19.214 -18.020  0.00  0.00    +0.156 HD
ENDROOT
BRANCH   2   7
ATOM      7  C   UNL     1      36.907 -22.112 -15.720  0.00  0.00    +0.052 C 
ATOM      8  C   UNL     1      37.887 -23.755 -14.244  0.00  0.00    +0.073 C 
ATOM      9  C   UNL     1      38.034 -22.725 -15.174  0.00  0.00    +0.019 C 
ATOM     10  C   UNL     1      35.632 -22.528 -15.337  0.00  0.00    +0.015 C 
ATOM     11  C   UNL     1      36.611 -24.171 -13.861  0.00  0.00    +0.004 C 
ATOM     12  C   UNL     1      35.484 -23.558 -14.408  0.00  0.00    +0.001 C 
BRANCH   8  16
ATOM     13  F   UNL     1      39.384 -23.990 -12.393  0.00  0.00    -0.166 F 
ATOM     14  F   UNL     1      38.984 -25.769 -13.567  0.00  0.00    -0.166 F 
ATOM     15  F   UNL     1      40.221 -24.181 -14.390  0.00  0.00    -0.166 F 
ATOM     16  C   UNL     1      39.092 -24.410 -13.658  0.00  0.00    +0.419 C 
ENDBRANCH   8  16
ENDBRANCH   2   7
BRANCH   3  17
ATOM     17  C   UNL     1      36.457 -19.214 -19.772  0.00  0.00    +0.052 C 
ATOM     18  C   UNL     1      35.688 -18.183 -22.225  0.00  0.00    +0.145 C 
ATOM     19  C   UNL     1      35.160 -19.414 -20.214  0.00  0.00    +0.018 C 
ATOM     20  C   UNL     1      37.377 -18.510 -20.530  0.00  0.00    +0.018 C 
ATOM     21  C   UNL     1      34.773 -18.895 -21.450  0.00  0.00    +0.039 C 
ATOM     22  C   UNL     1      36.991 -17.990 -21.765  0.00  0.00    +0.039 C 
BRANCH  18  23
ATOM     23  O   UNL     1      35.310 -17.675 -23.430  0.00  0.00    -0.453 OA
BRANCH  23  25
ATOM     24  N   UNL     1      34.132 -13.692 -23.562  0.00  0.00    -0.242 NA
ATOM     25  C   UNL     1      34.919 -16.347 -23.474  0.00  0.00    +0.148 C 
ATOM     26  C   UNL     1      35.201 -15.525 -22.403  0.00  0.00    +0.058 C 
ATOM     27  C   UNL     1      34.255 -15.877 -24.586  0.00  0.00    +0.058 C 
ATOM     28  C   UNL     1      34.786 -14.206 -22.496  0.00  0.00    +0.102 C 
ATOM     29  C   UNL     1      33.882 -14.543 -24.581  0.00  0.00    +0.102 C 
ENDBRANCH  23  25
ENDBRANCH  18  23
ENDBRANCH   3  17
TORSDOF 5
ENDMDL
MODEL 4
REMARK VINA RESULT:     -11.3      1.618      2.227
REMARK  Name = 15942672
REMARK  5 active torsions:
REMARK  status: ('A' for Active; 'I' for Inactive)
REMARK    1  A    between atoms: N_2  and  C_7
REMARK    2  A    between atoms: N_3  and  C_17
REMARK    3  A    between atoms: C_8  and  C_16
REMARK    4  A    between atoms: C_18  and  O_23
REMARK    5  A    between atoms: O_23  and  C_25
REMARK                            x       y       z     vdW  Elec       q    Type
REMARK                         _______ _______ _______ _____ _____    ______ ____
ROOT
ATOM      1  O   UNL     1      36.837 -20.606 -16.373  0.00  0.00    -0.252 OA
ATOM      2  N   UNL     1      35.560 -22.563 -16.205  0.00  0.00    -0.268 N 
ATOM      3  N   UNL     1      35.463 -21.297 -18.135  0.00  0.00    -0.268 N 
ATOM      4  C   UNL     1      36.037 -21.401 -16.858  0.00  0.00    +0.308 C 
ATOM      5  H   UNL     1      34.919 -23.107 -16.718  0.00  0.00    +0.156 HD
ATOM      6  H   UNL     1      34.836 -22.013 -18.385  0.00  0.00    +0.156 HD
ENDROOT
BRANCH   2   7
ATOM      7  C   UNL     1      35.874 -23.037 -14.931  0.00  0.00    +0.052 C 
ATOM      8  C   UNL     1      37.482 -23.950 -13.377  0.00  0.00    +0.073 C 
ATOM      9  C   UNL     1      37.168 -23.476 -14.651  0.00  0.00    +0.019 C 
ATOM     10  C   UNL     1      34.895 -23.073 -13.939  0.00  0.00    +0.015 C 
ATOM     11  C   UNL     1      36.502 -23.986 -12.384  0.00  0.00    +0.004 C 
ATOM     12  C   UNL     1      35.209 -23.547 -12.665  0.00  0.00    +0.001 C 
BRANCH   8  16
ATOM     13  F   UNL     1      39.744 -24.235 -14.104  0.00  0.00    -0.166 F 
ATOM     14  F   UNL     1      39.434 -23.790 -12.004  0.00  0.00    -0.166 F 
ATOM     15  F   UNL     1      38.916 -25.752 -12.785  0.00  0.00    -0.166 F 
ATOM     16  C   UNL     1      38.866 -24.419 -13.075  0.00  0.00    +0.419 C 
ENDBRANCH   8  16
ENDBRANCH   2   7
BRANCH   3  17
ATOM     17  C   UNL     1      35.672 -20.289 -19.106  0.00  0.00    +0.052 C 
ATOM     18  C   UNL     1      36.081 -18.316 -21.007  0.00  0.00    +0.145 C 
ATOM     19  C   UNL     1      36.966 -19.926 -19.437  0.00  0.00    +0.018 C 
ATOM     20  C   UNL     1      34.577 -19.687 -19.704  0.00  0.00    +0.018 C 
ATOM     21  C   UNL     1      37.172 -18.931 -20.394  0.00  0.00    +0.039 C 
ATOM     22  C   UNL     1      34.783 -18.694 -20.662  0.00  0.00    +0.039 C 
BRANCH  18  23
ATOM     23  O   UNL     1      36.281 -17.348 -21.942  0.00  0.00    -0.453 OA
BRANCH  23  25
ATOM     24  N   UNL     1      33.632 -17.168 -25.138  0.00  0.00    -0.242 NA
ATOM     25  C   UNL     1      35.397 -17.289 -23.006  0.00  0.00    +0.148 C 
ATOM     26  C   UNL     1      34.847 -18.456 -23.492  0.00  0.00    +0.058 C 
ATOM     27  C   UNL     1      35.088 -16.064 -23.557  0.00  0.00    +0.058 C 
ATOM     28  C   UNL     1      33.970 -18.342 -24.559  0.00  0.00    +0.102 C 
ATOM     29  C   UNL     1      34.201 -16.057 -24.621  0.00  0.00    +0.102 C 
ENDBRANCH  23  25
ENDBRANCH  18  23
ENDBRANCH   3  17
TORSDOF 5
ENDMDL
MODEL 5
REMARK VINA RESULT:     -11.2      7.800     12.700
REMARK  Name = 15942672
REMARK  5 active torsions:
REMARK  status: ('A' for Active; 'I' for Inactive)
REMARK    1  A    between atoms: N_2  and  C_7
REMARK    2  A    between atoms: N_3  and  C_17
REMARK    3  A    between atoms: C_8  and  C_16
REMARK    4  A    between atoms: C_18  and  O_23
REMARK    5  A    between atoms: O_23  and  C_25
REMARK                            x       y       z     vdW  Elec       q    Type
REMARK                         _______ _______ _______ _____ _____    ______ ____
ROOT
ATOM      1  O   UNL     1      34.524 -13.019 -21.044  0.00  0.00    -0.252 OA
ATOM      2  N   UNL     1      34.213 -12.247 -23.234  0.00  0.00    -0.268 N 
ATOM      3  N   UNL     1      34.793 -14.454 -22.871  0.00  0.00    -0.268 N 
ATOM      4  C   UNL     1      34.513 -13.225 -22.254  0.00  0.00    +0.308 C 
ATOM      5  H   UNL     1      34.243 -12.558 -24.168  0.00  0.00    +0.156 HD
ATOM      6  H   UNL     1      34.744 -14.464 -23.854  0.00  0.00    +0.156 HD
ENDROOT
BRANCH   2   7
ATOM      7  C   UNL     1      33.881 -10.905 -23.052  0.00  0.00    +0.052 C 
ATOM      8  C   UNL     1      34.345  -8.565 -23.436  0.00  0.00    +0.073 C 
ATOM      9  C   UNL     1      34.677  -9.908 -23.617  0.00  0.00    +0.019 C 
ATOM     10  C   UNL     1      32.755 -10.560 -22.306  0.00  0.00    +0.015 C 
ATOM     11  C   UNL     1      33.218  -8.220 -22.689  0.00  0.00    +0.004 C 
ATOM     12  C   UNL     1      32.424  -9.217 -22.124  0.00  0.00    +0.001 C 
BRANCH   8  16
ATOM     13  F   UNL     1      35.829  -7.885 -25.184  0.00  0.00    -0.166 F 
ATOM     14  F   UNL     1      34.498  -6.374 -24.381  0.00  0.00    -0.166 F 
ATOM     15  F   UNL     1      36.182  -7.074 -23.198  0.00  0.00    -0.166 F 
ATOM     16  C   UNL     1      35.194  -7.498 -24.040  0.00  0.00    +0.419 C 
ENDBRANCH   8  16
ENDBRANCH   2   7
BRANCH   3  17
ATOM     17  C   UNL     1      35.137 -15.680 -22.255  0.00  0.00    +0.052 C 
ATOM     18  C   UNL     1      35.810 -18.081 -21.048  0.00  0.00    +0.145 C 
ATOM     19  C   UNL     1      35.311 -16.807 -23.039  0.00  0.00    +0.018 C 
ATOM     20  C   UNL     1      35.292 -15.727 -20.879  0.00  0.00    +0.018 C 
ATOM     21  C   UNL     1      35.650 -18.017 -22.431  0.00  0.00    +0.039 C 
ATOM     22  C   UNL     1      35.632 -16.936 -20.271  0.00  0.00    +0.039 C 
BRANCH  18  23
ATOM     23  O   UNL     1      36.143 -19.259 -20.454  0.00  0.00    -0.453 OA
BRANCH  23  25
ATOM     24  N   UNL     1      33.127 -21.371 -18.527  0.00  0.00    -0.242 NA
ATOM     25  C   UNL     1      35.139 -19.963 -19.811  0.00  0.00    +0.148 C 
ATOM     26  C   UNL     1      35.477 -20.940 -18.899  0.00  0.00    +0.058 C 
ATOM     27  C   UNL     1      33.822 -19.670 -20.097  0.00  0.00    +0.058 C 
ATOM     28  C   UNL     1      34.435 -21.616 -18.285  0.00  0.00    +0.102 C 
ATOM     29  C   UNL     1      32.855 -20.403 -19.430  0.00  0.00    +0.102 C 
ENDBRANCH  23  25
ENDBRANCH  18  23
ENDBRANCH   3  17
TORSDOF 5
ENDMDL
MODEL 6
REMARK VINA RESULT:     -11.1      5.235     10.586
REMARK  Name = 15942672
REMARK  5 active torsions:
REMARK  status: ('A' for Active; 'I' for Inactive)
REMARK    1  A    between atoms: N_2  and  C_7
REMARK    2  A    between atoms: N_3  and  C_17
REMARK    3  A    between atoms: C_8  and  C_16
REMARK    4  A    between atoms: C_18  and  O_23
REMARK    5  A    between atoms: O_23  and  C_25
REMARK                            x       y       z     vdW  Elec       q    Type
REMARK                         _______ _______ _______ _____ _____    ______ ____
ROOT
ATOM      1  O   UNL     1      34.298 -19.722 -19.562  0.00  0.00    -0.252 OA
ATOM      2  N   UNL     1      36.159 -18.984 -20.779  0.00  0.00    -0.268 N 
ATOM      3  N   UNL     1      36.469 -20.234 -18.861  0.00  0.00    -0.268 N 
ATOM      4  C   UNL     1      35.514 -19.657 -19.712  0.00  0.00    +0.308 C 
ATOM      5  H   UNL     1      37.144 -19.016 -20.769  0.00  0.00    +0.156 HD
ATOM      6  H   UNL     1      37.411 -20.096 -19.112  0.00  0.00    +0.156 HD
ENDROOT
BRANCH   2   7
ATOM      7  C   UNL     1      35.586 -18.282 -21.839  0.00  0.00    +0.052 C 
ATOM      8  C   UNL     1      34.908 -16.190 -22.839  0.00  0.00    +0.073 C 
ATOM      9  C   UNL     1      35.481 -16.893 -21.779  0.00  0.00    +0.019 C 
ATOM     10  C   UNL     1      35.118 -18.970 -22.958  0.00  0.00    +0.015 C 
ATOM     11  C   UNL     1      34.440 -16.878 -23.959  0.00  0.00    +0.004 C 
ATOM     12  C   UNL     1      34.545 -18.267 -24.019  0.00  0.00    +0.001 C 
BRANCH   8  16
ATOM     13  F   UNL     1      33.535 -14.239 -23.019  0.00  0.00    -0.166 F 
ATOM     14  F   UNL     1      35.143 -14.181 -21.565  0.00  0.00    -0.166 F 
ATOM     15  F   UNL     1      35.597 -14.079 -23.689  0.00  0.00    -0.166 F 
ATOM     16  C   UNL     1      34.796 -14.704 -22.777  0.00  0.00    +0.419 C 
ENDBRANCH   8  16
ENDBRANCH   2   7
BRANCH   3  17
ATOM     17  C   UNL     1      36.246 -20.989 -17.685  0.00  0.00    +0.052 C 
ATOM     18  C   UNL     1      35.810 -22.467 -15.383  0.00  0.00    +0.145 C 
ATOM     19  C   UNL     1      35.077 -21.719 -17.560  0.00  0.00    +0.018 C 
ATOM     20  C   UNL     1      37.203 -20.982 -16.683  0.00  0.00    +0.018 C 
ATOM     21  C   UNL     1      34.857 -22.463 -16.400  0.00  0.00    +0.039 C 
ATOM     22  C   UNL     1      36.984 -21.726 -15.524  0.00  0.00    +0.039 C 
BRANCH  18  23
ATOM     23  O   UNL     1      35.598 -23.194 -14.253  0.00  0.00    -0.453 OA
BRANCH  23  25
ATOM     24  N   UNL     1      38.490 -25.972 -13.165  0.00  0.00    -0.242 NA
ATOM     25  C   UNL     1      36.562 -24.120 -13.892  0.00  0.00    +0.148 C 
ATOM     26  C   UNL     1      36.694 -25.278 -14.628  0.00  0.00    +0.058 C 
ATOM     27  C   UNL     1      37.368 -23.863 -12.803  0.00  0.00    +0.058 C 
ATOM     28  C   UNL     1      37.673 -26.172 -14.224  0.00  0.00    +0.102 C 
ATOM     29  C   UNL     1      38.316 -24.820 -12.481  0.00  0.00    +0.102 C 
ENDBRANCH  23  25
ENDBRANCH  18  23
ENDBRANCH   3  17
TORSDOF 5
ENDMDL
MODEL 7
REMARK VINA RESULT:     -11.1      6.433      7.309
REMARK  Name = 15942672
REMARK  5 active torsions:
REMARK  status: ('A' for Active; 'I' for Inactive)
REMARK    1  A    between atoms: N_2  and  C_7
REMARK    2  A    between atoms: N_3  and  C_17
REMARK    3  A    between atoms: C_8  and  C_16
REMARK    4  A    between atoms: C_18  and  O_23
REMARK    5  A    between atoms: O_23  and  C_25
REMARK                            x       y       z     vdW  Elec       q    Type
REMARK                         _______ _______ _______ _____ _____    ______ ____
ROOT
ATOM      1  O   UNL     1      34.655 -23.062 -14.591  0.00  0.00    -0.252 OA
ATOM      2  N   UNL     1      34.873 -23.875 -12.405  0.00  0.00    -0.268 N 
ATOM      3  N   UNL     1      32.796 -23.855 -13.415  0.00  0.00    -0.268 N 
ATOM      4  C   UNL     1      34.155 -23.546 -13.580  0.00  0.00    +0.308 C 
ATOM      5  H   UNL     1      34.338 -24.256 -11.671  0.00  0.00    +0.156 HD
ATOM      6  H   UNL     1      32.543 -24.239 -12.545  0.00  0.00    +0.156 HD
ENDROOT
BRANCH   2   7
ATOM      7  C   UNL     1      36.237 -23.729 -12.148  0.00  0.00    +0.052 C 
ATOM      8  C   UNL     1      38.535 -24.231 -12.698  0.00  0.00    +0.073 C 
ATOM      9  C   UNL     1      37.171 -24.377 -12.955  0.00  0.00    +0.019 C 
ATOM     10  C   UNL     1      36.664 -22.936 -11.083  0.00  0.00    +0.015 C 
ATOM     11  C   UNL     1      38.962 -23.438 -11.634  0.00  0.00    +0.004 C 
ATOM     12  C   UNL     1      38.028 -22.791 -10.826  0.00  0.00    +0.001 C 
BRANCH   8  16
ATOM     13  F   UNL     1      39.564 -24.460 -14.845  0.00  0.00    -0.166 F 
ATOM     14  F   UNL     1      40.819 -24.804 -13.111  0.00  0.00    -0.166 F 
ATOM     15  F   UNL     1      39.305 -26.264 -13.661  0.00  0.00    -0.166 F 
ATOM     16  C   UNL     1      39.535 -24.923 -13.561  0.00  0.00    +0.419 C 
ENDBRANCH   8  16
ENDBRANCH   2   7
BRANCH   3  17
ATOM     17  C   UNL     1      31.743 -23.682 -14.344  0.00  0.00    +0.052 C 
ATOM     18  C   UNL     1      29.681 -23.344 -16.163  0.00  0.00    +0.145 C 
ATOM     19  C   UNL     1      31.743 -22.570 -15.169  0.00  0.00    +0.018 C 
ATOM     20  C   UNL     1      30.734 -24.629 -14.409  0.00  0.00    +0.018 C 
ATOM     21  C   UNL     1      30.704 -22.400 -16.086  0.00  0.00    +0.039 C 
ATOM     22  C   UNL     1      29.696 -24.459 -15.325  0.00  0.00    +0.039 C 
BRANCH  18  23
ATOM     23  O   UNL     1      28.669 -23.180 -17.058  0.00  0.00    -0.453 OA
BRANCH  23  25
ATOM     24  N   UNL     1      25.569 -20.613 -16.024  0.00  0.00    -0.242 NA
ATOM     25  C   UNL     1      27.637 -22.323 -16.713  0.00  0.00    +0.148 C 
ATOM     26  C   UNL     1      27.296 -22.180 -15.384  0.00  0.00    +0.058 C 
ATOM     27  C   UNL     1      26.973 -21.634 -17.705  0.00  0.00    +0.058 C 
ATOM     28  C   UNL     1      26.255 -21.312 -15.093  0.00  0.00    +0.102 C 
ATOM     29  C   UNL     1      25.947 -20.793 -17.309  0.00  0.00    +0.102 C 
ENDBRANCH  23  25
ENDBRANCH  18  23
ENDBRANCH   3  17
TORSDOF 5
ENDMDL
MODEL 8
REMARK VINA RESULT:     -11.0      7.461     12.577
REMARK  Name = 15942672
REMARK  5 active torsions:
REMARK  status: ('A' for Active; 'I' for Inactive)
REMARK    1  A    between atoms: N_2  and  C_7
REMARK    2  A    between atoms: N_3  and  C_17
REMARK    3  A    between atoms: C_8  and  C_16
REMARK    4  A    between atoms: C_18  and  O_23
REMARK    5  A    between atoms: O_23  and  C_25
REMARK                            x       y       z     vdW  Elec       q    Type
REMARK                         _______ _______ _______ _____ _____    ______ ____
ROOT
ATOM      1  O   UNL     1      34.930 -12.920 -21.421  0.00  0.00    -0.252 OA
ATOM      2  N   UNL     1      34.268 -12.334 -23.591  0.00  0.00    -0.268 N 
ATOM      3  N   UNL     1      34.722 -14.543 -23.092  0.00  0.00    -0.268 N 
ATOM      4  C   UNL     1      34.669 -13.238 -22.578  0.00  0.00    +0.308 C 
ATOM      5  H   UNL     1      34.092 -12.734 -24.474  0.00  0.00    +0.156 HD
ATOM      6  H   UNL     1      34.484 -14.643 -24.042  0.00  0.00    +0.156 HD
ENDROOT
BRANCH   2   7
ATOM      7  C   UNL     1      34.090 -10.953 -23.505  0.00  0.00    +0.052 C 
ATOM      8  C   UNL     1      32.972  -9.044 -22.536  0.00  0.00    +0.073 C 
ATOM      9  C   UNL     1      33.149 -10.425 -22.622  0.00  0.00    +0.019 C 
ATOM     10  C   UNL     1      34.855 -10.101 -24.302  0.00  0.00    +0.015 C 
ATOM     11  C   UNL     1      33.736  -8.191 -23.334  0.00  0.00    +0.004 C 
ATOM     12  C   UNL     1      34.677  -8.720 -24.216  0.00  0.00    +0.001 C 
BRANCH   8  16
ATOM     13  F   UNL     1      31.172  -9.420 -21.006  0.00  0.00    -0.166 F 
ATOM     14  F   UNL     1      32.521  -7.783 -20.555  0.00  0.00    -0.166 F 
ATOM     15  F   UNL     1      31.110  -7.604 -22.199  0.00  0.00    -0.166 F 
ATOM     16  C   UNL     1      31.966  -8.477 -21.592  0.00  0.00    +0.419 C 
ENDBRANCH   8  16
ENDBRANCH   2   7
BRANCH   3  17
ATOM     17  C   UNL     1      35.075 -15.734 -22.414  0.00  0.00    +0.052 C 
ATOM     18  C   UNL     1      35.766 -18.065 -21.086  0.00  0.00    +0.145 C 
ATOM     19  C   UNL     1      35.275 -16.894 -23.142  0.00  0.00    +0.018 C 
ATOM     20  C   UNL     1      35.213 -15.714 -21.036  0.00  0.00    +0.018 C 
ATOM     21  C   UNL     1      35.623 -18.069 -22.473  0.00  0.00    +0.039 C 
ATOM     22  C   UNL     1      35.562 -16.887 -20.367  0.00  0.00    +0.039 C 
BRANCH  18  23
ATOM     23  O   UNL     1      36.108 -19.209 -20.434  0.00  0.00    -0.453 OA
BRANCH  23  25
ATOM     24  N   UNL     1      33.077 -21.333 -18.544  0.00  0.00    -0.242 NA
ATOM     25  C   UNL     1      35.099 -19.916 -19.802  0.00  0.00    +0.148 C 
ATOM     26  C   UNL     1      35.430 -20.906 -18.901  0.00  0.00    +0.058 C 
ATOM     27  C   UNL     1      33.785 -19.616 -20.091  0.00  0.00    +0.058 C 
ATOM     28  C   UNL     1      34.383 -21.585 -18.299  0.00  0.00    +0.102 C 
ATOM     29  C   UNL     1      32.812 -20.354 -19.436  0.00  0.00    +0.102 C 
ENDBRANCH  23  25
ENDBRANCH  18  23
ENDBRANCH   3  17
TORSDOF 5
ENDMDL
MODEL 9
REMARK VINA RESULT:     -10.9      1.908      2.418
REMARK  Name = 15942672
REMARK  5 active torsions:
REMARK  status: ('A' for Active; 'I' for Inactive)
REMARK    1  A    between atoms: N_2  and  C_7
REMARK    2  A    between atoms: N_3  and  C_17
REMARK    3  A    between atoms: C_8  and  C_16
REMARK    4  A    between atoms: C_18  and  O_23
REMARK    5  A    between atoms: O_23  and  C_25
REMARK                            x       y       z     vdW  Elec       q    Type
REMARK                         _______ _______ _______ _____ _____    ______ ____
ROOT
ATOM      1  O   UNL     1      37.514 -20.854 -16.409  0.00  0.00    -0.252 OA
ATOM      2  N   UNL     1      36.196 -22.669 -15.731  0.00  0.00    -0.268 N 
ATOM      3  N   UNL     1      35.649 -21.513 -17.655  0.00  0.00    -0.268 N 
ATOM      4  C   UNL     1      36.553 -21.596 -16.585  0.00  0.00    +0.308 C 
ATOM      5  H   UNL     1      35.398 -23.179 -16.000  0.00  0.00    +0.156 HD
ATOM      6  H   UNL     1      34.926 -22.180 -17.662  0.00  0.00    +0.156 HD
ENDROOT
BRANCH   2   7
ATOM      7  C   UNL     1      36.824 -23.096 -14.561  0.00  0.00    +0.052 C 
ATOM      8  C   UNL     1      36.766 -23.481 -12.177  0.00  0.00    +0.073 C 
ATOM      9  C   UNL     1      36.138 -23.054 -13.347  0.00  0.00    +0.019 C 
ATOM     10  C   UNL     1      38.136 -23.565 -14.605  0.00  0.00    +0.015 C 
ATOM     11  C   UNL     1      38.079 -23.951 -12.221  0.00  0.00    +0.004 C 
ATOM     12  C   UNL     1      38.764 -23.992 -13.435  0.00  0.00    +0.001 C 
BRANCH   8  16
ATOM     13  F   UNL     1      36.733 -22.831  -9.875  0.00  0.00    -0.166 F 
ATOM     14  F   UNL     1      34.847 -22.765 -10.942  0.00  0.00    -0.166 F 
ATOM     15  F   UNL     1      35.725 -24.682 -10.408  0.00  0.00    -0.166 F 
ATOM     16  C   UNL     1      36.034 -23.437 -10.878  0.00  0.00    +0.419 C 
ENDBRANCH   8  16
ENDBRANCH   2   7
BRANCH   3  17
ATOM     17  C   UNL     1      35.647 -20.588 -18.725  0.00  0.00    +0.052 C 
ATOM     18  C   UNL     1      35.646 -18.776 -20.821  0.00  0.00    +0.145 C 
ATOM     19  C   UNL     1      34.450 -20.266 -19.342  0.00  0.00    +0.018 C 
ATOM     20  C   UNL     1      36.845 -20.023 -19.135  0.00  0.00    +0.018 C 
ATOM     21  C   UNL     1      34.450 -19.353 -20.398  0.00  0.00    +0.039 C 
ATOM     22  C   UNL     1      36.844 -19.110 -20.190  0.00  0.00    +0.039 C 
BRANCH  18  23
ATOM     23  O   UNL     1      35.646 -17.884 -21.849  0.00  0.00    -0.453 OA
BRANCH  23  25
ATOM     24  N   UNL     1      34.768 -13.920 -20.965  0.00  0.00    -0.242 NA
ATOM     25  C   UNL     1      35.352 -16.563 -21.556  0.00  0.00    +0.148 C 
ATOM     26  C   UNL     1      35.226 -15.655 -22.586  0.00  0.00    +0.058 C 
ATOM     27  C   UNL     1      35.193 -16.185 -20.240  0.00  0.00    +0.058 C 
ATOM     28  C   UNL     1      34.933 -14.346 -22.238  0.00  0.00    +0.102 C 
ATOM     29  C   UNL     1      34.903 -14.853 -19.997  0.00  0.00    +0.102 C 
ENDBRANCH  23  25
ENDBRANCH  18  23
ENDBRANCH   3  17
TORSDOF 5
ENDMDL
