MODEL 1
REMARK VINA RESULT:     -12.6      0.000      0.000
REMARK  Name = 25184541
REMARK  4 active torsions:
REMARK  status: ('A' for Active; 'I' for Inactive)
REMARK    1  A    between atoms: C_4  and  N_19
REMARK    2  A    between atoms: C_5  and  N_11
REMARK    3  A    between atoms: C_20  and  C_23
REMARK    4  A    between atoms: C_23  and  N_25
REMARK                            x       y       z     vdW  Elec       q    Type
REMARK                         _______ _______ _______ _____ _____    ______ ____
ROOT
ATOM      1  F   UNL     1      35.506 -22.415 -16.759  0.00  0.00    -0.200 F 
ATOM      2  F   UNL     1      32.819 -22.041 -16.882  0.00  0.00    -0.200 F 
ATOM      3  F   UNL     1      32.308 -24.375 -12.777  0.00  0.00    -0.203 F 
ATOM      4  C   UNL     1      35.287 -23.586 -14.705  0.00  0.00    +0.089 C 
ATOM      5  C   UNL     1      32.527 -23.204 -14.832  0.00  0.00    +0.110 C 
ATOM      6  C   UNL     1      34.727 -22.898 -15.781  0.00  0.00    +0.182 C 
ATOM      7  C   UNL     1      34.467 -24.083 -13.692  0.00  0.00    +0.048 C 
ATOM      8  C   UNL     1      33.346 -22.707 -15.844  0.00  0.00    +0.184 C 
ATOM      9  C   UNL     1      33.087 -23.892 -13.756  0.00  0.00    +0.157 C 
ENDROOT
BRANCH   5  11
ATOM     10  O   UNL     1      27.094 -22.464 -15.175  0.00  0.00    -0.291 OA
ATOM     11  N   UNL     1      31.122 -23.012 -14.897  0.00  0.00    -0.282 N 
ATOM     12  C   UNL     1      30.299 -24.155 -15.334  0.00  0.00    +0.104 C 
ATOM     13  C   UNL     1      29.004 -23.676 -15.989  0.00  0.00    +0.091 C 
ATOM     14  C   UNL     1      30.484 -21.883 -14.407  0.00  0.00    +0.068 C 
ATOM     15  C   UNL     1      28.316 -22.596 -15.181  0.00  0.00    +0.176 C 
ATOM     16  C   UNL     1      29.173 -21.627 -14.461  0.00  0.00    +0.054 C 
ENDBRANCH   5  11
BRANCH   4  19
ATOM     17  O   UNL     1      38.920 -23.414 -14.554  0.00  0.00    -0.434 OA
ATOM     18  O   UNL     1      37.581 -21.589 -14.683  0.00  0.00    -0.226 OA
ATOM     19  N   UNL     1      36.696 -23.782 -14.637  0.00  0.00    -0.219 N 
ATOM     20  C   UNL     1      38.739 -24.811 -14.288  0.00  0.00    +0.210 C 
ATOM     21  C   UNL     1      37.304 -25.086 -14.683  0.00  0.00    +0.147 C 
ATOM     22  C   UNL     1      37.688 -22.806 -14.622  0.00  0.00    +0.409 C 
BRANCH  20  23
ATOM     23  C   UNL     1      39.015 -25.071 -12.812  0.00  0.00    +0.134 C 
BRANCH  23  25
ATOM     24  O   UNL     1      35.700 -24.689 -10.073  0.00  0.00    -0.349 OA
ATOM     25  N   UNL     1      38.539 -23.964 -12.022  0.00  0.00    -0.312 N 
ATOM     26  N   UNL     1      36.664 -25.103 -10.984  0.00  0.00    -0.062 NA
ATOM     27  C   UNL     1      37.436 -24.031 -11.184  0.00  0.00    +0.171 C 
ATOM     28  C   UNL     1      37.012 -22.922 -10.434  0.00  0.00    +0.081 C 
ATOM     29  C   UNL     1      35.919 -23.387  -9.752  0.00  0.00    +0.215 C 
ATOM     30  H   UNL     1      39.025 -23.109 -12.082  0.00  0.00    +0.148 HD
ENDBRANCH  23  25
ENDBRANCH  20  23
ENDBRANCH   4  19
TORSDOF 4
ENDMDL
MODEL 2
REMARK VINA RESULT:     -11.5      5.872      8.972
REMARK  Name = 25184541
REMARK  4 active torsions:
REMARK  status: ('A' for Active; 'I' for Inactive)
REMARK    1  A    between atoms: C_4  and  N_19
REMARK    2  A    between atoms: C_5  and  N_11
REMARK    3  A    between atoms: C_20  and  C_23
REMARK    4  A    between atoms: C_23  and  N_25
REMARK                            x       y       z     vdW  Elec       q    Type
REMARK                         _______ _______ _______ _____ _____    ______ ____
ROOT
ATOM      1  F   UNL     1      37.461 -20.251 -17.762  0.00  0.00    -0.200 F 
ATOM      2  F   UNL     1      37.966 -21.636 -15.480  0.00  0.00    -0.200 F 
ATOM      3  F   UNL     1      33.616 -23.536 -15.673  0.00  0.00    -0.203 F 
ATOM      4  C   UNL     1      35.280 -21.182 -17.889  0.00  0.00    +0.089 C 
ATOM      5  C   UNL     1      35.798 -22.603 -15.545  0.00  0.00    +0.110 C 
ATOM      6  C   UNL     1      36.515 -21.054 -17.254  0.00  0.00    +0.182 C 
ATOM      7  C   UNL     1      34.304 -22.022 -17.352  0.00  0.00    +0.048 C 
ATOM      8  C   UNL     1      36.774 -21.765 -16.082  0.00  0.00    +0.184 C 
ATOM      9  C   UNL     1      34.563 -22.732 -16.181  0.00  0.00    +0.157 C 
ENDROOT
BRANCH   5  11
ATOM     10  O   UNL     1      36.860 -25.327 -10.894  0.00  0.00    -0.291 OA
ATOM     11  N   UNL     1      36.060 -23.325 -14.351  0.00  0.00    -0.282 N 
ATOM     12  C   UNL     1      35.414 -22.850 -13.114  0.00  0.00    +0.104 C 
ATOM     13  C   UNL     1      36.243 -23.225 -11.887  0.00  0.00    +0.091 C 
ATOM     14  C   UNL     1      36.733 -24.537 -14.326  0.00  0.00    +0.068 C 
ATOM     15  C   UNL     1      36.697 -24.670 -11.920  0.00  0.00    +0.176 C 
ATOM     16  C   UNL     1      37.037 -25.252 -13.238  0.00  0.00    +0.054 C 
ENDBRANCH   5  11
BRANCH   4  19
ATOM     17  O   UNL     1      33.951 -19.384 -20.762  0.00  0.00    -0.434 OA
ATOM     18  O   UNL     1      32.657 -20.242 -19.109  0.00  0.00    -0.226 OA
ATOM     19  N   UNL     1      35.013 -20.459 -19.086  0.00  0.00    -0.219 N 
ATOM     20  C   UNL     1      35.350 -19.137 -20.955  0.00  0.00    +0.210 C 
ATOM     21  C   UNL     1      36.037 -20.130 -20.042  0.00  0.00    +0.147 C 
ATOM     22  C   UNL     1      33.773 -20.054 -19.573  0.00  0.00    +0.409 C 
BRANCH  20  23
ATOM     23  C   UNL     1      35.647 -17.687 -20.596  0.00  0.00    +0.134 C 
BRANCH  23  25
ATOM     24  O   UNL     1      34.601 -13.524 -21.058  0.00  0.00    -0.349 OA
ATOM     25  N   UNL     1      35.501 -16.852 -21.761  0.00  0.00    -0.312 N 
ATOM     26  N   UNL     1      34.905 -14.802 -20.606  0.00  0.00    -0.062 NA
ATOM     27  C   UNL     1      35.152 -15.511 -21.712  0.00  0.00    +0.171 C 
ATOM     28  C   UNL     1      35.022 -14.740 -22.879  0.00  0.00    +0.081 C 
ATOM     29  C   UNL     1      34.675 -13.499 -22.414  0.00  0.00    +0.215 C 
ATOM     30  H   UNL     1      35.657 -17.259 -22.645  0.00  0.00    +0.148 HD
ENDBRANCH  23  25
ENDBRANCH  20  23
ENDBRANCH   4  19
TORSDOF 4
ENDMDL
MODEL 3
REMARK VINA RESULT:     -11.5      5.667      8.129
REMARK  Name = 25184541
REMARK  4 active torsions:
REMARK  status: ('A' for Active; 'I' for Inactive)
REMARK    1  A    between atoms: C_4  and  N_19
REMARK    2  A    between atoms: C_5  and  N_11
REMARK    3  A    between atoms: C_20  and  C_23
REMARK    4  A    between atoms: C_23  and  N_25
REMARK                            x       y       z     vdW  Elec       q    Type
REMARK                         _______ _______ _______ _____ _____    ______ ____
ROOT
ATOM      1  F   UNL     1      32.690 -20.947 -18.671  0.00  0.00    -0.200 F 
ATOM      2  F   UNL     1      32.673 -19.301 -20.831  0.00  0.00    -0.200 F 
ATOM      3  F   UNL     1      37.412 -19.025 -20.658  0.00  0.00    -0.203 F 
ATOM      4  C   UNL     1      35.060 -20.832 -18.556  0.00  0.00    +0.089 C 
ATOM      5  C   UNL     1      35.042 -19.140 -20.773  0.00  0.00    +0.110 C 
ATOM      6  C   UNL     1      33.850 -20.478 -19.153  0.00  0.00    +0.182 C 
ATOM      7  C   UNL     1      36.261 -20.339 -19.067  0.00  0.00    +0.048 C 
ATOM      8  C   UNL     1      33.842 -19.632 -20.263  0.00  0.00    +0.184 C 
ATOM      9  C   UNL     1      36.251 -19.494 -20.175  0.00  0.00    +0.157 C 
ENDROOT
BRANCH   5  11
ATOM     10  O   UNL     1      34.951 -15.746 -25.092  0.00  0.00    -0.291 OA
ATOM     11  N   UNL     1      35.033 -18.277 -21.900  0.00  0.00    -0.282 N 
ATOM     12  C   UNL     1      35.708 -16.974 -21.764  0.00  0.00    +0.104 C 
ATOM     13  C   UNL     1      35.087 -15.937 -22.699  0.00  0.00    +0.091 C 
ATOM     14  C   UNL     1      34.587 -18.667 -23.154  0.00  0.00    +0.068 C 
ATOM     15  C   UNL     1      34.891 -16.472 -24.102  0.00  0.00    +0.176 C 
ATOM     16  C   UNL     1      34.526 -17.899 -24.247  0.00  0.00    +0.054 C 
ENDBRANCH   5  11
BRANCH   4  19
ATOM     17  O   UNL     1      35.666 -22.723 -15.504  0.00  0.00    -0.434 OA
ATOM     18  O   UNL     1      37.043 -21.089 -16.263  0.00  0.00    -0.226 OA
ATOM     19  N   UNL     1      35.072 -21.696 -17.424  0.00  0.00    -0.219 N 
ATOM     20  C   UNL     1      34.340 -23.178 -15.804  0.00  0.00    +0.210 C 
ATOM     21  C   UNL     1      34.112 -22.751 -17.239  0.00  0.00    +0.147 C 
ATOM     22  C   UNL     1      36.020 -21.744 -16.405  0.00  0.00    +0.409 C 
BRANCH  20  23
ATOM     23  C   UNL     1      33.365 -22.535 -14.826  0.00  0.00    +0.134 C 
BRANCH  23  25
ATOM     24  O   UNL     1      29.462 -22.060 -16.608  0.00  0.00    -0.349 OA
ATOM     25  N   UNL     1      32.163 -23.324 -14.740  0.00  0.00    -0.312 N 
ATOM     26  N   UNL     1      30.782 -21.950 -16.189  0.00  0.00    -0.062 NA
ATOM     27  C   UNL     1      30.983 -23.007 -15.396  0.00  0.00    +0.171 C 
ATOM     28  C   UNL     1      29.837 -23.811 -15.279  0.00  0.00    +0.081 C 
ATOM     29  C   UNL     1      28.909 -23.173 -16.059  0.00  0.00    +0.215 C 
ATOM     30  H   UNL     1      32.181 -24.135 -14.181  0.00  0.00    +0.148 HD
ENDBRANCH  23  25
ENDBRANCH  20  23
ENDBRANCH   4  19
TORSDOF 4
ENDMDL
MODEL 4
REMARK VINA RESULT:     -11.2      5.487      8.101
REMARK  Name = 25184541
REMARK  4 active torsions:
REMARK  status: ('A' for Active; 'I' for Inactive)
REMARK    1  A    between atoms: C_4  and  N_19
REMARK    2  A    between atoms: C_5  and  N_11
REMARK    3  A    between atoms: C_20  and  C_23
REMARK    4  A    between atoms: C_23  and  N_25
REMARK                            x       y       z     vdW  Elec       q    Type
REMARK                         _______ _______ _______ _____ _____    ______ ____
ROOT
ATOM      1  F   UNL     1      37.151 -21.040 -18.284  0.00  0.00    -0.200 F 
ATOM      2  F   UNL     1      37.290 -19.305 -20.369  0.00  0.00    -0.200 F 
ATOM      3  F   UNL     1      32.547 -19.240 -20.628  0.00  0.00    -0.203 F 
ATOM      4  C   UNL     1      34.779 -21.031 -18.385  0.00  0.00    +0.089 C 
ATOM      5  C   UNL     1      34.921 -19.250 -20.527  0.00  0.00    +0.110 C 
ATOM      6  C   UNL     1      36.020 -20.603 -18.855  0.00  0.00    +0.182 C 
ATOM      7  C   UNL     1      33.608 -20.568 -18.986  0.00  0.00    +0.048 C 
ATOM      8  C   UNL     1      36.091 -19.712 -19.926  0.00  0.00    +0.184 C 
ATOM      9  C   UNL     1      33.679 -19.678 -20.057  0.00  0.00    +0.157 C 
ENDROOT
BRANCH   5  11
ATOM     10  O   UNL     1      35.143 -15.697 -24.711  0.00  0.00    -0.291 OA
ATOM     11  N   UNL     1      34.993 -18.346 -21.620  0.00  0.00    -0.282 N 
ATOM     12  C   UNL     1      35.736 -17.091 -21.415  0.00  0.00    +0.104 C 
ATOM     13  C   UNL     1      35.202 -15.985 -22.324  0.00  0.00    +0.091 C 
ATOM     14  C   UNL     1      34.560 -18.663 -22.899  0.00  0.00    +0.068 C 
ATOM     15  C   UNL     1      35.015 -16.455 -23.752  0.00  0.00    +0.176 C 
ATOM     16  C   UNL     1      34.573 -17.852 -23.962  0.00  0.00    +0.054 C 
ENDBRANCH   5  11
BRANCH   4  19
ATOM     17  O   UNL     1      35.161 -23.064 -15.389  0.00  0.00    -0.434 OA
ATOM     18  O   UNL     1      36.633 -21.455 -16.011  0.00  0.00    -0.226 OA
ATOM     19  N   UNL     1      34.703 -21.939 -17.291  0.00  0.00    -0.219 N 
ATOM     20  C   UNL     1      33.836 -23.456 -15.773  0.00  0.00    +0.210 C 
ATOM     21  C   UNL     1      33.697 -22.964 -17.198  0.00  0.00    +0.147 C 
ATOM     22  C   UNL     1      35.595 -22.065 -16.230  0.00  0.00    +0.409 C 
BRANCH  20  23
ATOM     23  C   UNL     1      32.838 -22.815 -14.817  0.00  0.00    +0.134 C 
BRANCH  23  25
ATOM     24  O   UNL     1      29.017 -22.065 -16.682  0.00  0.00    -0.349 OA
ATOM     25  N   UNL     1      31.605 -23.560 -14.824  0.00  0.00    -0.312 N 
ATOM     26  N   UNL     1      30.325 -22.037 -16.215  0.00  0.00    -0.062 NA
ATOM     27  C   UNL     1      30.460 -23.153 -15.492  0.00  0.00    +0.171 C 
ATOM     28  C   UNL     1      29.281 -23.917 -15.467  0.00  0.00    +0.081 C 
ATOM     29  C   UNL     1      28.405 -23.190 -16.230  0.00  0.00    +0.215 C 
ATOM     30  H   UNL     1      31.573 -24.408 -14.323  0.00  0.00    +0.148 HD
ENDBRANCH  23  25
ENDBRANCH  20  23
ENDBRANCH   4  19
TORSDOF 4
ENDMDL
MODEL 5
REMARK VINA RESULT:     -11.1      5.224      6.984
REMARK  Name = 25184541
REMARK  4 active torsions:
REMARK  status: ('A' for Active; 'I' for Inactive)
REMARK    1  A    between atoms: C_4  and  N_19
REMARK    2  A    between atoms: C_5  and  N_11
REMARK    3  A    between atoms: C_20  and  C_23
REMARK    4  A    between atoms: C_23  and  N_25
REMARK                            x       y       z     vdW  Elec       q    Type
REMARK                         _______ _______ _______ _____ _____    ______ ____
ROOT
ATOM      1  F   UNL     1      37.144 -21.359 -17.631  0.00  0.00    -0.200 F 
ATOM      2  F   UNL     1      37.331 -19.713 -19.784  0.00  0.00    -0.200 F 
ATOM      3  F   UNL     1      32.592 -19.553 -20.070  0.00  0.00    -0.203 F 
ATOM      4  C   UNL     1      34.773 -21.300 -17.745  0.00  0.00    +0.089 C 
ATOM      5  C   UNL     1      34.964 -19.612 -19.957  0.00  0.00    +0.110 C 
ATOM      6  C   UNL     1      36.026 -20.920 -18.225  0.00  0.00    +0.182 C 
ATOM      7  C   UNL     1      33.615 -20.836 -18.370  0.00  0.00    +0.048 C 
ATOM      8  C   UNL     1      36.121 -20.075 -19.331  0.00  0.00    +0.184 C 
ATOM      9  C   UNL     1      33.712 -19.992 -19.476  0.00  0.00    +0.157 C 
ENDROOT
BRANCH   5  11
ATOM     10  O   UNL     1      35.283 -16.238 -24.281  0.00  0.00    -0.291 OA
ATOM     11  N   UNL     1      35.061 -18.755 -21.084  0.00  0.00    -0.282 N 
ATOM     12  C   UNL     1      35.801 -17.492 -20.916  0.00  0.00    +0.104 C 
ATOM     13  C   UNL     1      35.288 -16.425 -21.883  0.00  0.00    +0.091 C 
ATOM     14  C   UNL     1      34.658 -19.125 -22.358  0.00  0.00    +0.068 C 
ATOM     15  C   UNL     1      35.133 -16.955 -23.294  0.00  0.00    +0.176 C 
ATOM     16  C   UNL     1      34.695 -18.360 -23.454  0.00  0.00    +0.054 C 
ENDBRANCH   5  11
BRANCH   4  19
ATOM     17  O   UNL     1      33.956 -23.731 -15.160  0.00  0.00    -0.434 OA
ATOM     18  O   UNL     1      32.706 -23.414 -17.026  0.00  0.00    -0.226 OA
ATOM     19  N   UNL     1      34.672 -22.162 -16.615  0.00  0.00    -0.219 N 
ATOM     20  C   UNL     1      35.261 -23.339 -14.712  0.00  0.00    +0.210 C 
ATOM     21  C   UNL     1      35.559 -22.073 -15.486  0.00  0.00    +0.147 C 
ATOM     22  C   UNL     1      33.691 -23.117 -16.363  0.00  0.00    +0.409 C 
BRANCH  20  23
ATOM     23  C   UNL     1      36.241 -24.467 -15.007  0.00  0.00    +0.134 C 
BRANCH  23  25
ATOM     24  O   UNL     1      39.885 -26.545 -13.985  0.00  0.00    -0.349 OA
ATOM     25  N   UNL     1      37.592 -24.007 -14.812  0.00  0.00    -0.312 N 
ATOM     26  N   UNL     1      38.587 -26.160 -14.296  0.00  0.00    -0.062 NA
ATOM     27  C   UNL     1      38.652 -24.838 -14.481  0.00  0.00    +0.171 C 
ATOM     28  C   UNL     1      39.952 -24.338 -14.302  0.00  0.00    +0.081 C 
ATOM     29  C   UNL     1      40.690 -25.450 -13.992  0.00  0.00    +0.215 C 
ATOM     30  H   UNL     1      37.774 -23.044 -14.920  0.00  0.00    +0.148 HD
ENDBRANCH  23  25
ENDBRANCH  20  23
ENDBRANCH   4  19
TORSDOF 4
ENDMDL
MODEL 6
REMARK VINA RESULT:     -10.7      5.521      7.009
REMARK  Name = 25184541
REMARK  4 active torsions:
REMARK  status: ('A' for Active; 'I' for Inactive)
REMARK    1  A    between atoms: C_4  and  N_19
REMARK    2  A    between atoms: C_5  and  N_11
REMARK    3  A    between atoms: C_20  and  C_23
REMARK    4  A    between atoms: C_23  and  N_25
REMARK                            x       y       z     vdW  Elec       q    Type
REMARK                         _______ _______ _______ _____ _____    ______ ____
ROOT
ATOM      1  F   UNL     1      37.286 -21.056 -18.107  0.00  0.00    -0.200 F 
ATOM      2  F   UNL     1      37.388 -19.324 -20.197  0.00  0.00    -0.200 F 
ATOM      3  F   UNL     1      32.645 -19.369 -20.464  0.00  0.00    -0.203 F 
ATOM      4  C   UNL     1      34.914 -21.101 -18.212  0.00  0.00    +0.089 C 
ATOM      5  C   UNL     1      35.018 -19.324 -20.360  0.00  0.00    +0.110 C 
ATOM      6  C   UNL     1      36.146 -20.646 -18.682  0.00  0.00    +0.182 C 
ATOM      7  C   UNL     1      33.734 -20.667 -18.817  0.00  0.00    +0.048 C 
ATOM      8  C   UNL     1      36.197 -19.757 -19.755  0.00  0.00    +0.184 C 
ATOM      9  C   UNL     1      33.786 -19.779 -19.890  0.00  0.00    +0.157 C 
ENDROOT
BRANCH   5  11
ATOM     10  O   UNL     1      35.165 -15.779 -24.554  0.00  0.00    -0.291 OA
ATOM     11  N   UNL     1      35.071 -18.422 -21.454  0.00  0.00    -0.282 N 
ATOM     12  C   UNL     1      35.763 -17.138 -21.244  0.00  0.00    +0.104 C 
ATOM     13  C   UNL     1      35.199 -16.057 -22.166  0.00  0.00    +0.091 C 
ATOM     14  C   UNL     1      34.670 -18.759 -22.739  0.00  0.00    +0.068 C 
ATOM     15  C   UNL     1      35.052 -16.538 -23.594  0.00  0.00    +0.176 C 
ATOM     16  C   UNL     1      34.667 -17.952 -23.804  0.00  0.00    +0.054 C 
ENDBRANCH   5  11
BRANCH   4  19
ATOM     17  O   UNL     1      34.409 -23.807 -15.829  0.00  0.00    -0.434 OA
ATOM     18  O   UNL     1      33.593 -23.829 -17.945  0.00  0.00    -0.226 OA
ATOM     19  N   UNL     1      34.857 -22.008 -17.116  0.00  0.00    -0.219 N 
ATOM     20  C   UNL     1      35.358 -23.021 -15.096  0.00  0.00    +0.210 C 
ATOM     21  C   UNL     1      35.373 -21.687 -15.812  0.00  0.00    +0.147 C 
ATOM     22  C   UNL     1      34.235 -23.253 -17.077  0.00  0.00    +0.409 C 
BRANCH  20  23
ATOM     23  C   UNL     1      36.706 -23.729 -15.120  0.00  0.00    +0.134 C 
BRANCH  23  25
ATOM     24  O   UNL     1      38.423 -22.130 -11.496  0.00  0.00    -0.349 OA
ATOM     25  N   UNL     1      36.972 -24.323 -13.834  0.00  0.00    -0.312 N 
ATOM     26  N   UNL     1      37.919 -22.357 -12.770  0.00  0.00    -0.062 NA
ATOM     27  C   UNL     1      37.540 -23.639 -12.770  0.00  0.00    +0.171 C 
ATOM     28  C   UNL     1      37.778 -24.265 -11.535  0.00  0.00    +0.081 C 
ATOM     29  C   UNL     1      38.334 -23.274 -10.769  0.00  0.00    +0.215 C 
ATOM     30  H   UNL     1      36.737 -25.271 -13.705  0.00  0.00    +0.148 HD
ENDBRANCH  23  25
ENDBRANCH  20  23
ENDBRANCH   4  19
TORSDOF 4
ENDMDL
MODEL 7
REMARK VINA RESULT:     -10.2     10.847     13.329
REMARK  Name = 25184541
REMARK  4 active torsions:
REMARK  status: ('A' for Active; 'I' for Inactive)
REMARK    1  A    between atoms: C_4  and  N_19
REMARK    2  A    between atoms: C_5  and  N_11
REMARK    3  A    between atoms: C_20  and  C_23
REMARK    4  A    between atoms: C_23  and  N_25
REMARK                            x       y       z     vdW  Elec       q    Type
REMARK                         _______ _______ _______ _____ _____    ______ ____
ROOT
ATOM      1  F   UNL     1      34.537 -13.281 -20.371  0.00  0.00    -0.200 F 
ATOM      2  F   UNL     1      35.051 -15.692 -19.230  0.00  0.00    -0.200 F 
ATOM      3  F   UNL     1      35.292 -17.678 -23.537  0.00  0.00    -0.203 F 
ATOM      4  C   UNL     1      34.652 -14.241 -22.540  0.00  0.00    +0.089 C 
ATOM      5  C   UNL     1      35.177 -16.717 -21.368  0.00  0.00    +0.110 C 
ATOM      6  C   UNL     1      34.721 -14.355 -21.151  0.00  0.00    +0.182 C 
ATOM      7  C   UNL     1      34.846 -15.366 -23.342  0.00  0.00    +0.048 C 
ATOM      8  C   UNL     1      34.984 -15.594 -20.566  0.00  0.00    +0.184 C 
ATOM      9  C   UNL     1      35.108 -16.603 -22.756  0.00  0.00    +0.157 C 
ENDROOT
BRANCH   5  11
ATOM     10  O   UNL     1      36.144 -21.577 -18.996  0.00  0.00    -0.291 OA
ATOM     11  N   UNL     1      35.442 -17.979 -20.772  0.00  0.00    -0.282 N 
ATOM     12  C   UNL     1      34.374 -18.993 -20.824  0.00  0.00    +0.104 C 
ATOM     13  C   UNL     1      34.485 -19.964 -19.650  0.00  0.00    +0.091 C 
ATOM     14  C   UNL     1      36.695 -18.355 -20.313  0.00  0.00    +0.068 C 
ATOM     15  C   UNL     1      35.902 -20.460 -19.446  0.00  0.00    +0.176 C 
ATOM     16  C   UNL     1      37.006 -19.512 -19.719  0.00  0.00    +0.054 C 
ENDBRANCH   5  11
BRANCH   4  19
ATOM     17  O   UNL     1      33.701 -11.378 -24.578  0.00  0.00    -0.434 OA
ATOM     18  O   UNL     1      33.329 -13.531 -25.185  0.00  0.00    -0.226 OA
ATOM     19  N   UNL     1      34.384 -12.979 -23.141  0.00  0.00    -0.219 N 
ATOM     20  C   UNL     1      34.086 -10.696 -23.376  0.00  0.00    +0.210 C 
ATOM     21  C   UNL     1      34.844 -11.736 -22.580  0.00  0.00    +0.147 C 
ATOM     22  C   UNL     1      33.760 -12.736 -24.361  0.00  0.00    +0.409 C 
BRANCH  20  23
ATOM     23  C   UNL     1      32.831 -10.198 -22.671  0.00  0.00    +0.134 C 
BRANCH  23  25
ATOM     24  O   UNL     1      31.416  -9.312 -18.689  0.00  0.00    -0.349 OA
ATOM     25  N   UNL     1      32.535 -11.043 -21.542  0.00  0.00    -0.312 N 
ATOM     26  N   UNL     1      31.854  -9.289 -20.008  0.00  0.00    -0.062 NA
ATOM     27  C   UNL     1      32.081 -10.568 -20.320  0.00  0.00    +0.171 C 
ATOM     28  C   UNL     1      31.807 -11.435 -19.249  0.00  0.00    +0.081 C 
ATOM     29  C   UNL     1      31.392 -10.597 -18.248  0.00  0.00    +0.215 C 
ATOM     30  H   UNL     1      32.663 -12.014 -21.644  0.00  0.00    +0.148 HD
ENDBRANCH  23  25
ENDBRANCH  20  23
ENDBRANCH   4  19
TORSDOF 4
ENDMDL
MODEL 8
REMARK VINA RESULT:      -9.9     11.628     14.014
REMARK  Name = 25184541
REMARK  4 active torsions:
REMARK  status: ('A' for Active; 'I' for Inactive)
REMARK    1  A    between atoms: C_4  and  N_19
REMARK    2  A    between atoms: C_5  and  N_11
REMARK    3  A    between atoms: C_20  and  C_23
REMARK    4  A    between atoms: C_23  and  N_25
REMARK                            x       y       z     vdW  Elec       q    Type
REMARK                         _______ _______ _______ _____ _____    ______ ____
ROOT
ATOM      1  F   UNL     1      34.487 -13.146 -20.348  0.00  0.00    -0.200 F 
ATOM      2  F   UNL     1      35.007 -15.576 -19.252  0.00  0.00    -0.200 F 
ATOM      3  F   UNL     1      35.360 -17.459 -23.598  0.00  0.00    -0.203 F 
ATOM      4  C   UNL     1      34.657 -14.055 -22.535  0.00  0.00    +0.089 C 
ATOM      5  C   UNL     1      35.189 -16.551 -21.410  0.00  0.00    +0.110 C 
ATOM      6  C   UNL     1      34.700 -14.200 -21.149  0.00  0.00    +0.182 C 
ATOM      7  C   UNL     1      34.882 -15.158 -23.359  0.00  0.00    +0.048 C 
ATOM      8  C   UNL     1      34.966 -15.448 -20.586  0.00  0.00    +0.184 C 
ATOM      9  C   UNL     1      35.147 -16.405 -22.796  0.00  0.00    +0.157 C 
ENDROOT
BRANCH   5  11
ATOM     10  O   UNL     1      36.169 -21.452 -19.130  0.00  0.00    -0.291 OA
ATOM     11  N   UNL     1      35.457 -17.822 -20.838  0.00  0.00    -0.282 N 
ATOM     12  C   UNL     1      34.396 -18.840 -20.916  0.00  0.00    +0.104 C 
ATOM     13  C   UNL     1      34.505 -19.834 -19.761  0.00  0.00    +0.091 C 
ATOM     14  C   UNL     1      36.710 -18.201 -20.379  0.00  0.00    +0.068 C 
ATOM     15  C   UNL     1      35.923 -20.327 -19.559  0.00  0.00    +0.176 C 
ATOM     16  C   UNL     1      37.024 -19.368 -19.807  0.00  0.00    +0.054 C 
ENDBRANCH   5  11
BRANCH   4  19
ATOM     17  O   UNL     1      33.698 -11.156 -24.519  0.00  0.00    -0.434 OA
ATOM     18  O   UNL     1      33.329 -13.298 -25.165  0.00  0.00    -0.226 OA
ATOM     19  N   UNL     1      34.387 -12.781 -23.113  0.00  0.00    -0.219 N 
ATOM     20  C   UNL     1      34.084 -10.495 -23.306  0.00  0.00    +0.210 C 
ATOM     21  C   UNL     1      34.845 -11.549 -22.530  0.00  0.00    +0.147 C 
ATOM     22  C   UNL     1      33.760 -12.518 -24.328  0.00  0.00    +0.409 C 
BRANCH  20  23
ATOM     23  C   UNL     1      32.829 -10.013 -22.589  0.00  0.00    +0.134 C 
BRANCH  23  25
ATOM     24  O   UNL     1      32.450  -7.903 -18.842  0.00  0.00    -0.349 OA
ATOM     25  N   UNL     1      32.964  -8.619 -22.248  0.00  0.00    -0.312 N 
ATOM     26  N   UNL     1      32.505  -8.831 -19.874  0.00  0.00    -0.062 NA
ATOM     27  C   UNL     1      32.802  -8.119 -20.965  0.00  0.00    +0.171 C 
ATOM     28  C   UNL     1      32.944  -6.750 -20.685  0.00  0.00    +0.081 C 
ATOM     29  C   UNL     1      32.713  -6.666 -19.337  0.00  0.00    +0.215 C 
ATOM     30  H   UNL     1      33.182  -7.985 -22.970  0.00  0.00    +0.148 HD
ENDBRANCH  23  25
ENDBRANCH  20  23
ENDBRANCH   4  19
TORSDOF 4
ENDMDL
MODEL 9
REMARK VINA RESULT:      -9.9     15.845     18.282
REMARK  Name = 25184541
REMARK  4 active torsions:
REMARK  status: ('A' for Active; 'I' for Inactive)
REMARK    1  A    between atoms: C_4  and  N_19
REMARK    2  A    between atoms: C_5  and  N_11
REMARK    3  A    between atoms: C_20  and  C_23
REMARK    4  A    between atoms: C_23  and  N_25
REMARK                            x       y       z     vdW  Elec       q    Type
REMARK                         _______ _______ _______ _____ _____    ______ ____
ROOT
ATOM      1  F   UNL     1      31.121 -10.214 -20.168  0.00  0.00    -0.200 F 
ATOM      2  F   UNL     1      31.878 -12.695 -20.975  0.00  0.00    -0.200 F 
ATOM      3  F   UNL     1      34.807 -10.760 -24.175  0.00  0.00    -0.203 F 
ATOM      4  C   UNL     1      32.576  -9.214 -21.757  0.00  0.00    +0.089 C 
ATOM      5  C   UNL     1      33.352 -11.761 -22.586  0.00  0.00    +0.110 C 
ATOM      6  C   UNL     1      32.024 -10.342 -21.151  0.00  0.00    +0.182 C 
ATOM      7  C   UNL     1      33.516  -9.359 -22.777  0.00  0.00    +0.048 C 
ATOM      8  C   UNL     1      32.413 -11.616 -21.566  0.00  0.00    +0.184 C 
ATOM      9  C   UNL     1      33.903 -10.632 -23.192  0.00  0.00    +0.157 C 
ENDROOT
BRANCH   5  11
ATOM     10  O   UNL     1      34.959 -16.751 -24.228  0.00  0.00    -0.291 OA
ATOM     11  N   UNL     1      33.745 -13.058 -23.010  0.00  0.00    -0.282 N 
ATOM     12  C   UNL     1      34.445 -13.909 -22.033  0.00  0.00    +0.104 C 
ATOM     13  C   UNL     1      35.363 -14.908 -22.737  0.00  0.00    +0.091 C 
ATOM     14  C   UNL     1      33.350 -13.616 -24.217  0.00  0.00    +0.068 C 
ATOM     15  C   UNL     1      34.676 -15.603 -23.895  0.00  0.00    +0.176 C 
ATOM     16  C   UNL     1      33.706 -14.815 -24.688  0.00  0.00    +0.054 C 
ENDBRANCH   5  11
BRANCH   4  19
ATOM     17  O   UNL     1      31.888  -6.043 -20.106  0.00  0.00    -0.434 OA
ATOM     18  O   UNL     1      33.050  -7.734 -19.142  0.00  0.00    -0.226 OA
ATOM     19  N   UNL     1      32.182  -7.912 -21.335  0.00  0.00    -0.219 N 
ATOM     20  C   UNL     1      31.434  -5.724 -21.428  0.00  0.00    +0.210 C 
ATOM     21  C   UNL     1      31.324  -7.065 -22.121  0.00  0.00    +0.147 C 
ATOM     22  C   UNL     1      32.450  -7.299 -20.115  0.00  0.00    +0.409 C 
BRANCH  20  23
ATOM     23  C   UNL     1      32.445  -4.791 -22.083  0.00  0.00    +0.134 C 
BRANCH  23  25
ATOM     24  O   UNL     1      32.621  -2.161 -25.502  0.00  0.00    -0.349 OA
ATOM     25  N   UNL     1      32.508  -5.052 -23.499  0.00  0.00    -0.312 N 
ATOM     26  N   UNL     1      32.559  -2.741 -24.241  0.00  0.00    -0.062 NA
ATOM     27  C   UNL     1      32.559  -4.058 -24.466  0.00  0.00    +0.171 C 
ATOM     28  C   UNL     1      32.619  -4.366 -25.835  0.00  0.00    +0.081 C 
ATOM     29  C   UNL     1      32.657  -3.139 -26.444  0.00  0.00    +0.215 C 
ATOM     30  H   UNL     1      32.513  -5.990 -23.797  0.00  0.00    +0.148 HD
ENDBRANCH  23  25
ENDBRANCH  20  23
ENDBRANCH   4  19
TORSDOF 4
ENDMDL
