MODEL 1
REMARK VINA RESULT:     -12.8      0.000      0.000
REMARK  Name = 23729147
REMARK  5 active torsions:
REMARK  status: ('A' for Active; 'I' for Inactive)
REMARK    1  A    between atoms: O_1  and  C_6
REMARK    2  A    between atoms: O_1  and  C_18
REMARK    3  A    between atoms: C_18  and  C_20
REMARK    4  A    between atoms: N_19  and  C_26
REMARK    5  A    between atoms: C_26  and  C_28
REMARK                            x       y       z     vdW  Elec       q    Type
REMARK                         _______ _______ _______ _____ _____    ______ ____
ROOT
ATOM      1  O   UNL     1      35.182 -22.097 -16.812  0.00  0.00    -0.479 OA
ENDROOT
BRANCH   1   6
ATOM      2  N   UNL     1      36.080 -23.364 -12.221  0.00  0.00    -0.332 NA
ATOM      3  N   UNL     1      37.928 -22.650 -13.594  0.00  0.00    -0.317 NA
ATOM      4  N   UNL     1      37.616 -22.018 -15.817  0.00  0.00    -0.335 N 
ATOM      5  N   UNL     1      38.261 -23.283 -11.363  0.00  0.00    -0.283 N 
ATOM      6  C   UNL     1      34.795 -22.538 -15.569  0.00  0.00    +0.130 C 
ATOM      7  C   UNL     1      35.688 -22.726 -14.501  0.00  0.00    +0.177 C 
ATOM      8  C   UNL     1      33.440 -22.804 -15.399  0.00  0.00    +0.033 C 
ATOM      9  C   UNL     1      35.234 -23.181 -13.252  0.00  0.00    +0.137 C 
ATOM     10  C   UNL     1      37.054 -22.478 -14.604  0.00  0.00    +0.181 C 
ATOM     11  C   UNL     1      32.980 -23.255 -14.168  0.00  0.00    +0.005 C 
ATOM     12  C   UNL     1      33.874 -23.439 -13.109  0.00  0.00    +0.030 C 
ATOM     13  C   UNL     1      37.380 -23.088 -12.449  0.00  0.00    +0.197 C 
ATOM     14  H   UNL     1      38.584 -21.846 -15.878  0.00  0.00    +0.144 HD
ATOM     15  H   UNL     1      37.040 -21.867 -16.601  0.00  0.00    +0.144 HD
ATOM     16  H   UNL     1      37.915 -23.602 -10.499  0.00  0.00    +0.156 HD
ATOM     17  H   UNL     1      39.222 -23.097 -11.469  0.00  0.00    +0.156 HD
ENDBRANCH   1   6
BRANCH   1  18
ATOM     18  C   UNL     1      34.180 -22.032 -17.810  0.00  0.00    +0.205 C 
BRANCH  18  20
ATOM     19  N   UNL     1      35.594 -18.741 -20.224  0.00  0.00    +0.390 N 
ATOM     20  C   UNL     1      34.738 -21.267 -19.007  0.00  0.00    +0.040 C 
ATOM     21  C   UNL     1      36.071 -20.597 -18.661  0.00  0.00    -0.019 C 
ATOM     22  C   UNL     1      33.742 -20.212 -19.499  0.00  0.00    -0.019 C 
ATOM     23  C   UNL     1      36.587 -19.747 -19.824  0.00  0.00    -0.077 C 
ATOM     24  C   UNL     1      34.334 -19.373 -20.634  0.00  0.00    -0.077 C 
ATOM     25  H   UNL     1      35.401 -18.150 -19.416  0.00  0.00    -0.079 HD
BRANCH  19  26
ATOM     26  C   UNL     1      36.121 -17.903 -21.302  0.00  0.00    -0.048 C 
BRANCH  26  28
ATOM     27  F   UNL     1      35.604 -16.378 -23.635  0.00  0.00    -0.205 F 
ATOM     28  C   UNL     1      35.543 -16.513 -21.265  0.00  0.00    -0.016 C 
ATOM     29  C   UNL     1      35.313 -15.818 -22.452  0.00  0.00    +0.134 C 
ATOM     30  C   UNL     1      35.238 -15.921 -20.040  0.00  0.00    -0.004 C 
ATOM     31  C   UNL     1      34.779 -14.529 -22.414  0.00  0.00    +0.029 C 
ATOM     32  C   UNL     1      34.703 -14.634 -20.001  0.00  0.00    -0.000 C 
ATOM     33  C   UNL     1      34.474 -13.937 -21.188  0.00  0.00    +0.002 C 
ENDBRANCH  26  28
ENDBRANCH  19  26
ENDBRANCH  18  20
ENDBRANCH   1  18
TORSDOF 5
ENDMDL
MODEL 2
REMARK VINA RESULT:     -12.2      1.518      2.297
REMARK  Name = 23729147
REMARK  5 active torsions:
REMARK  status: ('A' for Active; 'I' for Inactive)
REMARK    1  A    between atoms: O_1  and  C_6
REMARK    2  A    between atoms: O_1  and  C_18
REMARK    3  A    between atoms: C_18  and  C_20
REMARK    4  A    between atoms: N_19  and  C_26
REMARK    5  A    between atoms: C_26  and  C_28
REMARK                            x       y       z     vdW  Elec       q    Type
REMARK                         _______ _______ _______ _____ _____    ______ ____
ROOT
ATOM      1  O   UNL     1      34.530 -22.681 -16.831  0.00  0.00    -0.479 OA
ENDROOT
BRANCH   1   6
ATOM      2  N   UNL     1      34.049 -23.565 -12.091  0.00  0.00    -0.332 NA
ATOM      3  N   UNL     1      36.269 -23.519 -13.027  0.00  0.00    -0.317 NA
ATOM      4  N   UNL     1      36.623 -23.104 -15.294  0.00  0.00    -0.335 N 
ATOM      5  N   UNL     1      35.933 -23.938 -10.746  0.00  0.00    -0.283 N 
ATOM      6  C   UNL     1      33.782 -22.854 -15.691  0.00  0.00    +0.130 C 
ATOM      7  C   UNL     1      34.341 -23.132 -14.432  0.00  0.00    +0.177 C 
ATOM      8  C   UNL     1      32.402 -22.743 -15.832  0.00  0.00    +0.033 C 
ATOM      9  C   UNL     1      33.525 -23.300 -13.301  0.00  0.00    +0.137 C 
ATOM     10  C   UNL     1      35.712 -23.255 -14.223  0.00  0.00    +0.181 C 
ATOM     11  C   UNL     1      31.585 -22.908 -14.720  0.00  0.00    +0.005 C 
ATOM     12  C   UNL     1      32.148 -23.183 -13.470  0.00  0.00    +0.030 C 
ATOM     13  C   UNL     1      35.392 -23.660 -12.019  0.00  0.00    +0.197 C 
ATOM     14  H   UNL     1      37.590 -23.194 -15.134  0.00  0.00    +0.144 HD
ATOM     15  H   UNL     1      36.290 -22.909 -16.200  0.00  0.00    +0.144 HD
ATOM     16  H   UNL     1      35.338 -24.052  -9.971  0.00  0.00    +0.156 HD
ATOM     17  H   UNL     1      36.909 -24.018 -10.633  0.00  0.00    +0.156 HD
ENDBRANCH   1   6
BRANCH   1  18
ATOM     18  C   UNL     1      33.838 -22.273 -17.997  0.00  0.00    +0.205 C 
BRANCH  18  20
ATOM     19  N   UNL     1      35.591 -19.345 -20.645  0.00  0.00    +0.390 N 
ATOM     20  C   UNL     1      34.442 -20.959 -18.484  0.00  0.00    +0.040 C 
ATOM     21  C   UNL     1      33.585 -20.333 -19.589  0.00  0.00    -0.019 C 
ATOM     22  C   UNL     1      35.872 -21.166 -18.993  0.00  0.00    -0.019 C 
ATOM     23  C   UNL     1      34.236 -19.068 -20.151  0.00  0.00    -0.077 C 
ATOM     24  C   UNL     1      36.448 -19.873 -19.576  0.00  0.00    -0.077 C 
ATOM     25  H   UNL     1      35.522 -20.057 -21.372  0.00  0.00    -0.079 HD
BRANCH  19  26
ATOM     26  C   UNL     1      36.180 -18.139 -21.226  0.00  0.00    -0.048 C 
BRANCH  26  28
ATOM     27  F   UNL     1      35.846 -15.415 -21.938  0.00  0.00    -0.205 F 
ATOM     28  C   UNL     1      35.446 -17.697 -22.464  0.00  0.00    -0.016 C 
ATOM     29  C   UNL     1      35.318 -16.338 -22.755  0.00  0.00    +0.134 C 
ATOM     30  C   UNL     1      34.893 -18.648 -23.319  0.00  0.00    -0.004 C 
ATOM     31  C   UNL     1      34.636 -15.932 -23.902  0.00  0.00    +0.029 C 
ATOM     32  C   UNL     1      34.212 -18.243 -24.467  0.00  0.00    -0.000 C 
ATOM     33  C   UNL     1      34.083 -16.885 -24.758  0.00  0.00    +0.002 C 
ENDBRANCH  26  28
ENDBRANCH  19  26
ENDBRANCH  18  20
ENDBRANCH   1  18
TORSDOF 5
ENDMDL
MODEL 3
REMARK VINA RESULT:     -11.8      5.277     11.384
REMARK  Name = 23729147
REMARK  5 active torsions:
REMARK  status: ('A' for Active; 'I' for Inactive)
REMARK    1  A    between atoms: O_1  and  C_6
REMARK    2  A    between atoms: O_1  and  C_18
REMARK    3  A    between atoms: C_18  and  C_20
REMARK    4  A    between atoms: N_19  and  C_26
REMARK    5  A    between atoms: C_26  and  C_28
REMARK                            x       y       z     vdW  Elec       q    Type
REMARK                         _______ _______ _______ _____ _____    ______ ____
ROOT
ATOM      1  O   UNL     1      34.558 -12.705 -22.173  0.00  0.00    -0.479 OA
ENDROOT
BRANCH   1   6
ATOM      2  N   UNL     1      31.543  -8.918 -21.945  0.00  0.00    -0.332 NA
ATOM      3  N   UNL     1      33.291  -8.891 -23.604  0.00  0.00    -0.317 NA
ATOM      4  N   UNL     1      34.800 -10.657 -23.807  0.00  0.00    -0.335 N 
ATOM      5  N   UNL     1      31.784  -7.106 -23.415  0.00  0.00    -0.283 N 
ATOM      6  C   UNL     1      33.490 -12.026 -21.639  0.00  0.00    +0.130 C 
ATOM      7  C   UNL     1      33.061 -10.769 -22.099  0.00  0.00    +0.177 C 
ATOM      8  C   UNL     1      32.822 -12.646 -20.588  0.00  0.00    +0.033 C 
ATOM      9  C   UNL     1      31.962 -10.121 -21.512  0.00  0.00    +0.137 C 
ATOM     10  C   UNL     1      33.683 -10.094 -23.146  0.00  0.00    +0.181 C 
ATOM     11  C   UNL     1      31.734 -12.014 -19.999  0.00  0.00    +0.005 C 
ATOM     12  C   UNL     1      31.313 -10.765 -20.463  0.00  0.00    +0.030 C 
ATOM     13  C   UNL     1      32.230  -8.368 -22.967  0.00  0.00    +0.197 C 
ATOM     14  H   UNL     1      35.232 -10.171 -24.546  0.00  0.00    +0.144 HD
ATOM     15  H   UNL     1      35.146 -11.536 -23.529  0.00  0.00    +0.144 HD
ATOM     16  H   UNL     1      31.011  -6.676 -22.985  0.00  0.00    +0.156 HD
ATOM     17  H   UNL     1      32.246  -6.657 -24.159  0.00  0.00    +0.156 HD
ENDBRANCH   1   6
BRANCH   1  18
ATOM     18  C   UNL     1      34.269 -13.880 -22.908  0.00  0.00    +0.205 C 
BRANCH  18  20
ATOM     19  N   UNL     1      35.380 -17.692 -21.208  0.00  0.00    +0.390 N 
ATOM     20  C   UNL     1      35.141 -15.013 -22.373  0.00  0.00    +0.040 C 
ATOM     21  C   UNL     1      34.954 -16.289 -23.200  0.00  0.00    -0.019 C 
ATOM     22  C   UNL     1      34.829 -15.300 -20.901  0.00  0.00    -0.019 C 
ATOM     23  C   UNL     1      35.748 -17.457 -22.610  0.00  0.00    -0.077 C 
ATOM     24  C   UNL     1      35.628 -16.500 -20.387  0.00  0.00    -0.077 C 
ATOM     25  H   UNL     1      34.381 -17.895 -21.174  0.00  0.00    -0.079 HD
BRANCH  19  26
ATOM     26  C   UNL     1      36.109 -18.842 -20.674  0.00  0.00    -0.048 C 
BRANCH  26  28
ATOM     27  F   UNL     1      37.102 -20.796 -18.875  0.00  0.00    -0.205 F 
ATOM     28  C   UNL     1      35.216 -19.748 -19.868  0.00  0.00    -0.016 C 
ATOM     29  C   UNL     1      35.772 -20.689 -19.000  0.00  0.00    +0.134 C 
ATOM     30  C   UNL     1      33.831 -19.645 -19.991  0.00  0.00    -0.004 C 
ATOM     31  C   UNL     1      34.940 -21.527 -18.256  0.00  0.00    +0.029 C 
ATOM     32  C   UNL     1      33.000 -20.482 -19.246  0.00  0.00    -0.000 C 
ATOM     33  C   UNL     1      33.555 -21.424 -18.379  0.00  0.00    +0.002 C 
ENDBRANCH  26  28
ENDBRANCH  19  26
ENDBRANCH  18  20
ENDBRANCH   1  18
TORSDOF 5
ENDMDL
MODEL 4
REMARK VINA RESULT:     -11.8      2.540      3.719
REMARK  Name = 23729147
REMARK  5 active torsions:
REMARK  status: ('A' for Active; 'I' for Inactive)
REMARK    1  A    between atoms: O_1  and  C_6
REMARK    2  A    between atoms: O_1  and  C_18
REMARK    3  A    between atoms: C_18  and  C_20
REMARK    4  A    between atoms: N_19  and  C_26
REMARK    5  A    between atoms: C_26  and  C_28
REMARK                            x       y       z     vdW  Elec       q    Type
REMARK                         _______ _______ _______ _____ _____    ______ ____
ROOT
ATOM      1  O   UNL     1      33.343 -21.930 -17.259  0.00  0.00    -0.479 OA
ENDROOT
BRANCH   1   6
ATOM      2  N   UNL     1      32.532 -23.892 -12.903  0.00  0.00    -0.332 NA
ATOM      3  N   UNL     1      30.633 -23.222 -14.228  0.00  0.00    -0.317 NA
ATOM      4  N   UNL     1      30.902 -22.266 -16.338  0.00  0.00    -0.335 N 
ATOM      5  N   UNL     1      30.344 -24.180 -12.109  0.00  0.00    -0.283 N 
ATOM      6  C   UNL     1      33.760 -22.487 -16.075  0.00  0.00    +0.130 C 
ATOM      7  C   UNL     1      32.880 -22.916 -15.067  0.00  0.00    +0.177 C 
ATOM      8  C   UNL     1      35.135 -22.615 -15.899  0.00  0.00    +0.033 C 
ATOM      9  C   UNL     1      33.365 -23.477 -13.874  0.00  0.00    +0.137 C 
ATOM     10  C   UNL     1      31.496 -22.817 -15.179  0.00  0.00    +0.181 C 
ATOM     11  C   UNL     1      35.627 -23.169 -14.723  0.00  0.00    +0.005 C 
ATOM     12  C   UNL     1      34.745 -23.594 -13.726  0.00  0.00    +0.030 C 
ATOM     13  C   UNL     1      31.212 -23.742 -13.133  0.00  0.00    +0.197 C 
ATOM     14  H   UNL     1      29.922 -22.202 -16.406  0.00  0.00    +0.144 HD
ATOM     15  H   UNL     1      31.468 -21.948 -17.079  0.00  0.00    +0.144 HD
ATOM     16  H   UNL     1      30.712 -24.569 -11.284  0.00  0.00    +0.156 HD
ATOM     17  H   UNL     1      29.369 -24.096 -12.221  0.00  0.00    +0.156 HD
ENDBRANCH   1   6
BRANCH   1  18
ATOM     18  C   UNL     1      34.189 -22.100 -18.382  0.00  0.00    +0.205 C 
BRANCH  18  20
ATOM     19  N   UNL     1      35.555 -18.931 -20.979  0.00  0.00    +0.390 N 
ATOM     20  C   UNL     1      34.676 -20.727 -18.835  0.00  0.00    +0.040 C 
ATOM     21  C   UNL     1      33.699 -20.096 -19.832  0.00  0.00    -0.019 C 
ATOM     22  C   UNL     1      36.070 -20.818 -19.464  0.00  0.00    -0.019 C 
ATOM     23  C   UNL     1      34.230 -18.765 -20.367  0.00  0.00    -0.077 C 
ATOM     24  C   UNL     1      36.524 -19.462 -20.011  0.00  0.00    -0.077 C 
ATOM     25  H   UNL     1      35.469 -19.606 -21.739  0.00  0.00    -0.079 HD
BRANCH  19  26
ATOM     26  C   UNL     1      36.027 -17.661 -21.531  0.00  0.00    -0.048 C 
BRANCH  26  28
ATOM     27  F   UNL     1      35.734 -14.973 -22.383  0.00  0.00    -0.205 F 
ATOM     28  C   UNL     1      35.261 -17.268 -22.767  0.00  0.00    -0.016 C 
ATOM     29  C   UNL     1      35.156 -15.925 -23.128  0.00  0.00    +0.134 C 
ATOM     30  C   UNL     1      34.656 -18.251 -23.549  0.00  0.00    -0.004 C 
ATOM     31  C   UNL     1      34.445 -15.565 -24.274  0.00  0.00    +0.029 C 
ATOM     32  C   UNL     1      33.945 -17.891 -24.694  0.00  0.00    -0.000 C 
ATOM     33  C   UNL     1      33.839 -16.548 -25.056  0.00  0.00    +0.002 C 
ENDBRANCH  26  28
ENDBRANCH  19  26
ENDBRANCH  18  20
ENDBRANCH   1  18
TORSDOF 5
ENDMDL
MODEL 5
REMARK VINA RESULT:     -11.4      5.096     10.833
REMARK  Name = 23729147
REMARK  5 active torsions:
REMARK  status: ('A' for Active; 'I' for Inactive)
REMARK    1  A    between atoms: O_1  and  C_6
REMARK    2  A    between atoms: O_1  and  C_18
REMARK    3  A    between atoms: C_18  and  C_20
REMARK    4  A    between atoms: N_19  and  C_26
REMARK    5  A    between atoms: C_26  and  C_28
REMARK                            x       y       z     vdW  Elec       q    Type
REMARK                         _______ _______ _______ _____ _____    ______ ____
ROOT
ATOM      1  O   UNL     1      33.539 -13.708 -22.546  0.00  0.00    -0.479 OA
ENDROOT
BRANCH   1   6
ATOM      2  N   UNL     1      32.204  -9.381 -20.819  0.00  0.00    -0.332 NA
ATOM      3  N   UNL     1      31.733 -11.337 -19.493  0.00  0.00    -0.317 NA
ATOM      4  N   UNL     1      32.328 -13.471 -20.221  0.00  0.00    -0.335 N 
ATOM      5  N   UNL     1      31.127  -9.201 -18.744  0.00  0.00    -0.283 N 
ATOM      6  C   UNL     1      33.438 -12.340 -22.626  0.00  0.00    +0.130 C 
ATOM      7  C   UNL     1      32.845 -11.546 -21.629  0.00  0.00    +0.177 C 
ATOM      8  C   UNL     1      33.960 -11.745 -23.770  0.00  0.00    +0.033 C 
ATOM      9  C   UNL     1      32.769 -10.150 -21.767  0.00  0.00    +0.137 C 
ATOM     10  C   UNL     1      32.305 -12.077 -20.461  0.00  0.00    +0.181 C 
ATOM     11  C   UNL     1      33.890 -10.365 -23.918  0.00  0.00    +0.005 C 
ATOM     12  C   UNL     1      33.300  -9.582 -22.921  0.00  0.00    +0.030 C 
ATOM     13  C   UNL     1      31.717 -10.016 -19.734  0.00  0.00    +0.197 C 
ATOM     14  H   UNL     1      31.943 -13.835 -19.392  0.00  0.00    +0.144 HD
ATOM     15  H   UNL     1      32.731 -14.078 -20.884  0.00  0.00    +0.144 HD
ATOM     16  H   UNL     1      31.087  -8.226 -18.867  0.00  0.00    +0.156 HD
ATOM     17  H   UNL     1      30.754  -9.609 -17.928  0.00  0.00    +0.156 HD
ENDBRANCH   1   6
BRANCH   1  18
ATOM     18  C   UNL     1      34.326 -14.352 -23.530  0.00  0.00    +0.205 C 
BRANCH  18  20
ATOM     19  N   UNL     1      35.412 -17.859 -21.254  0.00  0.00    +0.390 N 
ATOM     20  C   UNL     1      35.191 -15.406 -22.845  0.00  0.00    +0.040 C 
ATOM     21  C   UNL     1      34.938 -16.797 -23.437  0.00  0.00    -0.019 C 
ATOM     22  C   UNL     1      34.934 -15.433 -21.335  0.00  0.00    -0.019 C 
ATOM     23  C   UNL     1      35.727 -17.873 -22.689  0.00  0.00    -0.077 C 
ATOM     24  C   UNL     1      35.724 -16.555 -20.655  0.00  0.00    -0.077 C 
ATOM     25  H   UNL     1      34.411 -18.022 -21.150  0.00  0.00    -0.079 HD
BRANCH  19  26
ATOM     26  C   UNL     1      36.135 -18.926 -20.561  0.00  0.00    -0.048 C 
BRANCH  26  28
ATOM     27  F   UNL     1      37.047 -20.911 -18.754  0.00  0.00    -0.205 F 
ATOM     28  C   UNL     1      35.205 -19.816 -19.779  0.00  0.00    -0.016 C 
ATOM     29  C   UNL     1      35.722 -20.773 -18.906  0.00  0.00    +0.134 C 
ATOM     30  C   UNL     1      33.826 -19.682 -19.929  0.00  0.00    -0.004 C 
ATOM     31  C   UNL     1      34.858 -21.597 -18.183  0.00  0.00    +0.029 C 
ATOM     32  C   UNL     1      32.962 -20.504 -19.207  0.00  0.00    -0.000 C 
ATOM     33  C   UNL     1      33.478 -21.463 -18.334  0.00  0.00    +0.002 C 
ENDBRANCH  26  28
ENDBRANCH  19  26
ENDBRANCH  18  20
ENDBRANCH   1  18
TORSDOF 5
ENDMDL
MODEL 6
REMARK VINA RESULT:     -11.4      2.213      3.208
REMARK  Name = 23729147
REMARK  5 active torsions:
REMARK  status: ('A' for Active; 'I' for Inactive)
REMARK    1  A    between atoms: O_1  and  C_6
REMARK    2  A    between atoms: O_1  and  C_18
REMARK    3  A    between atoms: C_18  and  C_20
REMARK    4  A    between atoms: N_19  and  C_26
REMARK    5  A    between atoms: C_26  and  C_28
REMARK                            x       y       z     vdW  Elec       q    Type
REMARK                         _______ _______ _______ _____ _____    ______ ____
ROOT
ATOM      1  O   UNL     1      35.320 -21.533 -17.851  0.00  0.00    -0.479 OA
ENDROOT
BRANCH   1   6
ATOM      2  N   UNL     1      32.829 -23.218 -14.051  0.00  0.00    -0.332 NA
ATOM      3  N   UNL     1      31.614 -22.643 -16.051  0.00  0.00    -0.317 NA
ATOM      4  N   UNL     1      32.706 -21.823 -17.942  0.00  0.00    -0.335 N 
ATOM      5  N   UNL     1      30.499 -23.465 -14.162  0.00  0.00    -0.283 N 
ATOM      6  C   UNL     1      35.229 -22.012 -16.566  0.00  0.00    +0.130 C 
ATOM      7  C   UNL     1      34.015 -22.380 -15.960  0.00  0.00    +0.177 C 
ATOM      8  C   UNL     1      36.422 -22.122 -15.859  0.00  0.00    +0.033 C 
ATOM      9  C   UNL     1      33.984 -22.862 -14.641  0.00  0.00    +0.137 C 
ATOM     10  C   UNL     1      32.788 -22.295 -16.611  0.00  0.00    +0.181 C 
ATOM     11  C   UNL     1      36.403 -22.597 -14.553  0.00  0.00    +0.005 C 
ATOM     12  C   UNL     1      35.192 -22.962 -13.957  0.00  0.00    +0.030 C 
ATOM     13  C   UNL     1      31.707 -23.089 -14.788  0.00  0.00    +0.197 C 
ATOM     14  H   UNL     1      31.833 -21.767 -18.392  0.00  0.00    +0.144 HD
ATOM     15  H   UNL     1      33.523 -21.550 -18.419  0.00  0.00    +0.144 HD
ATOM     16  H   UNL     1      30.507 -23.799 -13.236  0.00  0.00    +0.156 HD
ATOM     17  H   UNL     1      29.648 -23.394 -14.652  0.00  0.00    +0.156 HD
ENDBRANCH   1   6
BRANCH   1  18
ATOM     18  C   UNL     1      36.552 -20.950 -18.233  0.00  0.00    +0.205 C 
BRANCH  18  20
ATOM     19  N   UNL     1      35.671 -17.887 -21.148  0.00  0.00    +0.390 N 
ATOM     20  C   UNL     1      36.367 -20.268 -19.585  0.00  0.00    +0.040 C 
ATOM     21  C   UNL     1      37.317 -19.076 -19.736  0.00  0.00    -0.019 C 
ATOM     22  C   UNL     1      34.920 -19.802 -19.774  0.00  0.00    -0.019 C 
ATOM     23  C   UNL     1      37.069 -18.327 -21.047  0.00  0.00    -0.077 C 
ATOM     24  C   UNL     1      34.749 -19.029 -21.084  0.00  0.00    -0.077 C 
ATOM     25  H   UNL     1      35.474 -17.279 -20.353  0.00  0.00    -0.079 HD
BRANCH  19  26
ATOM     26  C   UNL     1      35.461 -17.129 -22.382  0.00  0.00    -0.048 C 
BRANCH  26  28
ATOM     27  F   UNL     1      35.043 -15.213 -24.429  0.00  0.00    -0.205 F 
ATOM     28  C   UNL     1      35.126 -15.688 -22.103  0.00  0.00    -0.016 C 
ATOM     29  C   UNL     1      34.933 -14.797 -23.160  0.00  0.00    +0.134 C 
ATOM     30  C   UNL     1      35.009 -15.244 -20.787  0.00  0.00    -0.004 C 
ATOM     31  C   UNL     1      34.623 -13.461 -22.898  0.00  0.00    +0.029 C 
ATOM     32  C   UNL     1      34.699 -13.909 -20.525  0.00  0.00    -0.000 C 
ATOM     33  C   UNL     1      34.507 -13.018 -21.581  0.00  0.00    +0.002 C 
ENDBRANCH  26  28
ENDBRANCH  19  26
ENDBRANCH  18  20
ENDBRANCH   1  18
TORSDOF 5
ENDMDL
MODEL 7
REMARK VINA RESULT:     -11.3      3.618      5.910
REMARK  Name = 23729147
REMARK  5 active torsions:
REMARK  status: ('A' for Active; 'I' for Inactive)
REMARK    1  A    between atoms: O_1  and  C_6
REMARK    2  A    between atoms: O_1  and  C_18
REMARK    3  A    between atoms: C_18  and  C_20
REMARK    4  A    between atoms: N_19  and  C_26
REMARK    5  A    between atoms: C_26  and  C_28
REMARK                            x       y       z     vdW  Elec       q    Type
REMARK                         _______ _______ _______ _____ _____    ______ ____
ROOT
ATOM      1  O   UNL     1      34.612 -18.714 -21.287  0.00  0.00    -0.479 OA
ENDROOT
BRANCH   1   6
ATOM      2  N   UNL     1      34.962 -21.839 -17.599  0.00  0.00    -0.332 NA
ATOM      3  N   UNL     1      32.779 -21.394 -18.518  0.00  0.00    -0.317 NA
ATOM      4  N   UNL     1      32.489 -19.910 -20.293  0.00  0.00    -0.335 N 
ATOM      5  N   UNL     1      33.052 -22.889 -16.735  0.00  0.00    -0.283 N 
ATOM      6  C   UNL     1      35.325 -19.415 -20.344  0.00  0.00    +0.130 C 
ATOM      7  C   UNL     1      34.735 -20.300 -19.425  0.00  0.00    +0.177 C 
ATOM      8  C   UNL     1      36.701 -19.210 -20.329  0.00  0.00    +0.033 C 
ATOM      9  C   UNL     1      35.516 -20.989 -18.482  0.00  0.00    +0.137 C 
ATOM     10  C   UNL     1      33.366 -20.551 -19.388  0.00  0.00    +0.181 C 
ATOM     11  C   UNL     1      37.484 -19.885 -19.399  0.00  0.00    +0.005 C 
ATOM     12  C   UNL     1      36.890 -20.765 -18.490  0.00  0.00    +0.030 C 
ATOM     13  C   UNL     1      33.625 -21.995 -17.665  0.00  0.00    +0.197 C 
ATOM     14  H   UNL     1      31.523 -20.095 -20.258  0.00  0.00    +0.144 HD
ATOM     15  H   UNL     1      32.844 -19.278 -20.961  0.00  0.00    +0.144 HD
ATOM     16  H   UNL     1      33.623 -23.358 -16.086  0.00  0.00    +0.156 HD
ATOM     17  H   UNL     1      32.079 -23.044 -16.736  0.00  0.00    +0.156 HD
ENDBRANCH   1   6
BRANCH   1  18
ATOM     18  C   UNL     1      35.226 -18.527 -22.548  0.00  0.00    +0.205 C 
BRANCH  18  20
ATOM     19  N   UNL     1      34.226 -14.329 -22.743  0.00  0.00    +0.390 N 
ATOM     20  C   UNL     1      35.369 -17.029 -22.801  0.00  0.00    +0.040 C 
ATOM     21  C   UNL     1      35.204 -16.232 -21.502  0.00  0.00    -0.019 C 
ATOM     22  C   UNL     1      34.349 -16.545 -23.836  0.00  0.00    -0.019 C 
ATOM     23  C   UNL     1      35.246 -14.726 -21.763  0.00  0.00    -0.077 C 
ATOM     24  C   UNL     1      34.419 -15.027 -24.021  0.00  0.00    -0.077 C 
ATOM     25  H   UNL     1      33.314 -14.597 -22.373  0.00  0.00    -0.079 HD
BRANCH  19  26
ATOM     26  C   UNL     1      34.245 -12.880 -22.943  0.00  0.00    -0.048 C 
BRANCH  26  28
ATOM     27  F   UNL     1      33.467 -10.176 -23.286  0.00  0.00    -0.205 F 
ATOM     28  C   UNL     1      33.294 -12.174 -22.014  0.00  0.00    -0.016 C 
ATOM     29  C   UNL     1      32.953 -10.840 -22.242  0.00  0.00    +0.134 C 
ATOM     30  C   UNL     1      32.754 -12.855 -20.925  0.00  0.00    -0.004 C 
ATOM     31  C   UNL     1      32.072 -10.188 -21.378  0.00  0.00    +0.029 C 
ATOM     32  C   UNL     1      31.873 -12.204 -20.061  0.00  0.00    -0.000 C 
ATOM     33  C   UNL     1      31.533 -10.870 -20.287  0.00  0.00    +0.002 C 
ENDBRANCH  26  28
ENDBRANCH  19  26
ENDBRANCH  18  20
ENDBRANCH   1  18
TORSDOF 5
ENDMDL
MODEL 8
REMARK VINA RESULT:     -10.9      7.983     13.017
REMARK  Name = 23729147
REMARK  5 active torsions:
REMARK  status: ('A' for Active; 'I' for Inactive)
REMARK    1  A    between atoms: O_1  and  C_6
REMARK    2  A    between atoms: O_1  and  C_18
REMARK    3  A    between atoms: C_18  and  C_20
REMARK    4  A    between atoms: N_19  and  C_26
REMARK    5  A    between atoms: C_26  and  C_28
REMARK                            x       y       z     vdW  Elec       q    Type
REMARK                         _______ _______ _______ _____ _____    ______ ____
ROOT
ATOM      1  O   UNL     1      31.987  -9.794 -20.519  0.00  0.00    -0.479 OA
ENDROOT
BRANCH   1   6
ATOM      2  N   UNL     1      32.289  -4.963 -20.280  0.00  0.00    -0.332 NA
ATOM      3  N   UNL     1      32.670  -6.234 -18.268  0.00  0.00    -0.317 NA
ATOM      4  N   UNL     1      32.551  -8.563 -18.263  0.00  0.00    -0.335 N 
ATOM      5  N   UNL     1      32.793  -3.894 -18.254  0.00  0.00    -0.283 N 
ATOM      6  C   UNL     1      31.930  -8.538 -21.074  0.00  0.00    +0.130 C 
ATOM      7  C   UNL     1      32.151  -7.357 -20.345  0.00  0.00    +0.177 C 
ATOM      8  C   UNL     1      31.632  -8.473 -22.432  0.00  0.00    +0.033 C 
ATOM      9  C   UNL     1      32.078  -6.099 -20.967  0.00  0.00    +0.137 C 
ATOM     10  C   UNL     1      32.454  -7.352 -18.986  0.00  0.00    +0.181 C 
ATOM     11  C   UNL     1      31.556  -7.234 -23.058  0.00  0.00    +0.005 C 
ATOM     12  C   UNL     1      31.779  -6.064 -22.326  0.00  0.00    +0.030 C 
ATOM     13  C   UNL     1      32.573  -5.092 -18.968  0.00  0.00    +0.197 C 
ATOM     14  H   UNL     1      32.766  -8.547 -17.302  0.00  0.00    +0.144 HD
ATOM     15  H   UNL     1      32.406  -9.423 -18.720  0.00  0.00    +0.144 HD
ATOM     16  H   UNL     1      32.735  -3.027 -18.716  0.00  0.00    +0.156 HD
ATOM     17  H   UNL     1      33.006  -3.926 -17.293  0.00  0.00    +0.156 HD
ENDBRANCH   1   6
BRANCH   1  18
ATOM     18  C   UNL     1      31.733 -10.888 -21.380  0.00  0.00    +0.205 C 
BRANCH  18  20
ATOM     19  N   UNL     1      34.366 -14.177 -22.333  0.00  0.00    +0.390 N 
ATOM     20  C   UNL     1      33.012 -11.712 -21.507  0.00  0.00    +0.040 C 
ATOM     21  C   UNL     1      33.320 -12.029 -22.974  0.00  0.00    -0.019 C 
ATOM     22  C   UNL     1      32.910 -13.014 -20.706  0.00  0.00    -0.019 C 
ATOM     23  C   UNL     1      34.544 -12.938 -23.102  0.00  0.00    -0.077 C 
ATOM     24  C   UNL     1      34.148 -13.891 -20.909  0.00  0.00    -0.077 C 
ATOM     25  H   UNL     1      33.537 -14.652 -22.689  0.00  0.00    -0.079 HD
BRANCH  19  26
ATOM     26  C   UNL     1      35.522 -15.057 -22.507  0.00  0.00    -0.048 C 
BRANCH  26  28
ATOM     27  F   UNL     1      36.083 -17.482 -21.151  0.00  0.00    -0.205 F 
ATOM     28  C   UNL     1      35.122 -16.408 -23.039  0.00  0.00    -0.016 C 
ATOM     29  C   UNL     1      35.431 -17.563 -22.319  0.00  0.00    +0.134 C 
ATOM     30  C   UNL     1      34.444 -16.503 -24.253  0.00  0.00    -0.004 C 
ATOM     31  C   UNL     1      35.060 -18.814 -22.815  0.00  0.00    +0.029 C 
ATOM     32  C   UNL     1      34.073 -17.753 -24.749  0.00  0.00    -0.000 C 
ATOM     33  C   UNL     1      34.382 -18.908 -24.030  0.00  0.00    +0.002 C 
ENDBRANCH  26  28
ENDBRANCH  19  26
ENDBRANCH  18  20
ENDBRANCH   1  18
TORSDOF 5
ENDMDL
MODEL 9
REMARK VINA RESULT:     -10.8      5.677     12.094
REMARK  Name = 23729147
REMARK  5 active torsions:
REMARK  status: ('A' for Active; 'I' for Inactive)
REMARK    1  A    between atoms: O_1  and  C_6
REMARK    2  A    between atoms: O_1  and  C_18
REMARK    3  A    between atoms: C_18  and  C_20
REMARK    4  A    between atoms: N_19  and  C_26
REMARK    5  A    between atoms: C_26  and  C_28
REMARK                            x       y       z     vdW  Elec       q    Type
REMARK                         _______ _______ _______ _____ _____    ______ ____
ROOT
ATOM      1  O   UNL     1      33.365 -12.245 -22.672  0.00  0.00    -0.479 OA
ENDROOT
BRANCH   1   6
ATOM      2  N   UNL     1      33.138  -7.406 -22.515  0.00  0.00    -0.332 NA
ATOM      3  N   UNL     1      31.842  -8.665 -20.920  0.00  0.00    -0.317 NA
ATOM      4  N   UNL     1      31.873 -10.997 -20.900  0.00  0.00    -0.335 N 
ATOM      5  N   UNL     1      31.798  -6.322 -20.924  0.00  0.00    -0.283 N 
ATOM      6  C   UNL     1      33.710 -10.991 -23.117  0.00  0.00    +0.130 C 
ATOM      7  C   UNL     1      33.216  -9.804 -22.551  0.00  0.00    +0.177 C 
ATOM      8  C   UNL     1      34.597 -10.935 -24.188  0.00  0.00    +0.033 C 
ATOM      9  C   UNL     1      33.604  -8.549 -23.050  0.00  0.00    +0.137 C 
ATOM     10  C   UNL     1      32.328  -9.789 -21.479  0.00  0.00    +0.181 C 
ATOM     11  C   UNL     1      34.987  -9.700 -24.690  0.00  0.00    +0.005 C 
ATOM     12  C   UNL     1      34.492  -8.523 -24.121  0.00  0.00    +0.030 C 
ATOM     13  C   UNL     1      32.282  -7.526 -21.479  0.00  0.00    +0.197 C 
ATOM     14  H   UNL     1      31.245 -10.974 -20.143  0.00  0.00    +0.144 HD
ATOM     15  H   UNL     1      32.185 -11.861 -21.255  0.00  0.00    +0.144 HD
ATOM     16  H   UNL     1      32.087  -5.458 -21.294  0.00  0.00    +0.156 HD
ATOM     17  H   UNL     1      31.171  -6.348 -20.165  0.00  0.00    +0.156 HD
ENDBRANCH   1   6
BRANCH   1  18
ATOM     18  C   UNL     1      33.508 -13.313 -23.589  0.00  0.00    +0.205 C 
BRANCH  18  20
ATOM     19  N   UNL     1      35.174 -16.825 -21.706  0.00  0.00    +0.390 N 
ATOM     20  C   UNL     1      34.542 -14.291 -23.038  0.00  0.00    +0.040 C 
ATOM     21  C   UNL     1      34.463 -15.641 -23.757  0.00  0.00    -0.019 C 
ATOM     22  C   UNL     1      34.356 -14.497 -21.531  0.00  0.00    -0.019 C 
ATOM     23  C   UNL     1      35.427 -16.658 -23.143  0.00  0.00    -0.077 C 
ATOM     24  C   UNL     1      35.324 -15.552 -20.989  0.00  0.00    -0.077 C 
ATOM     25  H   UNL     1      34.211 -17.140 -21.590  0.00  0.00    -0.079 HD
BRANCH  19  26
ATOM     26  C   UNL     1      36.069 -17.837 -21.144  0.00  0.00    -0.048 C 
BRANCH  26  28
ATOM     27  F   UNL     1      37.327 -19.823 -19.560  0.00  0.00    -0.205 F 
ATOM     28  C   UNL     1      35.309 -18.922 -20.428  0.00  0.00    -0.016 C 
ATOM     29  C   UNL     1      35.992 -19.869 -19.665  0.00  0.00    +0.134 C 
ATOM     30  C   UNL     1      33.920 -18.979 -20.531  0.00  0.00    -0.004 C 
ATOM     31  C   UNL     1      35.284 -20.874 -19.004  0.00  0.00    +0.029 C 
ATOM     32  C   UNL     1      33.212 -19.983 -19.870  0.00  0.00    -0.000 C 
ATOM     33  C   UNL     1      33.894 -20.931 -19.108  0.00  0.00    +0.002 C 
ENDBRANCH  26  28
ENDBRANCH  19  26
ENDBRANCH  18  20
ENDBRANCH   1  18
TORSDOF 5
ENDMDL
